data_image0
_cell_length_a       35.8409
_cell_length_b       42.7516
_cell_length_c       50.813
_cell_angle_alpha    90
_cell_angle_beta     91.528
_cell_angle_gamma    90

_symmetry_space_group_name_H-M    "P 1"
_symmetry_int_tables_number       1

loop_
  _symmetry_equiv_pos_as_xyz
  'x, y, z'

loop_
  _atom_site_label
  _atom_site_occupancy
  _atom_site_fract_x
  _atom_site_fract_y
  _atom_site_fract_z
  _atom_site_thermal_displace_type
  _atom_site_B_iso_or_equiv
  _atom_site_type_symbol
  Zn1      1.0000 0.38589  0.40853  0.19797  Biso   1.000  Zn
  Zn2      1.0000 0.43392  0.35294  0.19631  Biso   1.000  Zn
  Zn3      1.0000 0.85748  0.35585  0.19508  Biso   1.000  Zn
  Zn4      1.0000 0.91014  0.40824  0.19212  Biso   1.000  Zn
  Zn5      1.0000 0.14387  0.47468  0.46581  Biso   1.000  Zn
  Zn6      1.0000 0.14425  0.50890  0.41570  Biso   1.000  Zn
  Zn7      1.0000 0.10391  0.62328  0.21151  Biso   1.000  Zn
  Zn8      1.0000 0.15309  0.58240  0.17263  Biso   1.000  Zn
  Zn9      1.0000 0.19219  0.62564  0.21532  Biso   1.000  Zn
  Zn10     1.0000 0.14734  0.65473  0.16586  Biso   1.000  Zn
  O1       1.0000 0.14930  0.62221  0.19211  Biso   1.000  O
  C1       1.0000 0.51160  0.26552  0.19444  Biso   1.000  C
  C2       1.0000 0.51000  0.24141  0.21315  Biso   1.000  C
  H1       1.0000 0.49310  0.24340  0.22710  Biso   1.000  H
  C3       1.0000 0.53210  0.21493  0.21208  Biso   1.000  C
  H2       1.0000 0.53070  0.19950  0.22550  Biso   1.000  H
  C4       1.0000 0.55640  0.21080  0.19163  Biso   1.000  C
  C5       1.0000 0.55920  0.23448  0.17305  Biso   1.000  C
  H3       1.0000 0.57590  0.23220  0.15900  Biso   1.000  H
  C6       1.0000 0.53780  0.26133  0.17476  Biso   1.000  C
  H4       1.0000 0.54100  0.27750  0.16220  Biso   1.000  H
  B1       1.0000 0.48520  0.29580  0.19530  Biso   1.000  B
  O2       1.0000 0.45397  0.28962  0.17588  Biso   1.000  O
  N1       1.0000 0.42810  0.31302  0.17229  Biso   1.000  N
  C7       1.0000 0.40470  0.30730  0.15390  Biso   1.000  C
  H5       1.0000 0.40720  0.28770  0.14530  Biso   1.000  H
  C8       1.0000 0.37460  0.32720  0.14430  Biso   1.000  C
  C9       1.0000 0.36600  0.35630  0.15650  Biso   1.000  C
  C10      1.0000 0.33460  0.37320  0.14510  Biso   1.000  C
  C11      1.0000 0.31540  0.36260  0.12250  Biso   1.000  C
  H6       1.0000 0.29570  0.37490  0.11510  Biso   1.000  H
  C12      1.0000 0.32460  0.33460  0.11060  Biso   1.000  C
  C13      1.0000 0.35410  0.31750  0.12190  Biso   1.000  C
  H7       1.0000 0.36060  0.29820  0.11390  Biso   1.000  H
  C14      1.0000 0.32250  0.40210  0.15630  Biso   1.000  C
  H8       1.0000 0.29980  0.41060  0.14940  Biso   1.000  H
  N2       1.0000 0.33890  0.41760  0.17440  Biso   1.000  N
  O3       1.0000 0.31930  0.44437  0.17939  Biso   1.000  O
  B2       1.0000 0.33460  0.46620  0.19900  Biso   1.000  B
  O4       1.0000 0.50798  0.32215  0.18672  Biso   1.000  O
  N3       1.0000 0.49050  0.35155  0.18704  Biso   1.000  N
  C15      1.0000 0.51330  0.37312  0.18160  Biso   1.000  C
  H9       1.0000 0.53810  0.36680  0.17810  Biso   1.000  H
  C16      1.0000 0.50570  0.40669  0.18020  Biso   1.000  C
  C17      1.0000 0.46950  0.41916  0.18380  Biso   1.000  C
  C18      1.0000 0.46580  0.45201  0.18230  Biso   1.000  C
  C19      1.0000 0.49770  0.47100  0.17900  Biso   1.000  C
  H10      1.0000 0.49470  0.49300  0.17900  Biso   1.000  H
  C20      1.0000 0.53320  0.45875  0.17570  Biso   1.000  C
  C21      1.0000 0.53560  0.42636  0.17530  Biso   1.000  C
  H11      1.0000 0.55890  0.41710  0.17140  Biso   1.000  H
  C22      1.0000 0.43110  0.46880  0.18590  Biso   1.000  C
  H12      1.0000 0.43140  0.49090  0.18390  Biso   1.000  H
  N4       1.0000 0.40040  0.45597  0.19160  Biso   1.000  N
  O5       1.0000 0.37154  0.47845  0.19392  Biso   1.000  O
  O6       1.0000 0.47249  0.29850  0.22213  Biso   1.000  O
  N5       1.0000 0.44820  0.32243  0.22748  Biso   1.000  N
  C23      1.0000 0.43840  0.32137  0.25124  Biso   1.000  C
  H13      1.0000 0.44930  0.30540  0.26200  Biso   1.000  H
  C24      1.0000 0.41190  0.34232  0.26364  Biso   1.000  C
  C25      1.0000 0.39640  0.36876  0.25007  Biso   1.000  C
  C26      1.0000 0.37060  0.38767  0.26430  Biso   1.000  C
  C27      1.0000 0.36100  0.37900  0.28976  Biso   1.000  C
  H14      1.0000 0.34320  0.39140  0.29850  Biso   1.000  H
  C28      1.0000 0.37590  0.35340  0.30294  Biso   1.000  C
  C29      1.0000 0.40180  0.33540  0.28961  Biso   1.000  C
  H15      1.0000 0.41300  0.31790  0.29830  Biso   1.000  H
  C30      1.0000 0.35310  0.41530  0.25307  Biso   1.000  C
  H16      1.0000 0.33790  0.42720  0.26440  Biso   1.000  H
  N6       1.0000 0.35600  0.42540  0.22976  Biso   1.000  N
  O7       1.0000 0.33420  0.45220  0.22571  Biso   1.000  O
  C31      1.0000 0.30510  0.49403  0.19999  Biso   1.000  C
  C32      1.0000 0.25200  0.54311  0.20178  Biso   1.000  C
  C33      1.0000 0.58020  0.18190  0.19002  Biso   1.000  C
  O8       1.0000 0.57731  0.16238  0.20815  Biso   1.000  O
  O9       1.0000 0.60243  0.18103  0.17120  Biso   1.000  O
  O10      1.0000 0.38340  0.36583  0.17686  Biso   1.000  O
  C34      1.0000 0.30370  0.32260  0.08590  Biso   1.000  C
  O11      1.0000 0.44134  0.40084  0.18847  Biso   1.000  O
  C35      1.0000 0.56800  0.47950  0.17340  Biso   1.000  C
  C36      1.0000 0.59420  0.47640  0.19870  Biso   1.000  C
  H17      1.0000 0.58130  0.48460  0.21400  Biso   1.000  H
  H18      1.0000 0.60060  0.45440  0.20160  Biso   1.000  H
  H19      1.0000 0.61710  0.48850  0.19620  Biso   1.000  H
  C37      1.0000 0.59400  0.46590  0.15420  Biso   1.000  C
  H20      1.0000 0.59690  0.44350  0.15770  Biso   1.000  H
  H21      1.0000 0.58390  0.46900  0.13630  Biso   1.000  H
  H22      1.0000 0.61830  0.47620  0.15610  Biso   1.000  H
  C38      1.0000 0.55810  0.51360  0.17290  Biso   1.000  C
  H23      1.0000 0.54070  0.51810  0.18700  Biso   1.000  H
  H24      1.0000 0.58080  0.52610  0.17560  Biso   1.000  H
  H25      1.0000 0.54640  0.51890  0.15580  Biso   1.000  H
  O12      1.0000 0.40533  0.37603  0.22612  Biso   1.000  O
  C39      1.0000 0.36420  0.34490  0.33082  Biso   1.000  C
  C40      1.0000 0.22370  0.56839  0.20370  Biso   1.000  C
  O13      1.0000 0.19085  0.56142  0.19611  Biso   1.000  O
  O14      1.0000 0.23229  0.59485  0.21289  Biso   1.000  O
  C41      1.0000 0.27590  0.49660  0.18090  Biso   1.000  C
  H26      1.0000 0.27410  0.48180  0.16710  Biso   1.000  H
  C42      1.0000 0.24970  0.52040  0.18200  Biso   1.000  C
  H27      1.0000 0.23000  0.52130  0.16920  Biso   1.000  H
  C43      1.0000 0.28140  0.54180  0.22010  Biso   1.000  C
  H28      1.0000 0.28400  0.55740  0.23330  Biso   1.000  H
  C44      1.0000 0.30680  0.51750  0.21890  Biso   1.000  C
  H29      1.0000 0.32660  0.51690  0.23170  Biso   1.000  H
  C45      1.0000 0.39430  0.34910  0.35160  Biso   1.000  C
  H30      1.0000 0.41770  0.34000  0.34540  Biso   1.000  H
  H31      1.0000 0.39790  0.37140  0.35510  Biso   1.000  H
  H32      1.0000 0.38700  0.33850  0.36780  Biso   1.000  H
  C46      1.0000 0.35670  0.30870  0.33150  Biso   1.000  C
  H33      1.0000 0.33710  0.30340  0.31850  Biso   1.000  H
  H34      1.0000 0.37970  0.29740  0.32750  Biso   1.000  H
  H35      1.0000 0.34870  0.30270  0.34910  Biso   1.000  H
  C47      1.0000 0.32680  0.35820  0.33850  Biso   1.000  C
  H36      1.0000 0.30850  0.35470  0.32410  Biso   1.000  H
  H37      1.0000 0.31850  0.34780  0.35440  Biso   1.000  H
  H38      1.0000 0.32940  0.38070  0.34180  Biso   1.000  H
  C48      1.0000 0.32890  0.32500  0.06200  Biso   1.000  C
  H39      1.0000 0.35230  0.31380  0.06570  Biso   1.000  H
  H40      1.0000 0.31610  0.31560  0.04660  Biso   1.000  H
  H41      1.0000 0.33420  0.34700  0.05830  Biso   1.000  H
  C49      1.0000 0.26720  0.33980  0.08030  Biso   1.000  C
  H42      1.0000 0.25510  0.33130  0.06430  Biso   1.000  H
  H43      1.0000 0.25070  0.33720  0.09520  Biso   1.000  H
  H44      1.0000 0.27230  0.36210  0.07770  Biso   1.000  H
  C50      1.0000 0.29600  0.28740  0.08930  Biso   1.000  C
  H45      1.0000 0.31960  0.27640  0.09290  Biso   1.000  H
  H46      1.0000 0.27930  0.28430  0.10400  Biso   1.000  H
  H47      1.0000 0.28420  0.27920  0.07310  Biso   1.000  H
  C51      1.0000 0.14040  0.42170  0.54612  Biso   1.000  C
  C52      1.0000 0.13730  0.39370  0.59645  Biso   1.000  C
  B3       1.0000 0.14360  0.43890  0.51853  Biso   1.000  B
  O15      1.0000 0.14180  0.47199  0.52490  Biso   1.000  O
  N7       1.0000 0.13950  0.49340  0.50412  Biso   1.000  N
  C53      1.0000 0.13800  0.52130  0.51192  Biso   1.000  C
  H48      1.0000 0.13820  0.52460  0.53040  Biso   1.000  H
  C54      1.0000 0.13600  0.54887  0.49532  Biso   1.000  C
  C55      1.0000 0.13700  0.54770  0.46725  Biso   1.000  C
  C56      1.0000 0.13400  0.57670  0.45350  Biso   1.000  C
  C57      1.0000 0.12920  0.60420  0.46792  Biso   1.000  C
  H49      1.0000 0.12600  0.62320  0.45840  Biso   1.000  H
  C58      1.0000 0.12890  0.60560  0.49478  Biso   1.000  C
  C59      1.0000 0.13180  0.57780  0.50830  Biso   1.000  C
  H50      1.0000 0.13090  0.57800  0.52700  Biso   1.000  H
  C60      1.0000 0.13590  0.57940  0.42539  Biso   1.000  C
  H51      1.0000 0.13390  0.60000  0.41840  Biso   1.000  H
  N8       1.0000 0.13980  0.55772  0.40880  Biso   1.000  N
  O16      1.0000 0.14070  0.56835  0.38337  Biso   1.000  O
  B4       1.0000 0.14570  0.54460  0.36304  Biso   1.000  B
  O17      1.0000 0.11120  0.42846  0.50317  Biso   1.000  O
  N9       1.0000 0.10520  0.44160  0.47851  Biso   1.000  N
  C61      1.0000 0.07270  0.43550  0.46934  Biso   1.000  C
  H52      1.0000 0.05710  0.42280  0.47980  Biso   1.000  H
  C62      1.0000 0.05770  0.44620  0.44447  Biso   1.000  C
  C63      1.0000 0.07800  0.46430  0.42574  Biso   1.000  C
  C64      1.0000 0.05810  0.47320  0.40216  Biso   1.000  C
  C65      1.0000 0.02030  0.46550  0.39872  Biso   1.000  C
  H53      1.0000 0.00750  0.47220  0.38310  Biso   1.000  H
  C66      1.0000 0.00050  0.44840  0.41702  Biso   1.000  C
  C67      1.0000 0.01990  0.43900  0.43926  Biso   1.000  C
  H54      1.0000 0.00700  0.42690  0.45180  Biso   1.000  H
  C68      1.0000 0.07480  0.49200  0.38172  Biso   1.000  C
  H55      1.0000 0.06100  0.49440  0.36560  Biso   1.000  H
  N10      1.0000 0.10630  0.50542  0.38373  Biso   1.000  N
  O18      1.0000 0.11470  0.52119  0.36128  Biso   1.000  O
  C69      1.0000 0.14580  0.56220  0.33514  Biso   1.000  C
  C70      1.0000 0.11370  0.56410  0.31886  Biso   1.000  C
  H56      1.0000 0.09150  0.55410  0.32420  Biso   1.000  H
  C71      1.0000 0.11360  0.58030  0.29512  Biso   1.000  C
  H57      1.0000 0.09120  0.58210  0.28480  Biso   1.000  H
  C72      1.0000 0.14620  0.59388  0.28644  Biso   1.000  C
  C73      1.0000 0.17860  0.59160  0.30171  Biso   1.000  C
  H58      1.0000 0.20100  0.60090  0.29600  Biso   1.000  H
  C74      1.0000 0.17810  0.57570  0.32556  Biso   1.000  C
  H59      1.0000 0.20070  0.57390  0.33570  Biso   1.000  H
  C75      1.0000 0.13650  0.38080  0.62373  Biso   1.000  C
  O19      1.0000 0.14858  0.35353  0.62776  Biso   1.000  O
  O20      1.0000 0.12000  0.39560  0.64072  Biso   1.000  O
  O21      1.0000 0.13790  0.52162  0.45522  Biso   1.000  O
  C76      1.0000 0.12400  0.63700  0.50890  Biso   1.000  C
  O22      1.0000 0.11220  0.47147  0.42989  Biso   1.000  O
  C77      1.0000 0.95930  0.43920  0.41330  Biso   1.000  C
  C78      1.0000 0.95430  0.40340  0.41570  Biso   1.000  C
  H60      1.0000 0.96430  0.39630  0.43280  Biso   1.000  H
  H61      1.0000 0.92780  0.39810  0.41400  Biso   1.000  H
  H62      1.0000 0.96790  0.39300  0.40160  Biso   1.000  H
  C79      1.0000 0.93670  0.45380  0.43550  Biso   1.000  C
  H63      1.0000 0.94770  0.44770  0.45260  Biso   1.000  H
  H64      1.0000 0.93710  0.47660  0.43390  Biso   1.000  H
  H65      1.0000 0.91080  0.44640  0.43420  Biso   1.000  H
  C80      1.0000 0.94340  0.44790  0.38670  Biso   1.000  C
  H66      1.0000 0.95840  0.43820  0.37300  Biso   1.000  H
  H67      1.0000 0.91760  0.44040  0.38500  Biso   1.000  H
  H68      1.0000 0.94390  0.47070  0.38470  Biso   1.000  H
  C81      1.0000 0.14640  0.60984  0.26006  Biso   1.000  C
  O23      1.0000 0.11526  0.61289  0.24811  Biso   1.000  O
  O24      1.0000 0.17775  0.61917  0.25214  Biso   1.000  O
  O25      1.0000 0.17480  0.42620  0.50320  Biso   1.000  O
  C82      1.0000 0.15200  0.37770  0.57560  Biso   1.000  C
  H69      1.0000 0.16120  0.35710  0.57810  Biso   1.000  H
  C83      1.0000 0.15350  0.39160  0.55100  Biso   1.000  C
  H70      1.0000 0.16380  0.38010  0.53690  Biso   1.000  H
  C84      1.0000 0.12410  0.43700  0.56740  Biso   1.000  C
  H71      1.0000 0.11360  0.45710  0.56460  Biso   1.000  H
  C85      1.0000 0.12270  0.42390  0.59230  Biso   1.000  C
  H72      1.0000 0.11210  0.43520  0.60630  Biso   1.000  H
  N11      1.0000 0.18210  0.44170  0.48070  Biso   1.000  N
  C86      1.0000 0.21130  0.43050  0.47080  Biso   1.000  C
  H73      1.0000 0.22420  0.41440  0.48030  Biso   1.000  H
  C87      1.0000 0.22630  0.44050  0.44600  Biso   1.000  C
  C88      1.0000 0.20920  0.46350  0.42900  Biso   1.000  C
  C89      1.0000 0.22630  0.46920  0.40430  Biso   1.000  C
  C90      1.0000 0.25900  0.45320  0.39770  Biso   1.000  C
  H74      1.0000 0.26950  0.45690  0.38100  Biso   1.000  H
  C91      1.0000 0.27600  0.43230  0.41480  Biso   1.000  C
  C92      1.0000 0.25940  0.42620  0.43840  Biso   1.000  C
  H75      1.0000 0.27100  0.41160  0.45010  Biso   1.000  H
  C93      1.0000 0.21200  0.49100  0.38480  Biso   1.000  C
  H76      1.0000 0.22570  0.49300  0.36910  Biso   1.000  H
  N12      1.0000 0.18300  0.50770  0.38660  Biso   1.000  N
  O26      1.0000 0.17810  0.52440  0.36390  Biso   1.000  O
  O27      1.0000 0.18070  0.47830  0.43590  Biso   1.000  O
  C94      1.0000 0.31280  0.41660  0.40770  Biso   1.000  C
  C95      1.0000 0.30360  0.38170  0.40770  Biso   1.000  C
  H77      1.0000 0.29660  0.37520  0.42540  Biso   1.000  H
  H78      1.0000 0.28280  0.37760  0.39520  Biso   1.000  H
  H79      1.0000 0.32550  0.36980  0.40240  Biso   1.000  H
  C96      1.0000 0.34350  0.42440  0.42790  Biso   1.000  C
  H80      1.0000 0.33590  0.41750  0.44540  Biso   1.000  H
  H81      1.0000 0.36650  0.41350  0.42330  Biso   1.000  H
  H82      1.0000 0.34780  0.44700  0.42810  Biso   1.000  H
  C97      1.0000 0.32380  0.42690  0.38040  Biso   1.000  C
  H83      1.0000 0.30370  0.42170  0.36770  Biso   1.000  H
  H84      1.0000 0.32800  0.44950  0.38040  Biso   1.000  H
  H85      1.0000 0.34670  0.41610  0.37560  Biso   1.000  H
  C98      1.0000 0.77570  0.27126  0.19831  Biso   1.000  C
  C99      1.0000 0.78090  0.24677  0.21620  Biso   1.000  C
  H86      1.0000 0.80010  0.24870  0.22930  Biso   1.000  H
  C100     1.0000 0.75950  0.22006  0.21580  Biso   1.000  C
  H87      1.0000 0.76370  0.20420  0.22870  Biso   1.000  H
  C101     1.0000 0.73160  0.21636  0.19642  Biso   1.000  C
  C102     1.0000 0.72480  0.24060  0.17872  Biso   1.000  C
  H88      1.0000 0.70530  0.23890  0.16570  Biso   1.000  H
  C103     1.0000 0.74650  0.26718  0.18018  Biso   1.000  C
  H89      1.0000 0.74110  0.28360  0.16810  Biso   1.000  H
  B5       1.0000 0.80300  0.30100  0.19790  Biso   1.000  B
  O28      1.0000 0.77920  0.32932  0.19656  Biso   1.000  O
  N13      1.0000 0.79840  0.35825  0.19460  Biso   1.000  N
  C104     1.0000 0.77610  0.38130  0.19490  Biso   1.000  C
  H90      1.0000 0.75030  0.37680  0.19680  Biso   1.000  H
  C105     1.0000 0.78660  0.41376  0.19279  Biso   1.000  C
  C106     1.0000 0.82390  0.42374  0.18964  Biso   1.000  C
  C107     1.0000 0.82978  0.45658  0.18668  Biso   1.000  C
  C108     1.0000 0.79925  0.47757  0.18702  Biso   1.000  C
  H91      1.0000 0.80380  0.49930  0.18500  Biso   1.000  H
  C109     1.0000 0.76308  0.46731  0.19016  Biso   1.000  C
  C110     1.0000 0.75740  0.43531  0.19270  Biso   1.000  C
  H92      1.0000 0.73270  0.42780  0.19440  Biso   1.000  H
  C111     1.0000 0.86685  0.47029  0.18506  Biso   1.000  C
  H93      1.0000 0.86780  0.49220  0.18220  Biso   1.000  H
  N14      1.0000 0.89797  0.45645  0.18698  Biso   1.000  N
  O29      1.0000 0.92785  0.47662  0.18552  Biso   1.000  O
  B6       1.0000 0.96570  0.46300  0.18900  Biso   1.000  B
  O30      1.0000 0.82360  0.29622  0.17433  Biso   1.000  O
  N15      1.0000 0.85140  0.31800  0.16957  Biso   1.000  N
  C112     1.0000 0.86750  0.31210  0.14820  Biso   1.000  C
  H94      1.0000 0.85940  0.29390  0.13900  Biso   1.000  H
  C113     1.0000 0.89670  0.33020  0.13654  Biso   1.000  C
  C114     1.0000 0.91190  0.35760  0.14841  Biso   1.000  C
  C115     1.0000 0.93870  0.37436  0.13328  Biso   1.000  C
  C116     1.0000 0.94930  0.36350  0.10865  Biso   1.000  C
  H95      1.0000 0.96740  0.37500  0.09930  Biso   1.000  H
  C117     1.0000 0.93450  0.33660  0.09725  Biso   1.000  C
  C118     1.0000 0.90870  0.32070  0.11190  Biso   1.000  C
  H96      1.0000 0.89840  0.30200  0.10470  Biso   1.000  H
  C119     1.0000 0.95590  0.40291  0.14246  Biso   1.000  C
  H97      1.0000 0.97290  0.41240  0.13090  Biso   1.000  H
  N16      1.0000 0.95120  0.41681  0.16396  Biso   1.000  N
  O31      1.0000 0.97453  0.44172  0.16732  Biso   1.000  O
  O32      1.0000 0.82470  0.30011  0.22242  Biso   1.000  O
  N17      1.0000 0.85030  0.32440  0.22597  Biso   1.000  N
  C120     1.0000 0.86510  0.32360  0.24880  Biso   1.000  C
  H98      1.0000 0.85650  0.30750  0.26000  Biso   1.000  H
  C121     1.0000 0.89320  0.34410  0.26007  Biso   1.000  C
  C122     1.0000 0.90800  0.36960  0.24513  Biso   1.000  C
  C123     1.0000 0.93460  0.38910  0.25843  Biso   1.000  C
  C124     1.0000 0.94540  0.38280  0.28459  Biso   1.000  C
  C125     1.0000 0.90560  0.33940  0.28597  Biso   1.000  C
  C126     1.0000 0.95210  0.41610  0.24598  Biso   1.000  C
  H99      1.0000 0.96740  0.42910  0.25690  Biso   1.000  H
  N18      1.0000 0.94860  0.42343  0.22179  Biso   1.000  N
  O33      1.0000 0.97180  0.44841  0.21524  Biso   1.000  O
  C127     1.0000 0.99466  0.49142  0.18908  Biso   1.000  C
  C128     1.0000 0.98850  0.51961  0.20200  Biso   1.000  C
  H100     1.0000 0.96540  0.52270  0.21040  Biso   1.000  H
  C129     1.0000 0.01489  0.54322  0.20287  Biso   1.000  C
  H101     1.0000 0.00980  0.56220  0.21180  Biso   1.000  H
  C130     1.0000 0.04888  0.53924  0.19076  Biso   1.000  C
  C131     1.0000 0.05550  0.51200  0.17729  Biso   1.000  C
  H102     1.0000 0.07830  0.50930  0.16840  Biso   1.000  H
  C132     1.0000 0.02885  0.48849  0.17665  Biso   1.000  C
  H103     1.0000 0.03400  0.46970  0.16740  Biso   1.000  H
  C133     1.0000 0.71020  0.18650  0.19350  Biso   1.000  C
  O34      1.0000 0.71588  0.16651  0.21125  Biso   1.000  O
  O35      1.0000 0.68756  0.18449  0.17429  Biso   1.000  O
  O36      1.0000 0.85116  0.40421  0.18890  Biso   1.000  O
  C134     1.0000 0.73020  0.48983  0.19190  Biso   1.000  C
  O37      1.0000 0.90060  0.36785  0.17004  Biso   1.000  O
  C135     1.0000 0.94730  0.32490  0.07040  Biso   1.000  C
  O38      1.0000 0.89800  0.37411  0.22078  Biso   1.000  O
  C136     1.0000 0.07818  0.56436  0.19207  Biso   1.000  C
  O39      1.0000 0.06901  0.59035  0.20123  Biso   1.000  O
  O40      1.0000 0.10982  0.55750  0.18503  Biso   1.000  O
  C137     1.0000 0.93430  0.35630  0.29810  Biso   1.000  C
  C138     1.0000 0.72180  0.51000  0.16840  Biso   1.000  C
  H104     1.0000 0.74500  0.51880  0.16200  Biso   1.000  H
  H105     1.0000 0.70970  0.49740  0.15450  Biso   1.000  H
  H106     1.0000 0.70500  0.52700  0.17340  Biso   1.000  H
  C139     1.0000 0.74140  0.51270  0.21540  Biso   1.000  C
  H107     1.0000 0.74720  0.50040  0.23120  Biso   1.000  H
  H108     1.0000 0.76330  0.52490  0.21070  Biso   1.000  H
  H109     1.0000 0.72060  0.52680  0.21870  Biso   1.000  H
  C140     1.0000 0.69440  0.47620  0.20200  Biso   1.000  C
  H110     1.0000 0.70010  0.46300  0.21730  Biso   1.000  H
  H111     1.0000 0.67770  0.49310  0.20700  Biso   1.000  H
  H112     1.0000 0.68240  0.46350  0.18810  Biso   1.000  H
  C141     1.0000 0.92600  0.29660  0.05950  Biso   1.000  C
  H113     1.0000 0.92630  0.27990  0.07260  Biso   1.000  H
  H114     1.0000 0.90010  0.30260  0.05530  Biso   1.000  H
  H115     1.0000 0.93790  0.28930  0.04350  Biso   1.000  H
  C142     1.0000 0.98710  0.31260  0.07720  Biso   1.000  C
  H116     1.0000 0.00240  0.32970  0.08440  Biso   1.000  H
  H117     1.0000 0.98570  0.29580  0.09020  Biso   1.000  H
  H118     1.0000 0.99840  0.30450  0.06120  Biso   1.000  H
  C143     1.0000 0.94830  0.35240  0.05130  Biso   1.000  C
  H119     1.0000 0.96230  0.36970  0.05940  Biso   1.000  H
  H120     1.0000 0.96060  0.34580  0.03510  Biso   1.000  H
  H121     1.0000 0.92280  0.35920  0.04690  Biso   1.000  H
  C144     1.0000 0.95610  0.34370  0.32230  Biso   1.000  C
  C145     1.0000 0.94080  0.31300  0.33220  Biso   1.000  C
  H122     1.0000 0.94310  0.29700  0.31850  Biso   1.000  H
  H123     1.0000 0.95500  0.30650  0.34810  Biso   1.000  H
  H124     1.0000 0.91450  0.31560  0.33640  Biso   1.000  H
  C146     1.0000 0.95270  0.36880  0.34340  Biso   1.000  C
  H125     1.0000 0.96260  0.38860  0.33690  Biso   1.000  H
  H126     1.0000 0.92630  0.37150  0.34760  Biso   1.000  H
  H127     1.0000 0.96680  0.36240  0.35930  Biso   1.000  H
  C147     1.0000 0.99740  0.33770  0.31760  Biso   1.000  C
  H128     1.0000 0.00900  0.35690  0.31110  Biso   1.000  H
  H129     1.0000 0.00990  0.33130  0.33410  Biso   1.000  H
  H130     1.0000 0.99990  0.32110  0.30450  Biso   1.000  H
  C148     1.0000 0.09220  0.63630  0.52850  Biso   1.000  C
  H131     1.0000 0.09560  0.61830  0.54020  Biso   1.000  H
  H132     1.0000 0.09250  0.65560  0.53880  Biso   1.000  H
  H133     1.0000 0.06830  0.63440  0.51880  Biso   1.000  H
  C149     1.0000 0.11840  0.66520  0.49060  Biso   1.000  C
  H134     1.0000 0.13860  0.66590  0.47800  Biso   1.000  H
  H135     1.0000 0.09440  0.66330  0.48110  Biso   1.000  H
  H136     1.0000 0.11860  0.68440  0.50110  Biso   1.000  H
  C150     1.0000 0.16130  0.64400  0.52390  Biso   1.000  C
  H137     1.0000 0.16700  0.62690  0.53620  Biso   1.000  H
  H138     1.0000 0.18140  0.64590  0.51130  Biso   1.000  H
  H139     1.0000 0.15910  0.66360  0.53370  Biso   1.000  H
  C151     1.0000 0.26790  0.48950  0.19180  Biso   1.000  C
  H140     1.0000 0.26030  0.46960  0.18540  Biso   1.000  H
  C152     1.0000 0.24170  0.51330  0.19290  Biso   1.000  C
  H141     1.0000 0.21660  0.50940  0.18750  Biso   1.000  H
  C153     1.0000 0.28780  0.54720  0.21200  Biso   1.000  C
  H142     1.0000 0.29490  0.56660  0.21960  Biso   1.000  H
  C154     1.0000 0.31340  0.52300  0.21110  Biso   1.000  C
  H143     1.0000 0.33780  0.52630  0.21850  Biso   1.000  H
  C155     1.0000 0.38810  0.32040  0.34380  Biso   1.000  C
  H144     1.0000 0.41440  0.32650  0.34310  Biso   1.000  H
  H145     1.0000 0.38110  0.31810  0.36220  Biso   1.000  H
  H146     1.0000 0.38440  0.30040  0.33470  Biso   1.000  H
  C156     1.0000 0.32270  0.33770  0.33090  Biso   1.000  C
  H147     1.0000 0.30890  0.35470  0.32210  Biso   1.000  H
  H148     1.0000 0.31790  0.31800  0.32150  Biso   1.000  H
  H149     1.0000 0.31460  0.33580  0.34900  Biso   1.000  H
  C157     1.0000 0.37230  0.37440  0.34820  Biso   1.000  C
  H150     1.0000 0.35780  0.39210  0.34120  Biso   1.000  H
  H151     1.0000 0.36520  0.37020  0.36630  Biso   1.000  H
  H152     1.0000 0.39890  0.37940  0.34790  Biso   1.000  H
  O41      1.0000 0.18250  0.43680  0.50920  Biso   1.000  O
  C158     1.0000 0.11040  0.42630  0.56250  Biso   1.000  C
  H153     1.0000 0.09030  0.43910  0.55640  Biso   1.000  H
  C159     1.0000 0.10860  0.41300  0.58720  Biso   1.000  C
  H154     1.0000 0.08780  0.41700  0.59790  Biso   1.000  H
  C160     1.0000 0.16620  0.38640  0.57970  Biso   1.000  C
  H155     1.0000 0.18480  0.37170  0.58510  Biso   1.000  H
  C161     1.0000 0.16770  0.40060  0.55530  Biso   1.000  C
  H156     1.0000 0.18800  0.39590  0.54430  Biso   1.000  H
  N19      1.0000 0.19030  0.45140  0.48480  Biso   1.000  N
  C162     1.0000 0.22420  0.44700  0.47920  Biso   1.000  C
  H157     1.0000 0.23940  0.43560  0.49150  Biso   1.000  H
  C163     1.0000 0.24170  0.45810  0.45540  Biso   1.000  C
  C164     1.0000 0.22200  0.47640  0.43570  Biso   1.000  C
  C165     1.0000 0.24320  0.48830  0.41430  Biso   1.000  C
  C166     1.0000 0.28140  0.48130  0.41300  Biso   1.000  C
  H158     1.0000 0.29520  0.48990  0.39900  Biso   1.000  H
  C167     1.0000 0.29970  0.46200  0.43150  Biso   1.000  C
  C168     1.0000 0.27950  0.45140  0.45250  Biso   1.000  C
  H159     1.0000 0.29200  0.43910  0.46560  Biso   1.000  H
  C169     1.0000 0.22640  0.50610  0.39300  Biso   1.000  C
  H160     1.0000 0.24280  0.51370  0.38000  Biso   1.000  H
  N20      1.0000 0.19210  0.51280  0.38980  Biso   1.000  N
  O42      1.0000 0.18360  0.53100  0.36790  Biso   1.000  O
  O43      1.0000 0.18660  0.48110  0.43660  Biso   1.000  O
  C170     1.0000 0.34070  0.45350  0.42730  Biso   1.000  C
  C171     1.0000 0.35850  0.43690  0.45040  Biso   1.000  C
  H161     1.0000 0.35530  0.44940  0.46640  Biso   1.000  H
  H162     1.0000 0.34670  0.41640  0.45260  Biso   1.000  H
  H163     1.0000 0.38520  0.43410  0.44740  Biso   1.000  H
  C172     1.0000 0.36280  0.48400  0.42400  Biso   1.000  C
  H164     1.0000 0.35220  0.49580  0.40900  Biso   1.000  H
  H165     1.0000 0.36120  0.49670  0.44000  Biso   1.000  H
  H166     1.0000 0.38900  0.47910  0.42070  Biso   1.000  H
  C173     1.0000 0.34390  0.43620  0.40110  Biso   1.000  C
  H167     1.0000 0.33170  0.44850  0.38710  Biso   1.000  H
  H168     1.0000 0.37040  0.43340  0.39720  Biso   1.000  H
  H169     1.0000 0.33180  0.41570  0.40230  Biso   1.000  H
  C174     1.0000 0.08440  0.64970  0.50090  Biso   1.000  C
  H170     1.0000 0.08260  0.65210  0.48170  Biso   1.000  H
  H171     1.0000 0.06540  0.63490  0.50660  Biso   1.000  H
  H172     1.0000 0.08050  0.67000  0.50930  Biso   1.000  H
  C175     1.0000 0.15180  0.66180  0.50100  Biso   1.000  C
  H173     1.0000 0.15140  0.66380  0.48170  Biso   1.000  H
  H174     1.0000 0.14510  0.68190  0.50880  Biso   1.000  H
  H175     1.0000 0.17690  0.65570  0.50720  Biso   1.000  H
  C176     1.0000 0.12460  0.63400  0.53860  Biso   1.000  C
  H176     1.0000 0.10660  0.61800  0.54370  Biso   1.000  H
  H177     1.0000 0.14970  0.62800  0.54480  Biso   1.000  H
  H178     1.0000 0.11790  0.65410  0.54640  Biso   1.000  H
  C177     1.0000 0.70000  0.47980  0.17090  Biso   1.000  C
  H179     1.0000 0.69210  0.45830  0.17430  Biso   1.000  H
  H180     1.0000 0.67840  0.49380  0.17180  Biso   1.000  H
  H181     1.0000 0.71040  0.48110  0.15330  Biso   1.000  H
  C178     1.0000 0.74020  0.52290  0.18480  Biso   1.000  C
  H182     1.0000 0.75230  0.52310  0.16770  Biso   1.000  H
  H183     1.0000 0.71740  0.53570  0.18360  Biso   1.000  H
  H184     1.0000 0.75720  0.53160  0.19830  Biso   1.000  H
  C179     1.0000 0.71120  0.48830  0.21830  Biso   1.000  C
  H185     1.0000 0.70510  0.46650  0.22230  Biso   1.000  H
  H186     1.0000 0.72800  0.49670  0.23210  Biso   1.000  H
  H187     1.0000 0.68820  0.50080  0.21740  Biso   1.000  H
  C180     1.0000 0.95580  0.28990  0.07170  Biso   1.000  C
  H188     1.0000 0.93430  0.27870  0.07870  Biso   1.000  H
  H189     1.0000 0.96090  0.28210  0.05400  Biso   1.000  H
  H190     1.0000 0.97770  0.28630  0.08330  Biso   1.000  H
  C181     1.0000 0.98010  0.34330  0.05970  Biso   1.000  C
  H191     1.0000 0.97380  0.36560  0.05910  Biso   1.000  H
  H192     1.0000 0.00220  0.34020  0.07120  Biso   1.000  H
  H193     1.0000 0.98530  0.33600  0.04190  Biso   1.000  H
  C182     1.0000 0.91570  0.33000  0.04950  Biso   1.000  C
  H194     1.0000 0.90970  0.35230  0.04830  Biso   1.000  H
  H195     1.0000 0.92390  0.32250  0.03230  Biso   1.000  H
  H196     1.0000 0.89340  0.31830  0.05450  Biso   1.000  H
  C183     1.0000 0.92850  0.36010  0.29960  Biso   1.000  C
  C184     1.0000 0.92860  0.36230  0.32970  Biso   1.000  C
  C185     1.0000 0.91700  0.33170  0.34200  Biso   1.000  C
  H197     1.0000 0.89220  0.32570  0.33510  Biso   1.000  H
  H198     1.0000 0.93510  0.31540  0.33770  Biso   1.000  H
  H199     1.0000 0.91620  0.33410  0.36120  Biso   1.000  H
  C186     1.0000 0.96690  0.37400  0.33900  Biso   1.000  C
  H200     1.0000 0.97240  0.39380  0.33030  Biso   1.000  H
  H201     1.0000 0.96700  0.37720  0.35810  Biso   1.000  H
  H202     1.0000 0.98590  0.35850  0.33470  Biso   1.000  H
  C187     1.0000 0.89990  0.38580  0.34010  Biso   1.000  C
  H203     1.0000 0.90510  0.40660  0.33310  Biso   1.000  H
  H204     1.0000 0.87470  0.37930  0.33440  Biso   1.000  H
  H205     1.0000 0.90160  0.38630  0.35940  Biso   1.000  H
  Zn11     1.0000 0.88589  0.90853  0.19797  Biso   1.000  Zn
  Zn12     1.0000 0.93392  0.85294  0.19631  Biso   1.000  Zn
  Zn13     1.0000 0.35748  0.85585  0.19508  Biso   1.000  Zn
  Zn14     1.0000 0.41014  0.90824  0.19212  Biso   1.000  Zn
  Zn15     1.0000 0.64387  0.97468  0.46581  Biso   1.000  Zn
  Zn16     1.0000 0.64425  0.00890  0.41570  Biso   1.000  Zn
  Zn17     1.0000 0.60391  0.12328  0.21151  Biso   1.000  Zn
  Zn18     1.0000 0.65309  0.08240  0.17263  Biso   1.000  Zn
  Zn19     1.0000 0.69219  0.12564  0.21532  Biso   1.000  Zn
  Zn20     1.0000 0.64734  0.15473  0.16586  Biso   1.000  Zn
  O44      1.0000 0.64930  0.12221  0.19211  Biso   1.000  O
  C188     1.0000 0.01160  0.76552  0.19444  Biso   1.000  C
  C189     1.0000 0.01000  0.74141  0.21315  Biso   1.000  C
  H206     1.0000 0.99310  0.74340  0.22710  Biso   1.000  H
  C190     1.0000 0.03210  0.71493  0.21208  Biso   1.000  C
  H207     1.0000 0.03070  0.69950  0.22550  Biso   1.000  H
  C191     1.0000 0.05640  0.71080  0.19163  Biso   1.000  C
  C192     1.0000 0.05920  0.73448  0.17305  Biso   1.000  C
  H208     1.0000 0.07590  0.73220  0.15900  Biso   1.000  H
  C193     1.0000 0.03780  0.76133  0.17476  Biso   1.000  C
  H209     1.0000 0.04100  0.77750  0.16220  Biso   1.000  H
  B7       1.0000 0.98520  0.79580  0.19530  Biso   1.000  B
  O45      1.0000 0.95397  0.78962  0.17588  Biso   1.000  O
  N21      1.0000 0.92810  0.81302  0.17229  Biso   1.000  N
  C194     1.0000 0.90470  0.80730  0.15390  Biso   1.000  C
  H210     1.0000 0.90720  0.78770  0.14530  Biso   1.000  H
  C195     1.0000 0.87460  0.82720  0.14430  Biso   1.000  C
  C196     1.0000 0.86600  0.85630  0.15650  Biso   1.000  C
  C197     1.0000 0.83460  0.87320  0.14510  Biso   1.000  C
  C198     1.0000 0.81540  0.86260  0.12250  Biso   1.000  C
  H211     1.0000 0.79570  0.87490  0.11510  Biso   1.000  H
  C199     1.0000 0.82460  0.83460  0.11060  Biso   1.000  C
  C200     1.0000 0.85410  0.81750  0.12190  Biso   1.000  C
  H212     1.0000 0.86060  0.79820  0.11390  Biso   1.000  H
  C201     1.0000 0.82250  0.90210  0.15630  Biso   1.000  C
  H213     1.0000 0.79980  0.91060  0.14940  Biso   1.000  H
  N22      1.0000 0.83890  0.91760  0.17440  Biso   1.000  N
  O46      1.0000 0.81930  0.94437  0.17939  Biso   1.000  O
  B8       1.0000 0.83460  0.96620  0.19900  Biso   1.000  B
  O47      1.0000 0.00798  0.82215  0.18672  Biso   1.000  O
  N23      1.0000 0.99050  0.85155  0.18704  Biso   1.000  N
  C202     1.0000 0.01330  0.87312  0.18160  Biso   1.000  C
  H214     1.0000 0.03810  0.86680  0.17810  Biso   1.000  H
  C203     1.0000 0.00570  0.90669  0.18020  Biso   1.000  C
  C204     1.0000 0.96950  0.91916  0.18380  Biso   1.000  C
  C205     1.0000 0.96580  0.95201  0.18230  Biso   1.000  C
  C206     1.0000 0.99770  0.97100  0.17900  Biso   1.000  C
  H215     1.0000 0.99470  0.99300  0.17900  Biso   1.000  H
  C207     1.0000 0.03320  0.95875  0.17570  Biso   1.000  C
  C208     1.0000 0.03560  0.92636  0.17530  Biso   1.000  C
  H216     1.0000 0.05890  0.91710  0.17140  Biso   1.000  H
  C209     1.0000 0.93110  0.96880  0.18590  Biso   1.000  C
  H217     1.0000 0.93140  0.99090  0.18390  Biso   1.000  H
  N24      1.0000 0.90040  0.95597  0.19160  Biso   1.000  N
  O48      1.0000 0.87154  0.97845  0.19392  Biso   1.000  O
  O49      1.0000 0.97249  0.79850  0.22213  Biso   1.000  O
  N25      1.0000 0.94820  0.82243  0.22748  Biso   1.000  N
  C210     1.0000 0.93840  0.82137  0.25124  Biso   1.000  C
  H218     1.0000 0.94930  0.80540  0.26200  Biso   1.000  H
  C211     1.0000 0.91190  0.84232  0.26364  Biso   1.000  C
  C212     1.0000 0.89640  0.86876  0.25007  Biso   1.000  C
  C213     1.0000 0.87060  0.88767  0.26430  Biso   1.000  C
  C214     1.0000 0.86100  0.87900  0.28976  Biso   1.000  C
  H219     1.0000 0.84320  0.89140  0.29850  Biso   1.000  H
  C215     1.0000 0.87590  0.85340  0.30294  Biso   1.000  C
  C216     1.0000 0.90180  0.83540  0.28961  Biso   1.000  C
  H220     1.0000 0.91300  0.81790  0.29830  Biso   1.000  H
  C217     1.0000 0.85310  0.91530  0.25307  Biso   1.000  C
  H221     1.0000 0.83790  0.92720  0.26440  Biso   1.000  H
  N26      1.0000 0.85600  0.92540  0.22976  Biso   1.000  N
  O50      1.0000 0.83420  0.95220  0.22571  Biso   1.000  O
  C218     1.0000 0.80510  0.99403  0.19999  Biso   1.000  C
  C219     1.0000 0.75200  0.04311  0.20178  Biso   1.000  C
  C220     1.0000 0.08020  0.68190  0.19002  Biso   1.000  C
  O51      1.0000 0.07731  0.66238  0.20815  Biso   1.000  O
  O52      1.0000 0.10243  0.68103  0.17120  Biso   1.000  O
  O53      1.0000 0.88340  0.86583  0.17686  Biso   1.000  O
  C221     1.0000 0.80370  0.82260  0.08590  Biso   1.000  C
  O54      1.0000 0.94134  0.90084  0.18847  Biso   1.000  O
  C222     1.0000 0.06800  0.97950  0.17340  Biso   1.000  C
  C223     1.0000 0.09420  0.97640  0.19870  Biso   1.000  C
  H222     1.0000 0.08130  0.98460  0.21400  Biso   1.000  H
  H223     1.0000 0.10060  0.95440  0.20160  Biso   1.000  H
  H224     1.0000 0.11710  0.98850  0.19620  Biso   1.000  H
  C224     1.0000 0.09400  0.96590  0.15420  Biso   1.000  C
  H225     1.0000 0.09690  0.94350  0.15770  Biso   1.000  H
  H226     1.0000 0.08390  0.96900  0.13630  Biso   1.000  H
  H227     1.0000 0.11830  0.97620  0.15610  Biso   1.000  H
  C225     1.0000 0.05810  0.01360  0.17290  Biso   1.000  C
  H228     1.0000 0.04070  0.01810  0.18700  Biso   1.000  H
  H229     1.0000 0.08080  0.02610  0.17560  Biso   1.000  H
  H230     1.0000 0.04640  0.01890  0.15580  Biso   1.000  H
  O55      1.0000 0.90533  0.87603  0.22612  Biso   1.000  O
  C226     1.0000 0.86420  0.84490  0.33082  Biso   1.000  C
  C227     1.0000 0.72370  0.06839  0.20370  Biso   1.000  C
  O56      1.0000 0.69085  0.06142  0.19611  Biso   1.000  O
  O57      1.0000 0.73229  0.09485  0.21289  Biso   1.000  O
  C228     1.0000 0.77590  0.99660  0.18090  Biso   1.000  C
  H231     1.0000 0.77410  0.98180  0.16710  Biso   1.000  H
  C229     1.0000 0.74970  0.02040  0.18200  Biso   1.000  C
  H232     1.0000 0.73000  0.02130  0.16920  Biso   1.000  H
  C230     1.0000 0.78140  0.04180  0.22010  Biso   1.000  C
  H233     1.0000 0.78400  0.05740  0.23330  Biso   1.000  H
  C231     1.0000 0.80680  0.01750  0.21890  Biso   1.000  C
  H234     1.0000 0.82660  0.01690  0.23170  Biso   1.000  H
  C232     1.0000 0.89430  0.84910  0.35160  Biso   1.000  C
  H235     1.0000 0.91770  0.84000  0.34540  Biso   1.000  H
  H236     1.0000 0.89790  0.87140  0.35510  Biso   1.000  H
  H237     1.0000 0.88700  0.83850  0.36780  Biso   1.000  H
  C233     1.0000 0.85670  0.80870  0.33150  Biso   1.000  C
  H238     1.0000 0.83710  0.80340  0.31850  Biso   1.000  H
  H239     1.0000 0.87970  0.79740  0.32750  Biso   1.000  H
  H240     1.0000 0.84870  0.80270  0.34910  Biso   1.000  H
  C234     1.0000 0.82680  0.85820  0.33850  Biso   1.000  C
  H241     1.0000 0.80850  0.85470  0.32410  Biso   1.000  H
  H242     1.0000 0.81850  0.84780  0.35440  Biso   1.000  H
  H243     1.0000 0.82940  0.88070  0.34180  Biso   1.000  H
  C235     1.0000 0.82890  0.82500  0.06200  Biso   1.000  C
  H244     1.0000 0.85230  0.81380  0.06570  Biso   1.000  H
  H245     1.0000 0.81610  0.81560  0.04660  Biso   1.000  H
  H246     1.0000 0.83420  0.84700  0.05830  Biso   1.000  H
  C236     1.0000 0.76720  0.83980  0.08030  Biso   1.000  C
  H247     1.0000 0.75510  0.83130  0.06430  Biso   1.000  H
  H248     1.0000 0.75070  0.83720  0.09520  Biso   1.000  H
  H249     1.0000 0.77230  0.86210  0.07770  Biso   1.000  H
  C237     1.0000 0.79600  0.78740  0.08930  Biso   1.000  C
  H250     1.0000 0.81960  0.77640  0.09290  Biso   1.000  H
  H251     1.0000 0.77930  0.78430  0.10400  Biso   1.000  H
  H252     1.0000 0.78420  0.77920  0.07310  Biso   1.000  H
  C238     1.0000 0.64040  0.92170  0.54612  Biso   1.000  C
  C239     1.0000 0.63730  0.89370  0.59645  Biso   1.000  C
  B9       1.0000 0.64360  0.93890  0.51853  Biso   1.000  B
  O58      1.0000 0.64180  0.97199  0.52490  Biso   1.000  O
  N27      1.0000 0.63950  0.99340  0.50412  Biso   1.000  N
  C240     1.0000 0.63800  0.02130  0.51192  Biso   1.000  C
  H253     1.0000 0.63820  0.02460  0.53040  Biso   1.000  H
  C241     1.0000 0.63600  0.04887  0.49532  Biso   1.000  C
  C242     1.0000 0.63700  0.04770  0.46725  Biso   1.000  C
  C243     1.0000 0.63400  0.07670  0.45350  Biso   1.000  C
  C244     1.0000 0.62920  0.10420  0.46792  Biso   1.000  C
  H254     1.0000 0.62600  0.12320  0.45840  Biso   1.000  H
  C245     1.0000 0.62890  0.10560  0.49478  Biso   1.000  C
  C246     1.0000 0.63180  0.07780  0.50830  Biso   1.000  C
  H255     1.0000 0.63090  0.07800  0.52700  Biso   1.000  H
  C247     1.0000 0.63590  0.07940  0.42539  Biso   1.000  C
  H256     1.0000 0.63390  0.10000  0.41840  Biso   1.000  H
  N28      1.0000 0.63980  0.05772  0.40880  Biso   1.000  N
  O59      1.0000 0.64070  0.06835  0.38337  Biso   1.000  O
  B10      1.0000 0.64570  0.04460  0.36304  Biso   1.000  B
  O60      1.0000 0.61120  0.92846  0.50317  Biso   1.000  O
  N29      1.0000 0.60520  0.94160  0.47851  Biso   1.000  N
  C248     1.0000 0.57270  0.93550  0.46934  Biso   1.000  C
  H257     1.0000 0.55710  0.92280  0.47980  Biso   1.000  H
  C249     1.0000 0.55770  0.94620  0.44447  Biso   1.000  C
  C250     1.0000 0.57800  0.96430  0.42574  Biso   1.000  C
  C251     1.0000 0.55810  0.97320  0.40216  Biso   1.000  C
  C252     1.0000 0.52030  0.96550  0.39872  Biso   1.000  C
  H258     1.0000 0.50750  0.97220  0.38310  Biso   1.000  H
  C253     1.0000 0.50050  0.94840  0.41702  Biso   1.000  C
  C254     1.0000 0.51990  0.93900  0.43926  Biso   1.000  C
  H259     1.0000 0.50700  0.92690  0.45180  Biso   1.000  H
  C255     1.0000 0.57480  0.99200  0.38172  Biso   1.000  C
  H260     1.0000 0.56100  0.99440  0.36560  Biso   1.000  H
  N30      1.0000 0.60630  0.00542  0.38373  Biso   1.000  N
  O61      1.0000 0.61470  0.02119  0.36128  Biso   1.000  O
  C256     1.0000 0.64580  0.06220  0.33514  Biso   1.000  C
  C257     1.0000 0.61370  0.06410  0.31886  Biso   1.000  C
  H261     1.0000 0.59150  0.05410  0.32420  Biso   1.000  H
  C258     1.0000 0.61360  0.08030  0.29512  Biso   1.000  C
  H262     1.0000 0.59120  0.08210  0.28480  Biso   1.000  H
  C259     1.0000 0.64620  0.09388  0.28644  Biso   1.000  C
  C260     1.0000 0.67860  0.09160  0.30171  Biso   1.000  C
  H263     1.0000 0.70100  0.10090  0.29600  Biso   1.000  H
  C261     1.0000 0.67810  0.07570  0.32556  Biso   1.000  C
  H264     1.0000 0.70070  0.07390  0.33570  Biso   1.000  H
  C262     1.0000 0.63650  0.88080  0.62373  Biso   1.000  C
  O62      1.0000 0.64858  0.85353  0.62776  Biso   1.000  O
  O63      1.0000 0.62000  0.89560  0.64072  Biso   1.000  O
  O64      1.0000 0.63790  0.02162  0.45522  Biso   1.000  O
  C263     1.0000 0.62400  0.13700  0.50890  Biso   1.000  C
  O65      1.0000 0.61220  0.97147  0.42989  Biso   1.000  O
  C264     1.0000 0.45930  0.93920  0.41330  Biso   1.000  C
  C265     1.0000 0.45430  0.90340  0.41570  Biso   1.000  C
  H265     1.0000 0.46430  0.89630  0.43280  Biso   1.000  H
  H266     1.0000 0.42780  0.89810  0.41400  Biso   1.000  H
  H267     1.0000 0.46790  0.89300  0.40160  Biso   1.000  H
  C266     1.0000 0.43670  0.95380  0.43550  Biso   1.000  C
  H268     1.0000 0.44770  0.94770  0.45260  Biso   1.000  H
  H269     1.0000 0.43710  0.97660  0.43390  Biso   1.000  H
  H270     1.0000 0.41080  0.94640  0.43420  Biso   1.000  H
  C267     1.0000 0.44340  0.94790  0.38670  Biso   1.000  C
  H271     1.0000 0.45840  0.93820  0.37300  Biso   1.000  H
  H272     1.0000 0.41760  0.94040  0.38500  Biso   1.000  H
  H273     1.0000 0.44390  0.97070  0.38470  Biso   1.000  H
  C268     1.0000 0.64640  0.10984  0.26006  Biso   1.000  C
  O66      1.0000 0.61526  0.11289  0.24811  Biso   1.000  O
  O67      1.0000 0.67775  0.11917  0.25214  Biso   1.000  O
  O68      1.0000 0.67480  0.92620  0.50320  Biso   1.000  O
  C269     1.0000 0.65200  0.87770  0.57560  Biso   1.000  C
  H274     1.0000 0.66120  0.85710  0.57810  Biso   1.000  H
  C270     1.0000 0.65350  0.89160  0.55100  Biso   1.000  C
  H275     1.0000 0.66380  0.88010  0.53690  Biso   1.000  H
  C271     1.0000 0.62410  0.93700  0.56740  Biso   1.000  C
  H276     1.0000 0.61360  0.95710  0.56460  Biso   1.000  H
  C272     1.0000 0.62270  0.92390  0.59230  Biso   1.000  C
  H277     1.0000 0.61210  0.93520  0.60630  Biso   1.000  H
  N31      1.0000 0.68210  0.94170  0.48070  Biso   1.000  N
  C273     1.0000 0.71130  0.93050  0.47080  Biso   1.000  C
  H278     1.0000 0.72420  0.91440  0.48030  Biso   1.000  H
  C274     1.0000 0.72630  0.94050  0.44600  Biso   1.000  C
  C275     1.0000 0.70920  0.96350  0.42900  Biso   1.000  C
  C276     1.0000 0.72630  0.96920  0.40430  Biso   1.000  C
  C277     1.0000 0.75900  0.95320  0.39770  Biso   1.000  C
  H279     1.0000 0.76950  0.95690  0.38100  Biso   1.000  H
  C278     1.0000 0.77600  0.93230  0.41480  Biso   1.000  C
  C279     1.0000 0.75940  0.92620  0.43840  Biso   1.000  C
  H280     1.0000 0.77100  0.91160  0.45010  Biso   1.000  H
  C280     1.0000 0.71200  0.99100  0.38480  Biso   1.000  C
  H281     1.0000 0.72570  0.99300  0.36910  Biso   1.000  H
  N32      1.0000 0.68300  0.00770  0.38660  Biso   1.000  N
  O69      1.0000 0.67810  0.02440  0.36390  Biso   1.000  O
  O70      1.0000 0.68070  0.97830  0.43590  Biso   1.000  O
  C281     1.0000 0.81280  0.91660  0.40770  Biso   1.000  C
  C282     1.0000 0.80360  0.88170  0.40770  Biso   1.000  C
  H282     1.0000 0.79660  0.87520  0.42540  Biso   1.000  H
  H283     1.0000 0.78280  0.87760  0.39520  Biso   1.000  H
  H284     1.0000 0.82550  0.86980  0.40240  Biso   1.000  H
  C283     1.0000 0.84350  0.92440  0.42790  Biso   1.000  C
  H285     1.0000 0.83590  0.91750  0.44540  Biso   1.000  H
  H286     1.0000 0.86650  0.91350  0.42330  Biso   1.000  H
  H287     1.0000 0.84780  0.94700  0.42810  Biso   1.000  H
  C284     1.0000 0.82380  0.92690  0.38040  Biso   1.000  C
  H288     1.0000 0.80370  0.92170  0.36770  Biso   1.000  H
  H289     1.0000 0.82800  0.94950  0.38040  Biso   1.000  H
  H290     1.0000 0.84670  0.91610  0.37560  Biso   1.000  H
  C285     1.0000 0.27570  0.77126  0.19831  Biso   1.000  C
  C286     1.0000 0.28090  0.74677  0.21620  Biso   1.000  C
  H291     1.0000 0.30010  0.74870  0.22930  Biso   1.000  H
  C287     1.0000 0.25950  0.72006  0.21580  Biso   1.000  C
  H292     1.0000 0.26370  0.70420  0.22870  Biso   1.000  H
  C288     1.0000 0.23160  0.71636  0.19642  Biso   1.000  C
  C289     1.0000 0.22480  0.74060  0.17872  Biso   1.000  C
  H293     1.0000 0.20530  0.73890  0.16570  Biso   1.000  H
  C290     1.0000 0.24650  0.76718  0.18018  Biso   1.000  C
  H294     1.0000 0.24110  0.78360  0.16810  Biso   1.000  H
  B11      1.0000 0.30300  0.80100  0.19790  Biso   1.000  B
  O71      1.0000 0.27920  0.82932  0.19656  Biso   1.000  O
  N33      1.0000 0.29840  0.85825  0.19460  Biso   1.000  N
  C291     1.0000 0.27610  0.88130  0.19490  Biso   1.000  C
  H295     1.0000 0.25030  0.87680  0.19680  Biso   1.000  H
  C292     1.0000 0.28660  0.91376  0.19279  Biso   1.000  C
  C293     1.0000 0.32390  0.92374  0.18964  Biso   1.000  C
  C294     1.0000 0.32978  0.95658  0.18668  Biso   1.000  C
  C295     1.0000 0.29925  0.97757  0.18702  Biso   1.000  C
  H296     1.0000 0.30380  0.99930  0.18500  Biso   1.000  H
  C296     1.0000 0.26308  0.96731  0.19016  Biso   1.000  C
  C297     1.0000 0.25740  0.93531  0.19270  Biso   1.000  C
  H297     1.0000 0.23270  0.92780  0.19440  Biso   1.000  H
  C298     1.0000 0.36685  0.97029  0.18506  Biso   1.000  C
  H298     1.0000 0.36780  0.99220  0.18220  Biso   1.000  H
  N34      1.0000 0.39797  0.95645  0.18698  Biso   1.000  N
  O72      1.0000 0.42785  0.97662  0.18552  Biso   1.000  O
  B12      1.0000 0.46570  0.96300  0.18900  Biso   1.000  B
  O73      1.0000 0.32360  0.79622  0.17433  Biso   1.000  O
  N35      1.0000 0.35140  0.81800  0.16957  Biso   1.000  N
  C299     1.0000 0.36750  0.81210  0.14820  Biso   1.000  C
  H299     1.0000 0.35940  0.79390  0.13900  Biso   1.000  H
  C300     1.0000 0.39670  0.83020  0.13654  Biso   1.000  C
  C301     1.0000 0.41190  0.85760  0.14841  Biso   1.000  C
  C302     1.0000 0.43870  0.87436  0.13328  Biso   1.000  C
  C303     1.0000 0.44930  0.86350  0.10865  Biso   1.000  C
  H300     1.0000 0.46740  0.87500  0.09930  Biso   1.000  H
  C304     1.0000 0.43450  0.83660  0.09725  Biso   1.000  C
  C305     1.0000 0.40870  0.82070  0.11190  Biso   1.000  C
  H301     1.0000 0.39840  0.80200  0.10470  Biso   1.000  H
  C306     1.0000 0.45590  0.90291  0.14246  Biso   1.000  C
  H302     1.0000 0.47290  0.91240  0.13090  Biso   1.000  H
  N36      1.0000 0.45120  0.91681  0.16396  Biso   1.000  N
  O74      1.0000 0.47453  0.94172  0.16732  Biso   1.000  O
  O75      1.0000 0.32470  0.80011  0.22242  Biso   1.000  O
  N37      1.0000 0.35030  0.82440  0.22597  Biso   1.000  N
  C307     1.0000 0.36510  0.82360  0.24880  Biso   1.000  C
  H303     1.0000 0.35650  0.80750  0.26000  Biso   1.000  H
  C308     1.0000 0.39320  0.84410  0.26007  Biso   1.000  C
  C309     1.0000 0.40800  0.86960  0.24513  Biso   1.000  C
  C310     1.0000 0.43460  0.88910  0.25843  Biso   1.000  C
  C311     1.0000 0.44540  0.88280  0.28459  Biso   1.000  C
  C312     1.0000 0.40560  0.83940  0.28597  Biso   1.000  C
  C313     1.0000 0.45210  0.91610  0.24598  Biso   1.000  C
  H304     1.0000 0.46740  0.92910  0.25690  Biso   1.000  H
  N38      1.0000 0.44860  0.92343  0.22179  Biso   1.000  N
  O76      1.0000 0.47180  0.94841  0.21524  Biso   1.000  O
  C314     1.0000 0.49466  0.99142  0.18908  Biso   1.000  C
  C315     1.0000 0.48850  0.01961  0.20200  Biso   1.000  C
  H305     1.0000 0.46540  0.02270  0.21040  Biso   1.000  H
  C316     1.0000 0.51489  0.04322  0.20287  Biso   1.000  C
  H306     1.0000 0.50980  0.06220  0.21180  Biso   1.000  H
  C317     1.0000 0.54888  0.03924  0.19076  Biso   1.000  C
  C318     1.0000 0.55550  0.01200  0.17729  Biso   1.000  C
  H307     1.0000 0.57830  0.00930  0.16840  Biso   1.000  H
  C319     1.0000 0.52885  0.98849  0.17665  Biso   1.000  C
  H308     1.0000 0.53400  0.96970  0.16740  Biso   1.000  H
  C320     1.0000 0.21020  0.68650  0.19350  Biso   1.000  C
  O77      1.0000 0.21588  0.66651  0.21125  Biso   1.000  O
  O78      1.0000 0.18756  0.68449  0.17429  Biso   1.000  O
  O79      1.0000 0.35116  0.90421  0.18890  Biso   1.000  O
  C321     1.0000 0.23020  0.98983  0.19190  Biso   1.000  C
  O80      1.0000 0.40060  0.86785  0.17004  Biso   1.000  O
  C322     1.0000 0.44730  0.82490  0.07040  Biso   1.000  C
  O81      1.0000 0.39800  0.87411  0.22078  Biso   1.000  O
  C323     1.0000 0.57818  0.06436  0.19207  Biso   1.000  C
  O82      1.0000 0.56901  0.09035  0.20123  Biso   1.000  O
  O83      1.0000 0.60982  0.05750  0.18503  Biso   1.000  O
  C324     1.0000 0.43430  0.85630  0.29810  Biso   1.000  C
  C325     1.0000 0.22180  0.01000  0.16840  Biso   1.000  C
  H309     1.0000 0.24500  0.01880  0.16200  Biso   1.000  H
  H310     1.0000 0.20970  0.99740  0.15450  Biso   1.000  H
  H311     1.0000 0.20500  0.02700  0.17340  Biso   1.000  H
  C326     1.0000 0.24140  0.01270  0.21540  Biso   1.000  C
  H312     1.0000 0.24720  0.00040  0.23120  Biso   1.000  H
  H313     1.0000 0.26330  0.02490  0.21070  Biso   1.000  H
  H314     1.0000 0.22060  0.02680  0.21870  Biso   1.000  H
  C327     1.0000 0.19440  0.97620  0.20200  Biso   1.000  C
  H315     1.0000 0.20010  0.96300  0.21730  Biso   1.000  H
  H316     1.0000 0.17770  0.99310  0.20700  Biso   1.000  H
  H317     1.0000 0.18240  0.96350  0.18810  Biso   1.000  H
  C328     1.0000 0.42600  0.79660  0.05950  Biso   1.000  C
  H318     1.0000 0.42630  0.77990  0.07260  Biso   1.000  H
  H319     1.0000 0.40010  0.80260  0.05530  Biso   1.000  H
  H320     1.0000 0.43790  0.78930  0.04350  Biso   1.000  H
  C329     1.0000 0.48710  0.81260  0.07720  Biso   1.000  C
  H321     1.0000 0.50240  0.82970  0.08440  Biso   1.000  H
  H322     1.0000 0.48570  0.79580  0.09020  Biso   1.000  H
  H323     1.0000 0.49840  0.80450  0.06120  Biso   1.000  H
  C330     1.0000 0.44830  0.85240  0.05130  Biso   1.000  C
  H324     1.0000 0.46230  0.86970  0.05940  Biso   1.000  H
  H325     1.0000 0.46060  0.84580  0.03510  Biso   1.000  H
  H326     1.0000 0.42280  0.85920  0.04690  Biso   1.000  H
  C331     1.0000 0.45610  0.84370  0.32230  Biso   1.000  C
  C332     1.0000 0.44080  0.81300  0.33220  Biso   1.000  C
  H327     1.0000 0.44310  0.79700  0.31850  Biso   1.000  H
  H328     1.0000 0.45500  0.80650  0.34810  Biso   1.000  H
  H329     1.0000 0.41450  0.81560  0.33640  Biso   1.000  H
  C333     1.0000 0.45270  0.86880  0.34340  Biso   1.000  C
  H330     1.0000 0.46260  0.88860  0.33690  Biso   1.000  H
  H331     1.0000 0.42630  0.87150  0.34760  Biso   1.000  H
  H332     1.0000 0.46680  0.86240  0.35930  Biso   1.000  H
  C334     1.0000 0.49740  0.83770  0.31760  Biso   1.000  C
  H333     1.0000 0.50900  0.85690  0.31110  Biso   1.000  H
  H334     1.0000 0.50990  0.83130  0.33410  Biso   1.000  H
  H335     1.0000 0.49990  0.82110  0.30450  Biso   1.000  H
  C335     1.0000 0.59220  0.13630  0.52850  Biso   1.000  C
  H336     1.0000 0.59560  0.11830  0.54020  Biso   1.000  H
  H337     1.0000 0.59250  0.15560  0.53880  Biso   1.000  H
  H338     1.0000 0.56830  0.13440  0.51880  Biso   1.000  H
  C336     1.0000 0.61840  0.16520  0.49060  Biso   1.000  C
  H339     1.0000 0.63860  0.16590  0.47800  Biso   1.000  H
  H340     1.0000 0.59440  0.16330  0.48110  Biso   1.000  H
  H341     1.0000 0.61860  0.18440  0.50110  Biso   1.000  H
  C337     1.0000 0.66130  0.14400  0.52390  Biso   1.000  C
  H342     1.0000 0.66700  0.12690  0.53620  Biso   1.000  H
  H343     1.0000 0.68140  0.14590  0.51130  Biso   1.000  H
  H344     1.0000 0.65910  0.16360  0.53370  Biso   1.000  H
  C338     1.0000 0.76790  0.98950  0.19180  Biso   1.000  C
  H345     1.0000 0.76030  0.96960  0.18540  Biso   1.000  H
  C339     1.0000 0.74170  0.01330  0.19290  Biso   1.000  C
  H346     1.0000 0.71660  0.00940  0.18750  Biso   1.000  H
  C340     1.0000 0.78780  0.04720  0.21200  Biso   1.000  C
  H347     1.0000 0.79490  0.06660  0.21960  Biso   1.000  H
  C341     1.0000 0.81340  0.02300  0.21110  Biso   1.000  C
  H348     1.0000 0.83780  0.02630  0.21850  Biso   1.000  H
  C342     1.0000 0.88810  0.82040  0.34380  Biso   1.000  C
  H349     1.0000 0.91440  0.82650  0.34310  Biso   1.000  H
  H350     1.0000 0.88110  0.81810  0.36220  Biso   1.000  H
  H351     1.0000 0.88440  0.80040  0.33470  Biso   1.000  H
  C343     1.0000 0.82270  0.83770  0.33090  Biso   1.000  C
  H352     1.0000 0.80890  0.85470  0.32210  Biso   1.000  H
  H353     1.0000 0.81790  0.81800  0.32150  Biso   1.000  H
  H354     1.0000 0.81460  0.83580  0.34900  Biso   1.000  H
  C344     1.0000 0.87230  0.87440  0.34820  Biso   1.000  C
  H355     1.0000 0.85780  0.89210  0.34120  Biso   1.000  H
  H356     1.0000 0.86520  0.87020  0.36630  Biso   1.000  H
  H357     1.0000 0.89890  0.87940  0.34790  Biso   1.000  H
  O84      1.0000 0.68250  0.93680  0.50920  Biso   1.000  O
  C345     1.0000 0.61040  0.92630  0.56250  Biso   1.000  C
  H358     1.0000 0.59030  0.93910  0.55640  Biso   1.000  H
  C346     1.0000 0.60860  0.91300  0.58720  Biso   1.000  C
  H359     1.0000 0.58780  0.91700  0.59790  Biso   1.000  H
  C347     1.0000 0.66620  0.88640  0.57970  Biso   1.000  C
  H360     1.0000 0.68480  0.87170  0.58510  Biso   1.000  H
  C348     1.0000 0.66770  0.90060  0.55530  Biso   1.000  C
  H361     1.0000 0.68800  0.89590  0.54430  Biso   1.000  H
  N39      1.0000 0.69030  0.95140  0.48480  Biso   1.000  N
  C349     1.0000 0.72420  0.94700  0.47920  Biso   1.000  C
  H362     1.0000 0.73940  0.93560  0.49150  Biso   1.000  H
  C350     1.0000 0.74170  0.95810  0.45540  Biso   1.000  C
  C351     1.0000 0.72200  0.97640  0.43570  Biso   1.000  C
  C352     1.0000 0.74320  0.98830  0.41430  Biso   1.000  C
  C353     1.0000 0.78140  0.98130  0.41300  Biso   1.000  C
  H363     1.0000 0.79520  0.98990  0.39900  Biso   1.000  H
  C354     1.0000 0.79970  0.96200  0.43150  Biso   1.000  C
  C355     1.0000 0.77950  0.95140  0.45250  Biso   1.000  C
  H364     1.0000 0.79200  0.93910  0.46560  Biso   1.000  H
  C356     1.0000 0.72640  0.00610  0.39300  Biso   1.000  C
  H365     1.0000 0.74280  0.01370  0.38000  Biso   1.000  H
  N40      1.0000 0.69210  0.01280  0.38980  Biso   1.000  N
  O85      1.0000 0.68360  0.03100  0.36790  Biso   1.000  O
  O86      1.0000 0.68660  0.98110  0.43660  Biso   1.000  O
  C357     1.0000 0.84070  0.95350  0.42730  Biso   1.000  C
  C358     1.0000 0.85850  0.93690  0.45040  Biso   1.000  C
  H366     1.0000 0.85530  0.94940  0.46640  Biso   1.000  H
  H367     1.0000 0.84670  0.91640  0.45260  Biso   1.000  H
  H368     1.0000 0.88520  0.93410  0.44740  Biso   1.000  H
  C359     1.0000 0.86280  0.98400  0.42400  Biso   1.000  C
  H369     1.0000 0.85220  0.99580  0.40900  Biso   1.000  H
  H370     1.0000 0.86120  0.99670  0.44000  Biso   1.000  H
  H371     1.0000 0.88900  0.97910  0.42070  Biso   1.000  H
  C360     1.0000 0.84390  0.93620  0.40110  Biso   1.000  C
  H372     1.0000 0.83170  0.94850  0.38710  Biso   1.000  H
  H373     1.0000 0.87040  0.93340  0.39720  Biso   1.000  H
  H374     1.0000 0.83180  0.91570  0.40230  Biso   1.000  H
  C361     1.0000 0.58440  0.14970  0.50090  Biso   1.000  C
  H375     1.0000 0.58260  0.15210  0.48170  Biso   1.000  H
  H376     1.0000 0.56540  0.13490  0.50660  Biso   1.000  H
  H377     1.0000 0.58050  0.17000  0.50930  Biso   1.000  H
  C362     1.0000 0.65180  0.16180  0.50100  Biso   1.000  C
  H378     1.0000 0.65140  0.16380  0.48170  Biso   1.000  H
  H379     1.0000 0.64510  0.18190  0.50880  Biso   1.000  H
  H380     1.0000 0.67690  0.15570  0.50720  Biso   1.000  H
  C363     1.0000 0.62460  0.13400  0.53860  Biso   1.000  C
  H381     1.0000 0.60660  0.11800  0.54370  Biso   1.000  H
  H382     1.0000 0.64970  0.12800  0.54480  Biso   1.000  H
  H383     1.0000 0.61790  0.15410  0.54640  Biso   1.000  H
  C364     1.0000 0.20000  0.97980  0.17090  Biso   1.000  C
  H384     1.0000 0.19210  0.95830  0.17430  Biso   1.000  H
  H385     1.0000 0.17840  0.99380  0.17180  Biso   1.000  H
  H386     1.0000 0.21040  0.98110  0.15330  Biso   1.000  H
  C365     1.0000 0.24020  0.02290  0.18480  Biso   1.000  C
  H387     1.0000 0.25230  0.02310  0.16770  Biso   1.000  H
  H388     1.0000 0.21740  0.03570  0.18360  Biso   1.000  H
  H389     1.0000 0.25720  0.03160  0.19830  Biso   1.000  H
  C366     1.0000 0.21120  0.98830  0.21830  Biso   1.000  C
  H390     1.0000 0.20510  0.96650  0.22230  Biso   1.000  H
  H391     1.0000 0.22800  0.99670  0.23210  Biso   1.000  H
  H392     1.0000 0.18820  0.00080  0.21740  Biso   1.000  H
  C367     1.0000 0.45580  0.78990  0.07170  Biso   1.000  C
  H393     1.0000 0.43430  0.77870  0.07870  Biso   1.000  H
  H394     1.0000 0.46090  0.78210  0.05400  Biso   1.000  H
  H395     1.0000 0.47770  0.78630  0.08330  Biso   1.000  H
  C368     1.0000 0.48010  0.84330  0.05970  Biso   1.000  C
  H396     1.0000 0.47380  0.86560  0.05910  Biso   1.000  H
  H397     1.0000 0.50220  0.84020  0.07120  Biso   1.000  H
  H398     1.0000 0.48530  0.83600  0.04190  Biso   1.000  H
  C369     1.0000 0.41570  0.83000  0.04950  Biso   1.000  C
  H399     1.0000 0.40970  0.85230  0.04830  Biso   1.000  H
  H400     1.0000 0.42390  0.82250  0.03230  Biso   1.000  H
  H401     1.0000 0.39340  0.81830  0.05450  Biso   1.000  H
  C370     1.0000 0.42850  0.86010  0.29960  Biso   1.000  C
  C371     1.0000 0.42860  0.86230  0.32970  Biso   1.000  C
  C372     1.0000 0.41700  0.83170  0.34200  Biso   1.000  C
  H402     1.0000 0.39220  0.82570  0.33510  Biso   1.000  H
  H403     1.0000 0.43510  0.81540  0.33770  Biso   1.000  H
  H404     1.0000 0.41620  0.83410  0.36120  Biso   1.000  H
  C373     1.0000 0.46690  0.87400  0.33900  Biso   1.000  C
  H405     1.0000 0.47240  0.89380  0.33030  Biso   1.000  H
  H406     1.0000 0.46700  0.87720  0.35810  Biso   1.000  H
  H407     1.0000 0.48590  0.85850  0.33470  Biso   1.000  H
  C374     1.0000 0.39990  0.88580  0.34010  Biso   1.000  C
  H408     1.0000 0.40510  0.90660  0.33310  Biso   1.000  H
  H409     1.0000 0.37470  0.87930  0.33440  Biso   1.000  H
  H410     1.0000 0.40160  0.88630  0.35940  Biso   1.000  H
  Zn21     1.0000 0.38589  0.59147  0.69797  Biso   1.000  Zn
  Zn22     1.0000 0.43392  0.64706  0.69631  Biso   1.000  Zn
  Zn23     1.0000 0.85748  0.64415  0.69508  Biso   1.000  Zn
  Zn24     1.0000 0.91014  0.59176  0.69212  Biso   1.000  Zn
  Zn25     1.0000 0.14387  0.52532  0.96581  Biso   1.000  Zn
  Zn26     1.0000 0.14425  0.49110  0.91570  Biso   1.000  Zn
  Zn27     1.0000 0.10391  0.37672  0.71151  Biso   1.000  Zn
  Zn28     1.0000 0.15309  0.41760  0.67263  Biso   1.000  Zn
  Zn29     1.0000 0.19219  0.37436  0.71532  Biso   1.000  Zn
  Zn30     1.0000 0.14734  0.34527  0.66586  Biso   1.000  Zn
  O87      1.0000 0.14930  0.37779  0.69211  Biso   1.000  O
  C375     1.0000 0.51160  0.73448  0.69444  Biso   1.000  C
  C376     1.0000 0.51000  0.75859  0.71315  Biso   1.000  C
  H411     1.0000 0.49310  0.75660  0.72710  Biso   1.000  H
  C377     1.0000 0.53210  0.78507  0.71208  Biso   1.000  C
  H412     1.0000 0.53070  0.80050  0.72550  Biso   1.000  H
  C378     1.0000 0.55640  0.78920  0.69163  Biso   1.000  C
  C379     1.0000 0.55920  0.76552  0.67305  Biso   1.000  C
  H413     1.0000 0.57590  0.76780  0.65900  Biso   1.000  H
  C380     1.0000 0.53780  0.73867  0.67476  Biso   1.000  C
  H414     1.0000 0.54100  0.72250  0.66220  Biso   1.000  H
  B13      1.0000 0.48520  0.70420  0.69530  Biso   1.000  B
  O88      1.0000 0.45397  0.71038  0.67588  Biso   1.000  O
  N41      1.0000 0.42810  0.68698  0.67229  Biso   1.000  N
  C381     1.0000 0.40470  0.69270  0.65390  Biso   1.000  C
  H415     1.0000 0.40720  0.71230  0.64530  Biso   1.000  H
  C382     1.0000 0.37460  0.67280  0.64430  Biso   1.000  C
  C383     1.0000 0.36600  0.64370  0.65650  Biso   1.000  C
  C384     1.0000 0.33460  0.62680  0.64510  Biso   1.000  C
  C385     1.0000 0.31540  0.63740  0.62250  Biso   1.000  C
  H416     1.0000 0.29570  0.62510  0.61510  Biso   1.000  H
  C386     1.0000 0.32460  0.66540  0.61060  Biso   1.000  C
  C387     1.0000 0.35410  0.68250  0.62190  Biso   1.000  C
  H417     1.0000 0.36060  0.70180  0.61390  Biso   1.000  H
  C388     1.0000 0.32250  0.59790  0.65630  Biso   1.000  C
  H418     1.0000 0.29980  0.58940  0.64940  Biso   1.000  H
  N42      1.0000 0.33890  0.58240  0.67440  Biso   1.000  N
  O89      1.0000 0.31930  0.55563  0.67939  Biso   1.000  O
  B14      1.0000 0.33460  0.53380  0.69900  Biso   1.000  B
  O90      1.0000 0.50798  0.67785  0.68672  Biso   1.000  O
  N43      1.0000 0.49050  0.64845  0.68704  Biso   1.000  N
  C389     1.0000 0.51330  0.62688  0.68160  Biso   1.000  C
  H419     1.0000 0.53810  0.63320  0.67810  Biso   1.000  H
  C390     1.0000 0.50570  0.59331  0.68020  Biso   1.000  C
  C391     1.0000 0.46950  0.58084  0.68380  Biso   1.000  C
  C392     1.0000 0.46580  0.54799  0.68230  Biso   1.000  C
  C393     1.0000 0.49770  0.52900  0.67900  Biso   1.000  C
  H420     1.0000 0.49470  0.50700  0.67900  Biso   1.000  H
  C394     1.0000 0.53320  0.54125  0.67570  Biso   1.000  C
  C395     1.0000 0.53560  0.57364  0.67530  Biso   1.000  C
  H421     1.0000 0.55890  0.58290  0.67140  Biso   1.000  H
  C396     1.0000 0.43110  0.53120  0.68590  Biso   1.000  C
  H422     1.0000 0.43140  0.50910  0.68390  Biso   1.000  H
  N44      1.0000 0.40040  0.54403  0.69160  Biso   1.000  N
  O91      1.0000 0.37154  0.52155  0.69392  Biso   1.000  O
  O92      1.0000 0.47249  0.70150  0.72213  Biso   1.000  O
  N45      1.0000 0.44820  0.67757  0.72748  Biso   1.000  N
  C397     1.0000 0.43840  0.67863  0.75124  Biso   1.000  C
  H423     1.0000 0.44930  0.69460  0.76200  Biso   1.000  H
  C398     1.0000 0.41190  0.65768  0.76364  Biso   1.000  C
  C399     1.0000 0.39640  0.63124  0.75007  Biso   1.000  C
  C400     1.0000 0.37060  0.61233  0.76430  Biso   1.000  C
  C401     1.0000 0.36100  0.62100  0.78976  Biso   1.000  C
  H424     1.0000 0.34320  0.60860  0.79850  Biso   1.000  H
  C402     1.0000 0.37590  0.64660  0.80294  Biso   1.000  C
  C403     1.0000 0.40180  0.66460  0.78961  Biso   1.000  C
  H425     1.0000 0.41300  0.68210  0.79830  Biso   1.000  H
  C404     1.0000 0.35310  0.58470  0.75307  Biso   1.000  C
  H426     1.0000 0.33790  0.57280  0.76440  Biso   1.000  H
  N46      1.0000 0.35600  0.57460  0.72976  Biso   1.000  N
  O93      1.0000 0.33420  0.54780  0.72571  Biso   1.000  O
  C405     1.0000 0.30510  0.50597  0.69999  Biso   1.000  C
  C406     1.0000 0.25200  0.45689  0.70178  Biso   1.000  C
  C407     1.0000 0.58020  0.81810  0.69002  Biso   1.000  C
  O94      1.0000 0.57731  0.83762  0.70815  Biso   1.000  O
  O95      1.0000 0.60243  0.81897  0.67120  Biso   1.000  O
  O96      1.0000 0.38340  0.63417  0.67686  Biso   1.000  O
  C408     1.0000 0.30370  0.67740  0.58590  Biso   1.000  C
  O97      1.0000 0.44134  0.59916  0.68847  Biso   1.000  O
  C409     1.0000 0.56800  0.52050  0.67340  Biso   1.000  C
  C410     1.0000 0.59420  0.52360  0.69870  Biso   1.000  C
  H427     1.0000 0.58130  0.51540  0.71400  Biso   1.000  H
  H428     1.0000 0.60060  0.54560  0.70160  Biso   1.000  H
  H429     1.0000 0.61710  0.51150  0.69620  Biso   1.000  H
  C411     1.0000 0.59400  0.53410  0.65420  Biso   1.000  C
  H430     1.0000 0.59690  0.55650  0.65770  Biso   1.000  H
  H431     1.0000 0.58390  0.53100  0.63630  Biso   1.000  H
  H432     1.0000 0.61830  0.52380  0.65610  Biso   1.000  H
  C412     1.0000 0.55810  0.48640  0.67290  Biso   1.000  C
  H433     1.0000 0.54070  0.48190  0.68700  Biso   1.000  H
  H434     1.0000 0.58080  0.47390  0.67560  Biso   1.000  H
  H435     1.0000 0.54640  0.48110  0.65580  Biso   1.000  H
  O98      1.0000 0.40533  0.62397  0.72612  Biso   1.000  O
  C413     1.0000 0.36420  0.65510  0.83082  Biso   1.000  C
  C414     1.0000 0.22370  0.43161  0.70370  Biso   1.000  C
  O99      1.0000 0.19085  0.43858  0.69611  Biso   1.000  O
  O100     1.0000 0.23229  0.40515  0.71289  Biso   1.000  O
  C415     1.0000 0.27590  0.50340  0.68090  Biso   1.000  C
  H436     1.0000 0.27410  0.51820  0.66710  Biso   1.000  H
  C416     1.0000 0.24970  0.47960  0.68200  Biso   1.000  C
  H437     1.0000 0.23000  0.47870  0.66920  Biso   1.000  H
  C417     1.0000 0.28140  0.45820  0.72010  Biso   1.000  C
  H438     1.0000 0.28400  0.44260  0.73330  Biso   1.000  H
  C418     1.0000 0.30680  0.48250  0.71890  Biso   1.000  C
  H439     1.0000 0.32660  0.48310  0.73170  Biso   1.000  H
  C419     1.0000 0.39430  0.65090  0.85160  Biso   1.000  C
  H440     1.0000 0.41770  0.66000  0.84540  Biso   1.000  H
  H441     1.0000 0.39790  0.62860  0.85510  Biso   1.000  H
  H442     1.0000 0.38700  0.66150  0.86780  Biso   1.000  H
  C420     1.0000 0.35670  0.69130  0.83150  Biso   1.000  C
  H443     1.0000 0.33710  0.69660  0.81850  Biso   1.000  H
  H444     1.0000 0.37970  0.70260  0.82750  Biso   1.000  H
  H445     1.0000 0.34870  0.69730  0.84910  Biso   1.000  H
  C421     1.0000 0.32680  0.64180  0.83850  Biso   1.000  C
  H446     1.0000 0.30850  0.64530  0.82410  Biso   1.000  H
  H447     1.0000 0.31850  0.65220  0.85440  Biso   1.000  H
  H448     1.0000 0.32940  0.61930  0.84180  Biso   1.000  H
  C422     1.0000 0.32890  0.67500  0.56200  Biso   1.000  C
  H449     1.0000 0.35230  0.68620  0.56570  Biso   1.000  H
  H450     1.0000 0.31610  0.68440  0.54660  Biso   1.000  H
  H451     1.0000 0.33420  0.65300  0.55830  Biso   1.000  H
  C423     1.0000 0.26720  0.66020  0.58030  Biso   1.000  C
  H452     1.0000 0.25510  0.66870  0.56430  Biso   1.000  H
  H453     1.0000 0.25070  0.66280  0.59520  Biso   1.000  H
  H454     1.0000 0.27230  0.63790  0.57770  Biso   1.000  H
  C424     1.0000 0.29600  0.71260  0.58930  Biso   1.000  C
  H455     1.0000 0.31960  0.72360  0.59290  Biso   1.000  H
  H456     1.0000 0.27930  0.71570  0.60400  Biso   1.000  H
  H457     1.0000 0.28420  0.72080  0.57310  Biso   1.000  H
  C425     1.0000 0.14040  0.57830  0.04612  Biso   1.000  C
  C426     1.0000 0.13730  0.60630  0.09645  Biso   1.000  C
  B15      1.0000 0.14360  0.56110  0.01853  Biso   1.000  B
  O101     1.0000 0.14180  0.52801  0.02490  Biso   1.000  O
  N47      1.0000 0.13950  0.50660  0.00412  Biso   1.000  N
  C427     1.0000 0.13800  0.47870  0.01192  Biso   1.000  C
  H458     1.0000 0.13820  0.47540  0.03040  Biso   1.000  H
  C428     1.0000 0.13600  0.45113  0.99532  Biso   1.000  C
  C429     1.0000 0.13700  0.45230  0.96725  Biso   1.000  C
  C430     1.0000 0.13400  0.42330  0.95350  Biso   1.000  C
  C431     1.0000 0.12920  0.39580  0.96792  Biso   1.000  C
  H459     1.0000 0.12600  0.37680  0.95840  Biso   1.000  H
  C432     1.0000 0.12890  0.39440  0.99478  Biso   1.000  C
  C433     1.0000 0.13180  0.42220  0.00830  Biso   1.000  C
  H460     1.0000 0.13090  0.42200  0.02700  Biso   1.000  H
  C434     1.0000 0.13590  0.42060  0.92539  Biso   1.000  C
  H461     1.0000 0.13390  0.40000  0.91840  Biso   1.000  H
  N48      1.0000 0.13980  0.44228  0.90880  Biso   1.000  N
  O102     1.0000 0.14070  0.43165  0.88337  Biso   1.000  O
  B16      1.0000 0.14570  0.45540  0.86304  Biso   1.000  B
  O103     1.0000 0.11120  0.57154  0.00317  Biso   1.000  O
  N49      1.0000 0.10520  0.55840  0.97851  Biso   1.000  N
  C435     1.0000 0.07270  0.56450  0.96934  Biso   1.000  C
  H462     1.0000 0.05710  0.57720  0.97980  Biso   1.000  H
  C436     1.0000 0.05770  0.55380  0.94447  Biso   1.000  C
  C437     1.0000 0.07800  0.53570  0.92574  Biso   1.000  C
  C438     1.0000 0.05810  0.52680  0.90216  Biso   1.000  C
  C439     1.0000 0.02030  0.53450  0.89872  Biso   1.000  C
  H463     1.0000 0.00750  0.52780  0.88310  Biso   1.000  H
  C440     1.0000 0.00050  0.55160  0.91702  Biso   1.000  C
  C441     1.0000 0.01990  0.56100  0.93926  Biso   1.000  C
  H464     1.0000 0.00700  0.57310  0.95180  Biso   1.000  H
  C442     1.0000 0.07480  0.50800  0.88172  Biso   1.000  C
  H465     1.0000 0.06100  0.50560  0.86560  Biso   1.000  H
  N50      1.0000 0.10630  0.49458  0.88373  Biso   1.000  N
  O104     1.0000 0.11470  0.47881  0.86128  Biso   1.000  O
  C443     1.0000 0.14580  0.43780  0.83514  Biso   1.000  C
  C444     1.0000 0.11370  0.43590  0.81886  Biso   1.000  C
  H466     1.0000 0.09150  0.44590  0.82420  Biso   1.000  H
  C445     1.0000 0.11360  0.41970  0.79512  Biso   1.000  C
  H467     1.0000 0.09120  0.41790  0.78480  Biso   1.000  H
  C446     1.0000 0.14620  0.40612  0.78644  Biso   1.000  C
  C447     1.0000 0.17860  0.40840  0.80171  Biso   1.000  C
  H468     1.0000 0.20100  0.39910  0.79600  Biso   1.000  H
  C448     1.0000 0.17810  0.42430  0.82556  Biso   1.000  C
  H469     1.0000 0.20070  0.42610  0.83570  Biso   1.000  H
  C449     1.0000 0.13650  0.61920  0.12373  Biso   1.000  C
  O105     1.0000 0.14858  0.64647  0.12776  Biso   1.000  O
  O106     1.0000 0.12000  0.60440  0.14072  Biso   1.000  O
  O107     1.0000 0.13790  0.47838  0.95522  Biso   1.000  O
  C450     1.0000 0.12400  0.36300  0.00890  Biso   1.000  C
  O108     1.0000 0.11220  0.52853  0.92989  Biso   1.000  O
  C451     1.0000 0.95930  0.56080  0.91330  Biso   1.000  C
  C452     1.0000 0.95430  0.59660  0.91570  Biso   1.000  C
  H470     1.0000 0.96430  0.60370  0.93280  Biso   1.000  H
  H471     1.0000 0.92780  0.60190  0.91400  Biso   1.000  H
  H472     1.0000 0.96790  0.60700  0.90160  Biso   1.000  H
  C453     1.0000 0.93670  0.54620  0.93550  Biso   1.000  C
  H473     1.0000 0.94770  0.55230  0.95260  Biso   1.000  H
  H474     1.0000 0.93710  0.52340  0.93390  Biso   1.000  H
  H475     1.0000 0.91080  0.55360  0.93420  Biso   1.000  H
  C454     1.0000 0.94340  0.55210  0.88670  Biso   1.000  C
  H476     1.0000 0.95840  0.56180  0.87300  Biso   1.000  H
  H477     1.0000 0.91760  0.55960  0.88500  Biso   1.000  H
  H478     1.0000 0.94390  0.52930  0.88470  Biso   1.000  H
  C455     1.0000 0.14640  0.39016  0.76006  Biso   1.000  C
  O109     1.0000 0.11526  0.38711  0.74811  Biso   1.000  O
  O110     1.0000 0.17775  0.38083  0.75214  Biso   1.000  O
  O111     1.0000 0.17480  0.57380  0.00320  Biso   1.000  O
  C456     1.0000 0.15200  0.62230  0.07560  Biso   1.000  C
  H479     1.0000 0.16120  0.64290  0.07810  Biso   1.000  H
  C457     1.0000 0.15350  0.60840  0.05100  Biso   1.000  C
  H480     1.0000 0.16380  0.61990  0.03690  Biso   1.000  H
  C458     1.0000 0.12410  0.56300  0.06740  Biso   1.000  C
  H481     1.0000 0.11360  0.54290  0.06460  Biso   1.000  H
  C459     1.0000 0.12270  0.57610  0.09230  Biso   1.000  C
  H482     1.0000 0.11210  0.56480  0.10630  Biso   1.000  H
  N51      1.0000 0.18210  0.55830  0.98070  Biso   1.000  N
  C460     1.0000 0.21130  0.56950  0.97080  Biso   1.000  C
  H483     1.0000 0.22420  0.58560  0.98030  Biso   1.000  H
  C461     1.0000 0.22630  0.55950  0.94600  Biso   1.000  C
  C462     1.0000 0.20920  0.53650  0.92900  Biso   1.000  C
  C463     1.0000 0.22630  0.53080  0.90430  Biso   1.000  C
  C464     1.0000 0.25900  0.54680  0.89770  Biso   1.000  C
  H484     1.0000 0.26950  0.54310  0.88100  Biso   1.000  H
  C465     1.0000 0.27600  0.56770  0.91480  Biso   1.000  C
  C466     1.0000 0.25940  0.57380  0.93840  Biso   1.000  C
  H485     1.0000 0.27100  0.58840  0.95010  Biso   1.000  H
  C467     1.0000 0.21200  0.50900  0.88480  Biso   1.000  C
  H486     1.0000 0.22570  0.50700  0.86910  Biso   1.000  H
  N52      1.0000 0.18300  0.49230  0.88660  Biso   1.000  N
  O112     1.0000 0.17810  0.47560  0.86390  Biso   1.000  O
  O113     1.0000 0.18070  0.52170  0.93590  Biso   1.000  O
  C468     1.0000 0.31280  0.58340  0.90770  Biso   1.000  C
  C469     1.0000 0.30360  0.61830  0.90770  Biso   1.000  C
  H487     1.0000 0.29660  0.62480  0.92540  Biso   1.000  H
  H488     1.0000 0.28280  0.62240  0.89520  Biso   1.000  H
  H489     1.0000 0.32550  0.63020  0.90240  Biso   1.000  H
  C470     1.0000 0.34350  0.57560  0.92790  Biso   1.000  C
  H490     1.0000 0.33590  0.58250  0.94540  Biso   1.000  H
  H491     1.0000 0.36650  0.58650  0.92330  Biso   1.000  H
  H492     1.0000 0.34780  0.55300  0.92810  Biso   1.000  H
  C471     1.0000 0.32380  0.57310  0.88040  Biso   1.000  C
  H493     1.0000 0.30370  0.57830  0.86770  Biso   1.000  H
  H494     1.0000 0.32800  0.55050  0.88040  Biso   1.000  H
  H495     1.0000 0.34670  0.58390  0.87560  Biso   1.000  H
  C472     1.0000 0.77570  0.72874  0.69831  Biso   1.000  C
  C473     1.0000 0.78090  0.75323  0.71620  Biso   1.000  C
  H496     1.0000 0.80010  0.75130  0.72930  Biso   1.000  H
  C474     1.0000 0.75950  0.77994  0.71580  Biso   1.000  C
  H497     1.0000 0.76370  0.79580  0.72870  Biso   1.000  H
  C475     1.0000 0.73160  0.78364  0.69642  Biso   1.000  C
  C476     1.0000 0.72480  0.75940  0.67872  Biso   1.000  C
  H498     1.0000 0.70530  0.76110  0.66570  Biso   1.000  H
  C477     1.0000 0.74650  0.73282  0.68018  Biso   1.000  C
  H499     1.0000 0.74110  0.71640  0.66810  Biso   1.000  H
  B17      1.0000 0.80300  0.69900  0.69790  Biso   1.000  B
  O114     1.0000 0.77920  0.67068  0.69656  Biso   1.000  O
  N53      1.0000 0.79840  0.64175  0.69460  Biso   1.000  N
  C478     1.0000 0.77610  0.61870  0.69490  Biso   1.000  C
  H500     1.0000 0.75030  0.62320  0.69680  Biso   1.000  H
  C479     1.0000 0.78660  0.58624  0.69279  Biso   1.000  C
  C480     1.0000 0.82390  0.57626  0.68964  Biso   1.000  C
  C481     1.0000 0.82978  0.54342  0.68668  Biso   1.000  C
  C482     1.0000 0.79925  0.52243  0.68702  Biso   1.000  C
  H501     1.0000 0.80380  0.50070  0.68500  Biso   1.000  H
  C483     1.0000 0.76308  0.53269  0.69016  Biso   1.000  C
  C484     1.0000 0.75740  0.56469  0.69270  Biso   1.000  C
  H502     1.0000 0.73270  0.57220  0.69440  Biso   1.000  H
  C485     1.0000 0.86685  0.52971  0.68506  Biso   1.000  C
  H503     1.0000 0.86780  0.50780  0.68220  Biso   1.000  H
  N54      1.0000 0.89797  0.54355  0.68698  Biso   1.000  N
  O115     1.0000 0.92785  0.52338  0.68552  Biso   1.000  O
  B18      1.0000 0.96570  0.53700  0.68900  Biso   1.000  B
  O116     1.0000 0.82360  0.70378  0.67433  Biso   1.000  O
  N55      1.0000 0.85140  0.68200  0.66957  Biso   1.000  N
  C486     1.0000 0.86750  0.68790  0.64820  Biso   1.000  C
  H504     1.0000 0.85940  0.70610  0.63900  Biso   1.000  H
  C487     1.0000 0.89670  0.66980  0.63654  Biso   1.000  C
  C488     1.0000 0.91190  0.64240  0.64841  Biso   1.000  C
  C489     1.0000 0.93870  0.62564  0.63328  Biso   1.000  C
  C490     1.0000 0.94930  0.63650  0.60865  Biso   1.000  C
  H505     1.0000 0.96740  0.62500  0.59930  Biso   1.000  H
  C491     1.0000 0.93450  0.66340  0.59725  Biso   1.000  C
  C492     1.0000 0.90870  0.67930  0.61190  Biso   1.000  C
  H506     1.0000 0.89840  0.69800  0.60470  Biso   1.000  H
  C493     1.0000 0.95590  0.59709  0.64246  Biso   1.000  C
  H507     1.0000 0.97290  0.58760  0.63090  Biso   1.000  H
  N56      1.0000 0.95120  0.58319  0.66396  Biso   1.000  N
  O117     1.0000 0.97453  0.55828  0.66732  Biso   1.000  O
  O118     1.0000 0.82470  0.69989  0.72242  Biso   1.000  O
  N57      1.0000 0.85030  0.67560  0.72597  Biso   1.000  N
  C494     1.0000 0.86510  0.67640  0.74880  Biso   1.000  C
  H508     1.0000 0.85650  0.69250  0.76000  Biso   1.000  H
  C495     1.0000 0.89320  0.65590  0.76007  Biso   1.000  C
  C496     1.0000 0.90800  0.63040  0.74513  Biso   1.000  C
  C497     1.0000 0.93460  0.61090  0.75843  Biso   1.000  C
  C498     1.0000 0.94540  0.61720  0.78459  Biso   1.000  C
  C499     1.0000 0.90560  0.66060  0.78597  Biso   1.000  C
  C500     1.0000 0.95210  0.58390  0.74598  Biso   1.000  C
  H509     1.0000 0.96740  0.57090  0.75690  Biso   1.000  H
  N58      1.0000 0.94860  0.57657  0.72179  Biso   1.000  N
  O119     1.0000 0.97180  0.55159  0.71524  Biso   1.000  O
  C501     1.0000 0.99466  0.50858  0.68908  Biso   1.000  C
  C502     1.0000 0.98850  0.48039  0.70200  Biso   1.000  C
  H510     1.0000 0.96540  0.47730  0.71040  Biso   1.000  H
  C503     1.0000 0.01489  0.45678  0.70287  Biso   1.000  C
  H511     1.0000 0.00980  0.43780  0.71180  Biso   1.000  H
  C504     1.0000 0.04888  0.46076  0.69076  Biso   1.000  C
  C505     1.0000 0.05550  0.48800  0.67729  Biso   1.000  C
  H512     1.0000 0.07830  0.49070  0.66840  Biso   1.000  H
  C506     1.0000 0.02885  0.51151  0.67665  Biso   1.000  C
  H513     1.0000 0.03400  0.53030  0.66740  Biso   1.000  H
  C507     1.0000 0.71020  0.81350  0.69350  Biso   1.000  C
  O120     1.0000 0.71588  0.83349  0.71125  Biso   1.000  O
  O121     1.0000 0.68756  0.81551  0.67429  Biso   1.000  O
  O122     1.0000 0.85116  0.59579  0.68890  Biso   1.000  O
  C508     1.0000 0.73020  0.51017  0.69190  Biso   1.000  C
  O123     1.0000 0.90060  0.63215  0.67004  Biso   1.000  O
  C509     1.0000 0.94730  0.67510  0.57040  Biso   1.000  C
  O124     1.0000 0.89800  0.62589  0.72078  Biso   1.000  O
  C510     1.0000 0.07818  0.43564  0.69207  Biso   1.000  C
  O125     1.0000 0.06901  0.40965  0.70123  Biso   1.000  O
  O126     1.0000 0.10982  0.44250  0.68503  Biso   1.000  O
  C511     1.0000 0.93430  0.64370  0.79810  Biso   1.000  C
  C512     1.0000 0.72180  0.49000  0.66840  Biso   1.000  C
  H514     1.0000 0.74500  0.48120  0.66200  Biso   1.000  H
  H515     1.0000 0.70970  0.50260  0.65450  Biso   1.000  H
  H516     1.0000 0.70500  0.47300  0.67340  Biso   1.000  H
  C513     1.0000 0.74140  0.48730  0.71540  Biso   1.000  C
  H517     1.0000 0.74720  0.49960  0.73120  Biso   1.000  H
  H518     1.0000 0.76330  0.47510  0.71070  Biso   1.000  H
  H519     1.0000 0.72060  0.47320  0.71870  Biso   1.000  H
  C514     1.0000 0.69440  0.52380  0.70200  Biso   1.000  C
  H520     1.0000 0.70010  0.53700  0.71730  Biso   1.000  H
  H521     1.0000 0.67770  0.50690  0.70700  Biso   1.000  H
  H522     1.0000 0.68240  0.53650  0.68810  Biso   1.000  H
  C515     1.0000 0.92600  0.70340  0.55950  Biso   1.000  C
  H523     1.0000 0.92630  0.72010  0.57260  Biso   1.000  H
  H524     1.0000 0.90010  0.69740  0.55530  Biso   1.000  H
  H525     1.0000 0.93790  0.71070  0.54350  Biso   1.000  H
  C516     1.0000 0.98710  0.68740  0.57720  Biso   1.000  C
  H526     1.0000 0.00240  0.67030  0.58440  Biso   1.000  H
  H527     1.0000 0.98570  0.70420  0.59020  Biso   1.000  H
  H528     1.0000 0.99840  0.69550  0.56120  Biso   1.000  H
  C517     1.0000 0.94830  0.64760  0.55130  Biso   1.000  C
  H529     1.0000 0.96230  0.63030  0.55940  Biso   1.000  H
  H530     1.0000 0.96060  0.65420  0.53510  Biso   1.000  H
  H531     1.0000 0.92280  0.64080  0.54690  Biso   1.000  H
  C518     1.0000 0.95610  0.65630  0.82230  Biso   1.000  C
  C519     1.0000 0.94080  0.68700  0.83220  Biso   1.000  C
  H532     1.0000 0.94310  0.70300  0.81850  Biso   1.000  H
  H533     1.0000 0.95500  0.69350  0.84810  Biso   1.000  H
  H534     1.0000 0.91450  0.68440  0.83640  Biso   1.000  H
  C520     1.0000 0.95270  0.63120  0.84340  Biso   1.000  C
  H535     1.0000 0.96260  0.61140  0.83690  Biso   1.000  H
  H536     1.0000 0.92630  0.62850  0.84760  Biso   1.000  H
  H537     1.0000 0.96680  0.63760  0.85930  Biso   1.000  H
  C521     1.0000 0.99740  0.66230  0.81760  Biso   1.000  C
  H538     1.0000 0.00900  0.64310  0.81110  Biso   1.000  H
  H539     1.0000 0.00990  0.66870  0.83410  Biso   1.000  H
  H540     1.0000 0.99990  0.67890  0.80450  Biso   1.000  H
  C522     1.0000 0.09220  0.36370  0.02850  Biso   1.000  C
  H541     1.0000 0.09560  0.38170  0.04020  Biso   1.000  H
  H542     1.0000 0.09250  0.34440  0.03880  Biso   1.000  H
  H543     1.0000 0.06830  0.36560  0.01880  Biso   1.000  H
  C523     1.0000 0.11840  0.33480  0.99060  Biso   1.000  C
  H544     1.0000 0.13860  0.33410  0.97800  Biso   1.000  H
  H545     1.0000 0.09440  0.33670  0.98110  Biso   1.000  H
  H546     1.0000 0.11860  0.31560  0.00110  Biso   1.000  H
  C524     1.0000 0.16130  0.35600  0.02390  Biso   1.000  C
  H547     1.0000 0.16700  0.37310  0.03620  Biso   1.000  H
  H548     1.0000 0.18140  0.35410  0.01130  Biso   1.000  H
  H549     1.0000 0.15910  0.33640  0.03370  Biso   1.000  H
  C525     1.0000 0.26790  0.51050  0.69180  Biso   1.000  C
  H550     1.0000 0.26030  0.53040  0.68540  Biso   1.000  H
  C526     1.0000 0.24170  0.48670  0.69290  Biso   1.000  C
  H551     1.0000 0.21660  0.49060  0.68750  Biso   1.000  H
  C527     1.0000 0.28780  0.45280  0.71200  Biso   1.000  C
  H552     1.0000 0.29490  0.43340  0.71960  Biso   1.000  H
  C528     1.0000 0.31340  0.47700  0.71110  Biso   1.000  C
  H553     1.0000 0.33780  0.47370  0.71850  Biso   1.000  H
  C529     1.0000 0.38810  0.67960  0.84380  Biso   1.000  C
  H554     1.0000 0.41440  0.67350  0.84310  Biso   1.000  H
  H555     1.0000 0.38110  0.68190  0.86220  Biso   1.000  H
  H556     1.0000 0.38440  0.69960  0.83470  Biso   1.000  H
  C530     1.0000 0.32270  0.66230  0.83090  Biso   1.000  C
  H557     1.0000 0.30890  0.64530  0.82210  Biso   1.000  H
  H558     1.0000 0.31790  0.68200  0.82150  Biso   1.000  H
  H559     1.0000 0.31460  0.66420  0.84900  Biso   1.000  H
  C531     1.0000 0.37230  0.62560  0.84820  Biso   1.000  C
  H560     1.0000 0.35780  0.60790  0.84120  Biso   1.000  H
  H561     1.0000 0.36520  0.62980  0.86630  Biso   1.000  H
  H562     1.0000 0.39890  0.62060  0.84790  Biso   1.000  H
  O127     1.0000 0.18250  0.56320  0.00920  Biso   1.000  O
  C532     1.0000 0.11040  0.57370  0.06250  Biso   1.000  C
  H563     1.0000 0.09030  0.56090  0.05640  Biso   1.000  H
  C533     1.0000 0.10860  0.58700  0.08720  Biso   1.000  C
  H564     1.0000 0.08780  0.58300  0.09790  Biso   1.000  H
  C534     1.0000 0.16620  0.61360  0.07970  Biso   1.000  C
  H565     1.0000 0.18480  0.62830  0.08510  Biso   1.000  H
  C535     1.0000 0.16770  0.59940  0.05530  Biso   1.000  C
  H566     1.0000 0.18800  0.60410  0.04430  Biso   1.000  H
  N59      1.0000 0.19030  0.54860  0.98480  Biso   1.000  N
  C536     1.0000 0.22420  0.55300  0.97920  Biso   1.000  C
  H567     1.0000 0.23940  0.56440  0.99150  Biso   1.000  H
  C537     1.0000 0.24170  0.54190  0.95540  Biso   1.000  C
  C538     1.0000 0.22200  0.52360  0.93570  Biso   1.000  C
  C539     1.0000 0.24320  0.51170  0.91430  Biso   1.000  C
  C540     1.0000 0.28140  0.51870  0.91300  Biso   1.000  C
  H568     1.0000 0.29520  0.51010  0.89900  Biso   1.000  H
  C541     1.0000 0.29970  0.53800  0.93150  Biso   1.000  C
  C542     1.0000 0.27950  0.54860  0.95250  Biso   1.000  C
  H569     1.0000 0.29200  0.56090  0.96560  Biso   1.000  H
  C543     1.0000 0.22640  0.49390  0.89300  Biso   1.000  C
  H570     1.0000 0.24280  0.48630  0.88000  Biso   1.000  H
  N60      1.0000 0.19210  0.48720  0.88980  Biso   1.000  N
  O128     1.0000 0.18360  0.46900  0.86790  Biso   1.000  O
  O129     1.0000 0.18660  0.51890  0.93660  Biso   1.000  O
  C544     1.0000 0.34070  0.54650  0.92730  Biso   1.000  C
  C545     1.0000 0.35850  0.56310  0.95040  Biso   1.000  C
  H571     1.0000 0.35530  0.55060  0.96640  Biso   1.000  H
  H572     1.0000 0.34670  0.58360  0.95260  Biso   1.000  H
  H573     1.0000 0.38520  0.56590  0.94740  Biso   1.000  H
  C546     1.0000 0.36280  0.51600  0.92400  Biso   1.000  C
  H574     1.0000 0.35220  0.50420  0.90900  Biso   1.000  H
  H575     1.0000 0.36120  0.50330  0.94000  Biso   1.000  H
  H576     1.0000 0.38900  0.52090  0.92070  Biso   1.000  H
  C547     1.0000 0.34390  0.56380  0.90110  Biso   1.000  C
  H577     1.0000 0.33170  0.55150  0.88710  Biso   1.000  H
  H578     1.0000 0.37040  0.56660  0.89720  Biso   1.000  H
  H579     1.0000 0.33180  0.58430  0.90230  Biso   1.000  H
  C548     1.0000 0.08440  0.35030  0.00090  Biso   1.000  C
  H580     1.0000 0.08260  0.34790  0.98170  Biso   1.000  H
  H581     1.0000 0.06540  0.36510  0.00660  Biso   1.000  H
  H582     1.0000 0.08050  0.33000  0.00930  Biso   1.000  H
  C549     1.0000 0.15180  0.33820  0.00100  Biso   1.000  C
  H583     1.0000 0.15140  0.33620  0.98170  Biso   1.000  H
  H584     1.0000 0.14510  0.31810  0.00880  Biso   1.000  H
  H585     1.0000 0.17690  0.34430  0.00720  Biso   1.000  H
  C550     1.0000 0.12460  0.36600  0.03860  Biso   1.000  C
  H586     1.0000 0.10660  0.38200  0.04370  Biso   1.000  H
  H587     1.0000 0.14970  0.37200  0.04480  Biso   1.000  H
  H588     1.0000 0.11790  0.34590  0.04640  Biso   1.000  H
  C551     1.0000 0.70000  0.52020  0.67090  Biso   1.000  C
  H589     1.0000 0.69210  0.54170  0.67430  Biso   1.000  H
  H590     1.0000 0.67840  0.50620  0.67180  Biso   1.000  H
  H591     1.0000 0.71040  0.51890  0.65330  Biso   1.000  H
  C552     1.0000 0.74020  0.47710  0.68480  Biso   1.000  C
  H592     1.0000 0.75230  0.47690  0.66770  Biso   1.000  H
  H593     1.0000 0.71740  0.46430  0.68360  Biso   1.000  H
  H594     1.0000 0.75720  0.46840  0.69830  Biso   1.000  H
  C553     1.0000 0.71120  0.51170  0.71830  Biso   1.000  C
  H595     1.0000 0.70510  0.53350  0.72230  Biso   1.000  H
  H596     1.0000 0.72800  0.50330  0.73210  Biso   1.000  H
  H597     1.0000 0.68820  0.49920  0.71740  Biso   1.000  H
  C554     1.0000 0.95580  0.71010  0.57170  Biso   1.000  C
  H598     1.0000 0.93430  0.72130  0.57870  Biso   1.000  H
  H599     1.0000 0.96090  0.71790  0.55400  Biso   1.000  H
  H600     1.0000 0.97770  0.71370  0.58330  Biso   1.000  H
  C555     1.0000 0.98010  0.65670  0.55970  Biso   1.000  C
  H601     1.0000 0.97380  0.63440  0.55910  Biso   1.000  H
  H602     1.0000 0.00220  0.65980  0.57120  Biso   1.000  H
  H603     1.0000 0.98530  0.66400  0.54190  Biso   1.000  H
  C556     1.0000 0.91570  0.67000  0.54950  Biso   1.000  C
  H604     1.0000 0.90970  0.64770  0.54830  Biso   1.000  H
  H605     1.0000 0.92390  0.67750  0.53230  Biso   1.000  H
  H606     1.0000 0.89340  0.68170  0.55450  Biso   1.000  H
  C557     1.0000 0.92850  0.63990  0.79960  Biso   1.000  C
  C558     1.0000 0.92860  0.63770  0.82970  Biso   1.000  C
  C559     1.0000 0.91700  0.66830  0.84200  Biso   1.000  C
  H607     1.0000 0.89220  0.67430  0.83510  Biso   1.000  H
  H608     1.0000 0.93510  0.68460  0.83770  Biso   1.000  H
  H609     1.0000 0.91620  0.66590  0.86120  Biso   1.000  H
  C560     1.0000 0.96690  0.62600  0.83900  Biso   1.000  C
  H610     1.0000 0.97240  0.60620  0.83030  Biso   1.000  H
  H611     1.0000 0.96700  0.62280  0.85810  Biso   1.000  H
  H612     1.0000 0.98590  0.64150  0.83470  Biso   1.000  H
  C561     1.0000 0.89990  0.61420  0.84010  Biso   1.000  C
  H613     1.0000 0.90510  0.59340  0.83310  Biso   1.000  H
  H614     1.0000 0.87470  0.62070  0.83440  Biso   1.000  H
  H615     1.0000 0.90160  0.61370  0.85940  Biso   1.000  H
  Zn31     1.0000 0.88589  0.09147  0.69797  Biso   1.000  Zn
  Zn32     1.0000 0.93392  0.14706  0.69631  Biso   1.000  Zn
  Zn33     1.0000 0.35748  0.14415  0.69508  Biso   1.000  Zn
  Zn34     1.0000 0.41014  0.09176  0.69212  Biso   1.000  Zn
  Zn35     1.0000 0.64387  0.02532  0.96581  Biso   1.000  Zn
  Zn36     1.0000 0.64425  0.99110  0.91570  Biso   1.000  Zn
  Zn37     1.0000 0.60391  0.87672  0.71151  Biso   1.000  Zn
  Zn38     1.0000 0.65309  0.91760  0.67263  Biso   1.000  Zn
  Zn39     1.0000 0.69219  0.87436  0.71532  Biso   1.000  Zn
  Zn40     1.0000 0.64734  0.84527  0.66586  Biso   1.000  Zn
  O130     1.0000 0.64930  0.87779  0.69211  Biso   1.000  O
  C562     1.0000 0.01160  0.23448  0.69444  Biso   1.000  C
  C563     1.0000 0.01000  0.25859  0.71315  Biso   1.000  C
  H616     1.0000 0.99310  0.25660  0.72710  Biso   1.000  H
  C564     1.0000 0.03210  0.28507  0.71208  Biso   1.000  C
  H617     1.0000 0.03070  0.30050  0.72550  Biso   1.000  H
  C565     1.0000 0.05640  0.28920  0.69163  Biso   1.000  C
  C566     1.0000 0.05920  0.26552  0.67305  Biso   1.000  C
  H618     1.0000 0.07590  0.26780  0.65900  Biso   1.000  H
  C567     1.0000 0.03780  0.23867  0.67476  Biso   1.000  C
  H619     1.0000 0.04100  0.22250  0.66220  Biso   1.000  H
  B19      1.0000 0.98520  0.20420  0.69530  Biso   1.000  B
  O131     1.0000 0.95397  0.21038  0.67588  Biso   1.000  O
  N61      1.0000 0.92810  0.18698  0.67229  Biso   1.000  N
  C568     1.0000 0.90470  0.19270  0.65390  Biso   1.000  C
  H620     1.0000 0.90720  0.21230  0.64530  Biso   1.000  H
  C569     1.0000 0.87460  0.17280  0.64430  Biso   1.000  C
  C570     1.0000 0.86600  0.14370  0.65650  Biso   1.000  C
  C571     1.0000 0.83460  0.12680  0.64510  Biso   1.000  C
  C572     1.0000 0.81540  0.13740  0.62250  Biso   1.000  C
  H621     1.0000 0.79570  0.12510  0.61510  Biso   1.000  H
  C573     1.0000 0.82460  0.16540  0.61060  Biso   1.000  C
  C574     1.0000 0.85410  0.18250  0.62190  Biso   1.000  C
  H622     1.0000 0.86060  0.20180  0.61390  Biso   1.000  H
  C575     1.0000 0.82250  0.09790  0.65630  Biso   1.000  C
  H623     1.0000 0.79980  0.08940  0.64940  Biso   1.000  H
  N62      1.0000 0.83890  0.08240  0.67440  Biso   1.000  N
  O132     1.0000 0.81930  0.05563  0.67939  Biso   1.000  O
  B20      1.0000 0.83460  0.03380  0.69900  Biso   1.000  B
  O133     1.0000 0.00798  0.17785  0.68672  Biso   1.000  O
  N63      1.0000 0.99050  0.14845  0.68704  Biso   1.000  N
  C576     1.0000 0.01330  0.12688  0.68160  Biso   1.000  C
  H624     1.0000 0.03810  0.13320  0.67810  Biso   1.000  H
  C577     1.0000 0.00570  0.09331  0.68020  Biso   1.000  C
  C578     1.0000 0.96950  0.08084  0.68380  Biso   1.000  C
  C579     1.0000 0.96580  0.04799  0.68230  Biso   1.000  C
  C580     1.0000 0.99770  0.02900  0.67900  Biso   1.000  C
  H625     1.0000 0.99470  0.00700  0.67900  Biso   1.000  H
  C581     1.0000 0.03320  0.04125  0.67570  Biso   1.000  C
  C582     1.0000 0.03560  0.07364  0.67530  Biso   1.000  C
  H626     1.0000 0.05890  0.08290  0.67140  Biso   1.000  H
  C583     1.0000 0.93110  0.03120  0.68590  Biso   1.000  C
  H627     1.0000 0.93140  0.00910  0.68390  Biso   1.000  H
  N64      1.0000 0.90040  0.04403  0.69160  Biso   1.000  N
  O134     1.0000 0.87154  0.02155  0.69392  Biso   1.000  O
  O135     1.0000 0.97249  0.20150  0.72213  Biso   1.000  O
  N65      1.0000 0.94820  0.17757  0.72748  Biso   1.000  N
  C584     1.0000 0.93840  0.17863  0.75124  Biso   1.000  C
  H628     1.0000 0.94930  0.19460  0.76200  Biso   1.000  H
  C585     1.0000 0.91190  0.15768  0.76364  Biso   1.000  C
  C586     1.0000 0.89640  0.13124  0.75007  Biso   1.000  C
  C587     1.0000 0.87060  0.11233  0.76430  Biso   1.000  C
  C588     1.0000 0.86100  0.12100  0.78976  Biso   1.000  C
  H629     1.0000 0.84320  0.10860  0.79850  Biso   1.000  H
  C589     1.0000 0.87590  0.14660  0.80294  Biso   1.000  C
  C590     1.0000 0.90180  0.16460  0.78961  Biso   1.000  C
  H630     1.0000 0.91300  0.18210  0.79830  Biso   1.000  H
  C591     1.0000 0.85310  0.08470  0.75307  Biso   1.000  C
  H631     1.0000 0.83790  0.07280  0.76440  Biso   1.000  H
  N66      1.0000 0.85600  0.07460  0.72976  Biso   1.000  N
  O136     1.0000 0.83420  0.04780  0.72571  Biso   1.000  O
  C592     1.0000 0.80510  0.00597  0.69999  Biso   1.000  C
  C593     1.0000 0.75200  0.95689  0.70178  Biso   1.000  C
  C594     1.0000 0.08020  0.31810  0.69002  Biso   1.000  C
  O137     1.0000 0.07731  0.33762  0.70815  Biso   1.000  O
  O138     1.0000 0.10243  0.31897  0.67120  Biso   1.000  O
  O139     1.0000 0.88340  0.13417  0.67686  Biso   1.000  O
  C595     1.0000 0.80370  0.17740  0.58590  Biso   1.000  C
  O140     1.0000 0.94134  0.09916  0.68847  Biso   1.000  O
  C596     1.0000 0.06800  0.02050  0.67340  Biso   1.000  C
  C597     1.0000 0.09420  0.02360  0.69870  Biso   1.000  C
  H632     1.0000 0.08130  0.01540  0.71400  Biso   1.000  H
  H633     1.0000 0.10060  0.04560  0.70160  Biso   1.000  H
  H634     1.0000 0.11710  0.01150  0.69620  Biso   1.000  H
  C598     1.0000 0.09400  0.03410  0.65420  Biso   1.000  C
  H635     1.0000 0.09690  0.05650  0.65770  Biso   1.000  H
  H636     1.0000 0.08390  0.03100  0.63630  Biso   1.000  H
  H637     1.0000 0.11830  0.02380  0.65610  Biso   1.000  H
  C599     1.0000 0.05810  0.98640  0.67290  Biso   1.000  C
  H638     1.0000 0.04070  0.98190  0.68700  Biso   1.000  H
  H639     1.0000 0.08080  0.97390  0.67560  Biso   1.000  H
  H640     1.0000 0.04640  0.98110  0.65580  Biso   1.000  H
  O141     1.0000 0.90533  0.12397  0.72612  Biso   1.000  O
  C600     1.0000 0.86420  0.15510  0.83082  Biso   1.000  C
  C601     1.0000 0.72370  0.93161  0.70370  Biso   1.000  C
  O142     1.0000 0.69085  0.93858  0.69611  Biso   1.000  O
  O143     1.0000 0.73229  0.90515  0.71289  Biso   1.000  O
  C602     1.0000 0.77590  0.00340  0.68090  Biso   1.000  C
  H641     1.0000 0.77410  0.01820  0.66710  Biso   1.000  H
  C603     1.0000 0.74970  0.97960  0.68200  Biso   1.000  C
  H642     1.0000 0.73000  0.97870  0.66920  Biso   1.000  H
  C604     1.0000 0.78140  0.95820  0.72010  Biso   1.000  C
  H643     1.0000 0.78400  0.94260  0.73330  Biso   1.000  H
  C605     1.0000 0.80680  0.98250  0.71890  Biso   1.000  C
  H644     1.0000 0.82660  0.98310  0.73170  Biso   1.000  H
  C606     1.0000 0.89430  0.15090  0.85160  Biso   1.000  C
  H645     1.0000 0.91770  0.16000  0.84540  Biso   1.000  H
  H646     1.0000 0.89790  0.12860  0.85510  Biso   1.000  H
  H647     1.0000 0.88700  0.16150  0.86780  Biso   1.000  H
  C607     1.0000 0.85670  0.19130  0.83150  Biso   1.000  C
  H648     1.0000 0.83710  0.19660  0.81850  Biso   1.000  H
  H649     1.0000 0.87970  0.20260  0.82750  Biso   1.000  H
  H650     1.0000 0.84870  0.19730  0.84910  Biso   1.000  H
  C608     1.0000 0.82680  0.14180  0.83850  Biso   1.000  C
  H651     1.0000 0.80850  0.14530  0.82410  Biso   1.000  H
  H652     1.0000 0.81850  0.15220  0.85440  Biso   1.000  H
  H653     1.0000 0.82940  0.11930  0.84180  Biso   1.000  H
  C609     1.0000 0.82890  0.17500  0.56200  Biso   1.000  C
  H654     1.0000 0.85230  0.18620  0.56570  Biso   1.000  H
  H655     1.0000 0.81610  0.18440  0.54660  Biso   1.000  H
  H656     1.0000 0.83420  0.15300  0.55830  Biso   1.000  H
  C610     1.0000 0.76720  0.16020  0.58030  Biso   1.000  C
  H657     1.0000 0.75510  0.16870  0.56430  Biso   1.000  H
  H658     1.0000 0.75070  0.16280  0.59520  Biso   1.000  H
  H659     1.0000 0.77230  0.13790  0.57770  Biso   1.000  H
  C611     1.0000 0.79600  0.21260  0.58930  Biso   1.000  C
  H660     1.0000 0.81960  0.22360  0.59290  Biso   1.000  H
  H661     1.0000 0.77930  0.21570  0.60400  Biso   1.000  H
  H662     1.0000 0.78420  0.22080  0.57310  Biso   1.000  H
  C612     1.0000 0.64040  0.07830  0.04612  Biso   1.000  C
  C613     1.0000 0.63730  0.10630  0.09645  Biso   1.000  C
  B21      1.0000 0.64360  0.06110  0.01853  Biso   1.000  B
  O144     1.0000 0.64180  0.02801  0.02490  Biso   1.000  O
  N67      1.0000 0.63950  0.00660  0.00412  Biso   1.000  N
  C614     1.0000 0.63800  0.97870  0.01192  Biso   1.000  C
  H663     1.0000 0.63820  0.97540  0.03040  Biso   1.000  H
  C615     1.0000 0.63600  0.95113  0.99532  Biso   1.000  C
  C616     1.0000 0.63700  0.95230  0.96725  Biso   1.000  C
  C617     1.0000 0.63400  0.92330  0.95350  Biso   1.000  C
  C618     1.0000 0.62920  0.89580  0.96792  Biso   1.000  C
  H664     1.0000 0.62600  0.87680  0.95840  Biso   1.000  H
  C619     1.0000 0.62890  0.89440  0.99478  Biso   1.000  C
  C620     1.0000 0.63180  0.92220  0.00830  Biso   1.000  C
  H665     1.0000 0.63090  0.92200  0.02700  Biso   1.000  H
  C621     1.0000 0.63590  0.92060  0.92539  Biso   1.000  C
  H666     1.0000 0.63390  0.90000  0.91840  Biso   1.000  H
  N68      1.0000 0.63980  0.94228  0.90880  Biso   1.000  N
  O145     1.0000 0.64070  0.93165  0.88337  Biso   1.000  O
  B22      1.0000 0.64570  0.95540  0.86304  Biso   1.000  B
  O146     1.0000 0.61120  0.07154  0.00317  Biso   1.000  O
  N69      1.0000 0.60520  0.05840  0.97851  Biso   1.000  N
  C622     1.0000 0.57270  0.06450  0.96934  Biso   1.000  C
  H667     1.0000 0.55710  0.07720  0.97980  Biso   1.000  H
  C623     1.0000 0.55770  0.05380  0.94447  Biso   1.000  C
  C624     1.0000 0.57800  0.03570  0.92574  Biso   1.000  C
  C625     1.0000 0.55810  0.02680  0.90216  Biso   1.000  C
  C626     1.0000 0.52030  0.03450  0.89872  Biso   1.000  C
  H668     1.0000 0.50750  0.02780  0.88310  Biso   1.000  H
  C627     1.0000 0.50050  0.05160  0.91702  Biso   1.000  C
  C628     1.0000 0.51990  0.06100  0.93926  Biso   1.000  C
  H669     1.0000 0.50700  0.07310  0.95180  Biso   1.000  H
  C629     1.0000 0.57480  0.00800  0.88172  Biso   1.000  C
  H670     1.0000 0.56100  0.00560  0.86560  Biso   1.000  H
  N70      1.0000 0.60630  0.99458  0.88373  Biso   1.000  N
  O147     1.0000 0.61470  0.97881  0.86128  Biso   1.000  O
  C630     1.0000 0.64580  0.93780  0.83514  Biso   1.000  C
  C631     1.0000 0.61370  0.93590  0.81886  Biso   1.000  C
  H671     1.0000 0.59150  0.94590  0.82420  Biso   1.000  H
  C632     1.0000 0.61360  0.91970  0.79512  Biso   1.000  C
  H672     1.0000 0.59120  0.91790  0.78480  Biso   1.000  H
  C633     1.0000 0.64620  0.90612  0.78644  Biso   1.000  C
  C634     1.0000 0.67860  0.90840  0.80171  Biso   1.000  C
  H673     1.0000 0.70100  0.89910  0.79600  Biso   1.000  H
  C635     1.0000 0.67810  0.92430  0.82556  Biso   1.000  C
  H674     1.0000 0.70070  0.92610  0.83570  Biso   1.000  H
  C636     1.0000 0.63650  0.11920  0.12373  Biso   1.000  C
  O148     1.0000 0.64858  0.14647  0.12776  Biso   1.000  O
  O149     1.0000 0.62000  0.10440  0.14072  Biso   1.000  O
  O150     1.0000 0.63790  0.97838  0.95522  Biso   1.000  O
  C637     1.0000 0.62400  0.86300  0.00890  Biso   1.000  C
  O151     1.0000 0.61220  0.02853  0.92989  Biso   1.000  O
  C638     1.0000 0.45930  0.06080  0.91330  Biso   1.000  C
  C639     1.0000 0.45430  0.09660  0.91570  Biso   1.000  C
  H675     1.0000 0.46430  0.10370  0.93280  Biso   1.000  H
  H676     1.0000 0.42780  0.10190  0.91400  Biso   1.000  H
  H677     1.0000 0.46790  0.10700  0.90160  Biso   1.000  H
  C640     1.0000 0.43670  0.04620  0.93550  Biso   1.000  C
  H678     1.0000 0.44770  0.05230  0.95260  Biso   1.000  H
  H679     1.0000 0.43710  0.02340  0.93390  Biso   1.000  H
  H680     1.0000 0.41080  0.05360  0.93420  Biso   1.000  H
  C641     1.0000 0.44340  0.05210  0.88670  Biso   1.000  C
  H681     1.0000 0.45840  0.06180  0.87300  Biso   1.000  H
  H682     1.0000 0.41760  0.05960  0.88500  Biso   1.000  H
  H683     1.0000 0.44390  0.02930  0.88470  Biso   1.000  H
  C642     1.0000 0.64640  0.89016  0.76006  Biso   1.000  C
  O152     1.0000 0.61526  0.88711  0.74811  Biso   1.000  O
  O153     1.0000 0.67775  0.88083  0.75214  Biso   1.000  O
  O154     1.0000 0.67480  0.07380  0.00320  Biso   1.000  O
  C643     1.0000 0.65200  0.12230  0.07560  Biso   1.000  C
  H684     1.0000 0.66120  0.14290  0.07810  Biso   1.000  H
  C644     1.0000 0.65350  0.10840  0.05100  Biso   1.000  C
  H685     1.0000 0.66380  0.11990  0.03690  Biso   1.000  H
  C645     1.0000 0.62410  0.06300  0.06740  Biso   1.000  C
  H686     1.0000 0.61360  0.04290  0.06460  Biso   1.000  H
  C646     1.0000 0.62270  0.07610  0.09230  Biso   1.000  C
  H687     1.0000 0.61210  0.06480  0.10630  Biso   1.000  H
  N71      1.0000 0.68210  0.05830  0.98070  Biso   1.000  N
  C647     1.0000 0.71130  0.06950  0.97080  Biso   1.000  C
  H688     1.0000 0.72420  0.08560  0.98030  Biso   1.000  H
  C648     1.0000 0.72630  0.05950  0.94600  Biso   1.000  C
  C649     1.0000 0.70920  0.03650  0.92900  Biso   1.000  C
  C650     1.0000 0.72630  0.03080  0.90430  Biso   1.000  C
  C651     1.0000 0.75900  0.04680  0.89770  Biso   1.000  C
  H689     1.0000 0.76950  0.04310  0.88100  Biso   1.000  H
  C652     1.0000 0.77600  0.06770  0.91480  Biso   1.000  C
  C653     1.0000 0.75940  0.07380  0.93840  Biso   1.000  C
  H690     1.0000 0.77100  0.08840  0.95010  Biso   1.000  H
  C654     1.0000 0.71200  0.00900  0.88480  Biso   1.000  C
  H691     1.0000 0.72570  0.00700  0.86910  Biso   1.000  H
  N72      1.0000 0.68300  0.99230  0.88660  Biso   1.000  N
  O155     1.0000 0.67810  0.97560  0.86390  Biso   1.000  O
  O156     1.0000 0.68070  0.02170  0.93590  Biso   1.000  O
  C655     1.0000 0.81280  0.08340  0.90770  Biso   1.000  C
  C656     1.0000 0.80360  0.11830  0.90770  Biso   1.000  C
  H692     1.0000 0.79660  0.12480  0.92540  Biso   1.000  H
  H693     1.0000 0.78280  0.12240  0.89520  Biso   1.000  H
  H694     1.0000 0.82550  0.13020  0.90240  Biso   1.000  H
  C657     1.0000 0.84350  0.07560  0.92790  Biso   1.000  C
  H695     1.0000 0.83590  0.08250  0.94540  Biso   1.000  H
  H696     1.0000 0.86650  0.08650  0.92330  Biso   1.000  H
  H697     1.0000 0.84780  0.05300  0.92810  Biso   1.000  H
  C658     1.0000 0.82380  0.07310  0.88040  Biso   1.000  C
  H698     1.0000 0.80370  0.07830  0.86770  Biso   1.000  H
  H699     1.0000 0.82800  0.05050  0.88040  Biso   1.000  H
  H700     1.0000 0.84670  0.08390  0.87560  Biso   1.000  H
  C659     1.0000 0.27570  0.22874  0.69831  Biso   1.000  C
  C660     1.0000 0.28090  0.25323  0.71620  Biso   1.000  C
  H701     1.0000 0.30010  0.25130  0.72930  Biso   1.000  H
  C661     1.0000 0.25950  0.27994  0.71580  Biso   1.000  C
  H702     1.0000 0.26370  0.29580  0.72870  Biso   1.000  H
  C662     1.0000 0.23160  0.28364  0.69642  Biso   1.000  C
  C663     1.0000 0.22480  0.25940  0.67872  Biso   1.000  C
  H703     1.0000 0.20530  0.26110  0.66570  Biso   1.000  H
  C664     1.0000 0.24650  0.23282  0.68018  Biso   1.000  C
  H704     1.0000 0.24110  0.21640  0.66810  Biso   1.000  H
  B23      1.0000 0.30300  0.19900  0.69790  Biso   1.000  B
  O157     1.0000 0.27920  0.17068  0.69656  Biso   1.000  O
  N73      1.0000 0.29840  0.14175  0.69460  Biso   1.000  N
  C665     1.0000 0.27610  0.11870  0.69490  Biso   1.000  C
  H705     1.0000 0.25030  0.12320  0.69680  Biso   1.000  H
  C666     1.0000 0.28660  0.08624  0.69279  Biso   1.000  C
  C667     1.0000 0.32390  0.07626  0.68964  Biso   1.000  C
  C668     1.0000 0.32978  0.04342  0.68668  Biso   1.000  C
  C669     1.0000 0.29925  0.02243  0.68702  Biso   1.000  C
  H706     1.0000 0.30380  0.00070  0.68500  Biso   1.000  H
  C670     1.0000 0.26308  0.03269  0.69016  Biso   1.000  C
  C671     1.0000 0.25740  0.06469  0.69270  Biso   1.000  C
  H707     1.0000 0.23270  0.07220  0.69440  Biso   1.000  H
  C672     1.0000 0.36685  0.02971  0.68506  Biso   1.000  C
  H708     1.0000 0.36780  0.00780  0.68220  Biso   1.000  H
  N74      1.0000 0.39797  0.04355  0.68698  Biso   1.000  N
  O158     1.0000 0.42785  0.02338  0.68552  Biso   1.000  O
  B24      1.0000 0.46570  0.03700  0.68900  Biso   1.000  B
  O159     1.0000 0.32360  0.20378  0.67433  Biso   1.000  O
  N75      1.0000 0.35140  0.18200  0.66957  Biso   1.000  N
  C673     1.0000 0.36750  0.18790  0.64820  Biso   1.000  C
  H709     1.0000 0.35940  0.20610  0.63900  Biso   1.000  H
  C674     1.0000 0.39670  0.16980  0.63654  Biso   1.000  C
  C675     1.0000 0.41190  0.14240  0.64841  Biso   1.000  C
  C676     1.0000 0.43870  0.12564  0.63328  Biso   1.000  C
  C677     1.0000 0.44930  0.13650  0.60865  Biso   1.000  C
  H710     1.0000 0.46740  0.12500  0.59930  Biso   1.000  H
  C678     1.0000 0.43450  0.16340  0.59725  Biso   1.000  C
  C679     1.0000 0.40870  0.17930  0.61190  Biso   1.000  C
  H711     1.0000 0.39840  0.19800  0.60470  Biso   1.000  H
  C680     1.0000 0.45590  0.09709  0.64246  Biso   1.000  C
  H712     1.0000 0.47290  0.08760  0.63090  Biso   1.000  H
  N76      1.0000 0.45120  0.08319  0.66396  Biso   1.000  N
  O160     1.0000 0.47453  0.05828  0.66732  Biso   1.000  O
  O161     1.0000 0.32470  0.19989  0.72242  Biso   1.000  O
  N77      1.0000 0.35030  0.17560  0.72597  Biso   1.000  N
  C681     1.0000 0.36510  0.17640  0.74880  Biso   1.000  C
  H713     1.0000 0.35650  0.19250  0.76000  Biso   1.000  H
  C682     1.0000 0.39320  0.15590  0.76007  Biso   1.000  C
  C683     1.0000 0.40800  0.13040  0.74513  Biso   1.000  C
  C684     1.0000 0.43460  0.11090  0.75843  Biso   1.000  C
  C685     1.0000 0.44540  0.11720  0.78459  Biso   1.000  C
  C686     1.0000 0.40560  0.16060  0.78597  Biso   1.000  C
  C687     1.0000 0.45210  0.08390  0.74598  Biso   1.000  C
  H714     1.0000 0.46740  0.07090  0.75690  Biso   1.000  H
  N78      1.0000 0.44860  0.07657  0.72179  Biso   1.000  N
  O162     1.0000 0.47180  0.05159  0.71524  Biso   1.000  O
  C688     1.0000 0.49466  0.00858  0.68908  Biso   1.000  C
  C689     1.0000 0.48850  0.98039  0.70200  Biso   1.000  C
  H715     1.0000 0.46540  0.97730  0.71040  Biso   1.000  H
  C690     1.0000 0.51489  0.95678  0.70287  Biso   1.000  C
  H716     1.0000 0.50980  0.93780  0.71180  Biso   1.000  H
  C691     1.0000 0.54888  0.96076  0.69076  Biso   1.000  C
  C692     1.0000 0.55550  0.98800  0.67729  Biso   1.000  C
  H717     1.0000 0.57830  0.99070  0.66840  Biso   1.000  H
  C693     1.0000 0.52885  0.01151  0.67665  Biso   1.000  C
  H718     1.0000 0.53400  0.03030  0.66740  Biso   1.000  H
  C694     1.0000 0.21020  0.31350  0.69350  Biso   1.000  C
  O163     1.0000 0.21588  0.33349  0.71125  Biso   1.000  O
  O164     1.0000 0.18756  0.31551  0.67429  Biso   1.000  O
  O165     1.0000 0.35116  0.09579  0.68890  Biso   1.000  O
  C695     1.0000 0.23020  0.01017  0.69190  Biso   1.000  C
  O166     1.0000 0.40060  0.13215  0.67004  Biso   1.000  O
  C696     1.0000 0.44730  0.17510  0.57040  Biso   1.000  C
  O167     1.0000 0.39800  0.12589  0.72078  Biso   1.000  O
  C697     1.0000 0.57818  0.93564  0.69207  Biso   1.000  C
  O168     1.0000 0.56901  0.90965  0.70123  Biso   1.000  O
  O169     1.0000 0.60982  0.94250  0.68503  Biso   1.000  O
  C698     1.0000 0.43430  0.14370  0.79810  Biso   1.000  C
  C699     1.0000 0.22180  0.99000  0.66840  Biso   1.000  C
  H719     1.0000 0.24500  0.98120  0.66200  Biso   1.000  H
  H720     1.0000 0.20970  0.00260  0.65450  Biso   1.000  H
  H721     1.0000 0.20500  0.97300  0.67340  Biso   1.000  H
  C700     1.0000 0.24140  0.98730  0.71540  Biso   1.000  C
  H722     1.0000 0.24720  0.99960  0.73120  Biso   1.000  H
  H723     1.0000 0.26330  0.97510  0.71070  Biso   1.000  H
  H724     1.0000 0.22060  0.97320  0.71870  Biso   1.000  H
  C701     1.0000 0.19440  0.02380  0.70200  Biso   1.000  C
  H725     1.0000 0.20010  0.03700  0.71730  Biso   1.000  H
  H726     1.0000 0.17770  0.00690  0.70700  Biso   1.000  H
  H727     1.0000 0.18240  0.03650  0.68810  Biso   1.000  H
  C702     1.0000 0.42600  0.20340  0.55950  Biso   1.000  C
  H728     1.0000 0.42630  0.22010  0.57260  Biso   1.000  H
  H729     1.0000 0.40010  0.19740  0.55530  Biso   1.000  H
  H730     1.0000 0.43790  0.21070  0.54350  Biso   1.000  H
  C703     1.0000 0.48710  0.18740  0.57720  Biso   1.000  C
  H731     1.0000 0.50240  0.17030  0.58440  Biso   1.000  H
  H732     1.0000 0.48570  0.20420  0.59020  Biso   1.000  H
  H733     1.0000 0.49840  0.19550  0.56120  Biso   1.000  H
  C704     1.0000 0.44830  0.14760  0.55130  Biso   1.000  C
  H734     1.0000 0.46230  0.13030  0.55940  Biso   1.000  H
  H735     1.0000 0.46060  0.15420  0.53510  Biso   1.000  H
  H736     1.0000 0.42280  0.14080  0.54690  Biso   1.000  H
  C705     1.0000 0.45610  0.15630  0.82230  Biso   1.000  C
  C706     1.0000 0.44080  0.18700  0.83220  Biso   1.000  C
  H737     1.0000 0.44310  0.20300  0.81850  Biso   1.000  H
  H738     1.0000 0.45500  0.19350  0.84810  Biso   1.000  H
  H739     1.0000 0.41450  0.18440  0.83640  Biso   1.000  H
  C707     1.0000 0.45270  0.13120  0.84340  Biso   1.000  C
  H740     1.0000 0.46260  0.11140  0.83690  Biso   1.000  H
  H741     1.0000 0.42630  0.12850  0.84760  Biso   1.000  H
  H742     1.0000 0.46680  0.13760  0.85930  Biso   1.000  H
  C708     1.0000 0.49740  0.16230  0.81760  Biso   1.000  C
  H743     1.0000 0.50900  0.14310  0.81110  Biso   1.000  H
  H744     1.0000 0.50990  0.16870  0.83410  Biso   1.000  H
  H745     1.0000 0.49990  0.17890  0.80450  Biso   1.000  H
  C709     1.0000 0.59220  0.86370  0.02850  Biso   1.000  C
  H746     1.0000 0.59560  0.88170  0.04020  Biso   1.000  H
  H747     1.0000 0.59250  0.84440  0.03880  Biso   1.000  H
  H748     1.0000 0.56830  0.86560  0.01880  Biso   1.000  H
  C710     1.0000 0.61840  0.83480  0.99060  Biso   1.000  C
  H749     1.0000 0.63860  0.83410  0.97800  Biso   1.000  H
  H750     1.0000 0.59440  0.83670  0.98110  Biso   1.000  H
  H751     1.0000 0.61860  0.81560  0.00110  Biso   1.000  H
  C711     1.0000 0.66130  0.85600  0.02390  Biso   1.000  C
  H752     1.0000 0.66700  0.87310  0.03620  Biso   1.000  H
  H753     1.0000 0.68140  0.85410  0.01130  Biso   1.000  H
  H754     1.0000 0.65910  0.83640  0.03370  Biso   1.000  H
  C712     1.0000 0.76790  0.01050  0.69180  Biso   1.000  C
  H755     1.0000 0.76030  0.03040  0.68540  Biso   1.000  H
  C713     1.0000 0.74170  0.98670  0.69290  Biso   1.000  C
  H756     1.0000 0.71660  0.99060  0.68750  Biso   1.000  H
  C714     1.0000 0.78780  0.95280  0.71200  Biso   1.000  C
  H757     1.0000 0.79490  0.93340  0.71960  Biso   1.000  H
  C715     1.0000 0.81340  0.97700  0.71110  Biso   1.000  C
  H758     1.0000 0.83780  0.97370  0.71850  Biso   1.000  H
  C716     1.0000 0.88810  0.17960  0.84380  Biso   1.000  C
  H759     1.0000 0.91440  0.17350  0.84310  Biso   1.000  H
  H760     1.0000 0.88110  0.18190  0.86220  Biso   1.000  H
  H761     1.0000 0.88440  0.19960  0.83470  Biso   1.000  H
  C717     1.0000 0.82270  0.16230  0.83090  Biso   1.000  C
  H762     1.0000 0.80890  0.14530  0.82210  Biso   1.000  H
  H763     1.0000 0.81790  0.18200  0.82150  Biso   1.000  H
  H764     1.0000 0.81460  0.16420  0.84900  Biso   1.000  H
  C718     1.0000 0.87230  0.12560  0.84820  Biso   1.000  C
  H765     1.0000 0.85780  0.10790  0.84120  Biso   1.000  H
  H766     1.0000 0.86520  0.12980  0.86630  Biso   1.000  H
  H767     1.0000 0.89890  0.12060  0.84790  Biso   1.000  H
  O170     1.0000 0.68250  0.06320  0.00920  Biso   1.000  O
  C719     1.0000 0.61040  0.07370  0.06250  Biso   1.000  C
  H768     1.0000 0.59030  0.06090  0.05640  Biso   1.000  H
  C720     1.0000 0.60860  0.08700  0.08720  Biso   1.000  C
  H769     1.0000 0.58780  0.08300  0.09790  Biso   1.000  H
  C721     1.0000 0.66620  0.11360  0.07970  Biso   1.000  C
  H770     1.0000 0.68480  0.12830  0.08510  Biso   1.000  H
  C722     1.0000 0.66770  0.09940  0.05530  Biso   1.000  C
  H771     1.0000 0.68800  0.10410  0.04430  Biso   1.000  H
  N79      1.0000 0.69030  0.04860  0.98480  Biso   1.000  N
  C723     1.0000 0.72420  0.05300  0.97920  Biso   1.000  C
  H772     1.0000 0.73940  0.06440  0.99150  Biso   1.000  H
  C724     1.0000 0.74170  0.04190  0.95540  Biso   1.000  C
  C725     1.0000 0.72200  0.02360  0.93570  Biso   1.000  C
  C726     1.0000 0.74320  0.01170  0.91430  Biso   1.000  C
  C727     1.0000 0.78140  0.01870  0.91300  Biso   1.000  C
  H773     1.0000 0.79520  0.01010  0.89900  Biso   1.000  H
  C728     1.0000 0.79970  0.03800  0.93150  Biso   1.000  C
  C729     1.0000 0.77950  0.04860  0.95250  Biso   1.000  C
  H774     1.0000 0.79200  0.06090  0.96560  Biso   1.000  H
  C730     1.0000 0.72640  0.99390  0.89300  Biso   1.000  C
  H775     1.0000 0.74280  0.98630  0.88000  Biso   1.000  H
  N80      1.0000 0.69210  0.98720  0.88980  Biso   1.000  N
  O171     1.0000 0.68360  0.96900  0.86790  Biso   1.000  O
  O172     1.0000 0.68660  0.01890  0.93660  Biso   1.000  O
  C731     1.0000 0.84070  0.04650  0.92730  Biso   1.000  C
  C732     1.0000 0.85850  0.06310  0.95040  Biso   1.000  C
  H776     1.0000 0.85530  0.05060  0.96640  Biso   1.000  H
  H777     1.0000 0.84670  0.08360  0.95260  Biso   1.000  H
  H778     1.0000 0.88520  0.06590  0.94740  Biso   1.000  H
  C733     1.0000 0.86280  0.01600  0.92400  Biso   1.000  C
  H779     1.0000 0.85220  0.00420  0.90900  Biso   1.000  H
  H780     1.0000 0.86120  0.00330  0.94000  Biso   1.000  H
  H781     1.0000 0.88900  0.02090  0.92070  Biso   1.000  H
  C734     1.0000 0.84390  0.06380  0.90110  Biso   1.000  C
  H782     1.0000 0.83170  0.05150  0.88710  Biso   1.000  H
  H783     1.0000 0.87040  0.06660  0.89720  Biso   1.000  H
  H784     1.0000 0.83180  0.08430  0.90230  Biso   1.000  H
  C735     1.0000 0.58440  0.85030  0.00090  Biso   1.000  C
  H785     1.0000 0.58260  0.84790  0.98170  Biso   1.000  H
  H786     1.0000 0.56540  0.86510  0.00660  Biso   1.000  H
  H787     1.0000 0.58050  0.83000  0.00930  Biso   1.000  H
  C736     1.0000 0.65180  0.83820  0.00100  Biso   1.000  C
  H788     1.0000 0.65140  0.83620  0.98170  Biso   1.000  H
  H789     1.0000 0.64510  0.81810  0.00880  Biso   1.000  H
  H790     1.0000 0.67690  0.84430  0.00720  Biso   1.000  H
  C737     1.0000 0.62460  0.86600  0.03860  Biso   1.000  C
  H791     1.0000 0.60660  0.88200  0.04370  Biso   1.000  H
  H792     1.0000 0.64970  0.87200  0.04480  Biso   1.000  H
  H793     1.0000 0.61790  0.84590  0.04640  Biso   1.000  H
  C738     1.0000 0.20000  0.02020  0.67090  Biso   1.000  C
  H794     1.0000 0.19210  0.04170  0.67430  Biso   1.000  H
  H795     1.0000 0.17840  0.00620  0.67180  Biso   1.000  H
  H796     1.0000 0.21040  0.01890  0.65330  Biso   1.000  H
  C739     1.0000 0.24020  0.97710  0.68480  Biso   1.000  C
  H797     1.0000 0.25230  0.97690  0.66770  Biso   1.000  H
  H798     1.0000 0.21740  0.96430  0.68360  Biso   1.000  H
  H799     1.0000 0.25720  0.96840  0.69830  Biso   1.000  H
  C740     1.0000 0.21120  0.01170  0.71830  Biso   1.000  C
  H800     1.0000 0.20510  0.03350  0.72230  Biso   1.000  H
  H801     1.0000 0.22800  0.00330  0.73210  Biso   1.000  H
  H802     1.0000 0.18820  0.99920  0.71740  Biso   1.000  H
  C741     1.0000 0.45580  0.21010  0.57170  Biso   1.000  C
  H803     1.0000 0.43430  0.22130  0.57870  Biso   1.000  H
  H804     1.0000 0.46090  0.21790  0.55400  Biso   1.000  H
  H805     1.0000 0.47770  0.21370  0.58330  Biso   1.000  H
  C742     1.0000 0.48010  0.15670  0.55970  Biso   1.000  C
  H806     1.0000 0.47380  0.13440  0.55910  Biso   1.000  H
  H807     1.0000 0.50220  0.15980  0.57120  Biso   1.000  H
  H808     1.0000 0.48530  0.16400  0.54190  Biso   1.000  H
  C743     1.0000 0.41570  0.17000  0.54950  Biso   1.000  C
  H809     1.0000 0.40970  0.14770  0.54830  Biso   1.000  H
  H810     1.0000 0.42390  0.17750  0.53230  Biso   1.000  H
  H811     1.0000 0.39340  0.18170  0.55450  Biso   1.000  H
  C744     1.0000 0.42850  0.13990  0.79960  Biso   1.000  C
  C745     1.0000 0.42860  0.13770  0.82970  Biso   1.000  C
  C746     1.0000 0.41700  0.16830  0.84200  Biso   1.000  C
  H812     1.0000 0.39220  0.17430  0.83510  Biso   1.000  H
  H813     1.0000 0.43510  0.18460  0.83770  Biso   1.000  H
  H814     1.0000 0.41620  0.16590  0.86120  Biso   1.000  H
  C747     1.0000 0.46690  0.12600  0.83900  Biso   1.000  C
  H815     1.0000 0.47240  0.10620  0.83030  Biso   1.000  H
  H816     1.0000 0.46700  0.12280  0.85810  Biso   1.000  H
  H817     1.0000 0.48590  0.14150  0.83470  Biso   1.000  H
  C748     1.0000 0.39990  0.11420  0.84010  Biso   1.000  C
  H818     1.0000 0.40510  0.09340  0.83310  Biso   1.000  H
  H819     1.0000 0.37470  0.12070  0.83440  Biso   1.000  H
  H820     1.0000 0.40160  0.11370  0.85940  Biso   1.000  H
  Zn41     1.0000 0.61411  0.40853  0.30203  Biso   1.000  Zn
  Zn42     1.0000 0.56608  0.35294  0.30369  Biso   1.000  Zn
  Zn43     1.0000 0.14252  0.35585  0.30492  Biso   1.000  Zn
  Zn44     1.0000 0.08986  0.40824  0.30788  Biso   1.000  Zn
  Zn45     1.0000 0.85613  0.47468  0.03419  Biso   1.000  Zn
  Zn46     1.0000 0.85575  0.50890  0.08430  Biso   1.000  Zn
  Zn47     1.0000 0.89609  0.62328  0.28849  Biso   1.000  Zn
  Zn48     1.0000 0.84691  0.58240  0.32737  Biso   1.000  Zn
  Zn49     1.0000 0.80781  0.62564  0.28468  Biso   1.000  Zn
  Zn50     1.0000 0.85266  0.65473  0.33414  Biso   1.000  Zn
  O173     1.0000 0.85070  0.62221  0.30789  Biso   1.000  O
  C749     1.0000 0.48840  0.26552  0.30556  Biso   1.000  C
  C750     1.0000 0.49000  0.24141  0.28685  Biso   1.000  C
  H821     1.0000 0.50690  0.24340  0.27290  Biso   1.000  H
  C751     1.0000 0.46790  0.21493  0.28792  Biso   1.000  C
  H822     1.0000 0.46930  0.19950  0.27450  Biso   1.000  H
  C752     1.0000 0.44360  0.21080  0.30837  Biso   1.000  C
  C753     1.0000 0.44080  0.23448  0.32695  Biso   1.000  C
  H823     1.0000 0.42410  0.23220  0.34100  Biso   1.000  H
  C754     1.0000 0.46220  0.26133  0.32524  Biso   1.000  C
  H824     1.0000 0.45900  0.27750  0.33780  Biso   1.000  H
  B25      1.0000 0.51480  0.29580  0.30470  Biso   1.000  B
  O174     1.0000 0.54603  0.28962  0.32412  Biso   1.000  O
  N81      1.0000 0.57190  0.31302  0.32771  Biso   1.000  N
  C755     1.0000 0.59530  0.30730  0.34610  Biso   1.000  C
  H825     1.0000 0.59280  0.28770  0.35470  Biso   1.000  H
  C756     1.0000 0.62540  0.32720  0.35570  Biso   1.000  C
  C757     1.0000 0.63400  0.35630  0.34350  Biso   1.000  C
  C758     1.0000 0.66540  0.37320  0.35490  Biso   1.000  C
  C759     1.0000 0.68460  0.36260  0.37750  Biso   1.000  C
  H826     1.0000 0.70430  0.37490  0.38490  Biso   1.000  H
  C760     1.0000 0.67540  0.33460  0.38940  Biso   1.000  C
  C761     1.0000 0.64590  0.31750  0.37810  Biso   1.000  C
  H827     1.0000 0.63940  0.29820  0.38610  Biso   1.000  H
  C762     1.0000 0.67750  0.40210  0.34370  Biso   1.000  C
  H828     1.0000 0.70020  0.41060  0.35060  Biso   1.000  H
  N82      1.0000 0.66110  0.41760  0.32560  Biso   1.000  N
  O175     1.0000 0.68070  0.44437  0.32061  Biso   1.000  O
  B26      1.0000 0.66540  0.46620  0.30100  Biso   1.000  B
  O176     1.0000 0.49202  0.32215  0.31328  Biso   1.000  O
  N83      1.0000 0.50950  0.35155  0.31296  Biso   1.000  N
  C763     1.0000 0.48670  0.37312  0.31840  Biso   1.000  C
  H829     1.0000 0.46190  0.36680  0.32190  Biso   1.000  H
  C764     1.0000 0.49430  0.40669  0.31980  Biso   1.000  C
  C765     1.0000 0.53050  0.41916  0.31620  Biso   1.000  C
  C766     1.0000 0.53420  0.45201  0.31770  Biso   1.000  C
  C767     1.0000 0.50230  0.47100  0.32100  Biso   1.000  C
  H830     1.0000 0.50530  0.49300  0.32100  Biso   1.000  H
  C768     1.0000 0.46680  0.45875  0.32430  Biso   1.000  C
  C769     1.0000 0.46440  0.42636  0.32470  Biso   1.000  C
  H831     1.0000 0.44110  0.41710  0.32860  Biso   1.000  H
  C770     1.0000 0.56890  0.46880  0.31410  Biso   1.000  C
  H832     1.0000 0.56860  0.49090  0.31610  Biso   1.000  H
  N84      1.0000 0.59960  0.45597  0.30840  Biso   1.000  N
  O177     1.0000 0.62846  0.47845  0.30608  Biso   1.000  O
  O178     1.0000 0.52751  0.29850  0.27787  Biso   1.000  O
  N85      1.0000 0.55180  0.32243  0.27252  Biso   1.000  N
  C771     1.0000 0.56160  0.32137  0.24876  Biso   1.000  C
  H833     1.0000 0.55070  0.30540  0.23800  Biso   1.000  H
  C772     1.0000 0.58810  0.34232  0.23636  Biso   1.000  C
  C773     1.0000 0.60360  0.36876  0.24993  Biso   1.000  C
  C774     1.0000 0.62940  0.38767  0.23570  Biso   1.000  C
  C775     1.0000 0.63900  0.37900  0.21024  Biso   1.000  C
  H834     1.0000 0.65680  0.39140  0.20150  Biso   1.000  H
  C776     1.0000 0.62410  0.35340  0.19706  Biso   1.000  C
  C777     1.0000 0.59820  0.33540  0.21039  Biso   1.000  C
  H835     1.0000 0.58700  0.31790  0.20170  Biso   1.000  H
  C778     1.0000 0.64690  0.41530  0.24693  Biso   1.000  C
  H836     1.0000 0.66210  0.42720  0.23560  Biso   1.000  H
  N86      1.0000 0.64400  0.42540  0.27024  Biso   1.000  N
  O179     1.0000 0.66580  0.45220  0.27429  Biso   1.000  O
  C779     1.0000 0.69490  0.49403  0.30001  Biso   1.000  C
  C780     1.0000 0.74800  0.54311  0.29822  Biso   1.000  C
  C781     1.0000 0.41980  0.18190  0.30998  Biso   1.000  C
  O180     1.0000 0.42269  0.16238  0.29185  Biso   1.000  O
  O181     1.0000 0.39757  0.18103  0.32880  Biso   1.000  O
  O182     1.0000 0.61660  0.36583  0.32314  Biso   1.000  O
  C782     1.0000 0.69630  0.32260  0.41410  Biso   1.000  C
  O183     1.0000 0.55866  0.40084  0.31153  Biso   1.000  O
  C783     1.0000 0.43200  0.47950  0.32660  Biso   1.000  C
  C784     1.0000 0.40580  0.47640  0.30130  Biso   1.000  C
  H837     1.0000 0.41870  0.48460  0.28600  Biso   1.000  H
  H838     1.0000 0.39940  0.45440  0.29840  Biso   1.000  H
  H839     1.0000 0.38290  0.48850  0.30380  Biso   1.000  H
  C785     1.0000 0.40600  0.46590  0.34580  Biso   1.000  C
  H840     1.0000 0.40310  0.44350  0.34230  Biso   1.000  H
  H841     1.0000 0.41610  0.46900  0.36370  Biso   1.000  H
  H842     1.0000 0.38170  0.47620  0.34390  Biso   1.000  H
  C786     1.0000 0.44190  0.51360  0.32710  Biso   1.000  C
  H843     1.0000 0.45930  0.51810  0.31300  Biso   1.000  H
  H844     1.0000 0.41920  0.52610  0.32440  Biso   1.000  H
  H845     1.0000 0.45360  0.51890  0.34420  Biso   1.000  H
  O184     1.0000 0.59467  0.37603  0.27388  Biso   1.000  O
  C787     1.0000 0.63580  0.34490  0.16918  Biso   1.000  C
  C788     1.0000 0.77630  0.56839  0.29630  Biso   1.000  C
  O185     1.0000 0.80915  0.56142  0.30389  Biso   1.000  O
  O186     1.0000 0.76771  0.59485  0.28711  Biso   1.000  O
  C789     1.0000 0.72410  0.49660  0.31910  Biso   1.000  C
  H846     1.0000 0.72590  0.48180  0.33290  Biso   1.000  H
  C790     1.0000 0.75030  0.52040  0.31800  Biso   1.000  C
  H847     1.0000 0.77000  0.52130  0.33080  Biso   1.000  H
  C791     1.0000 0.71860  0.54180  0.27990  Biso   1.000  C
  H848     1.0000 0.71600  0.55740  0.26670  Biso   1.000  H
  C792     1.0000 0.69320  0.51750  0.28110  Biso   1.000  C
  H849     1.0000 0.67340  0.51690  0.26830  Biso   1.000  H
  C793     1.0000 0.60570  0.34910  0.14840  Biso   1.000  C
  H850     1.0000 0.58230  0.34000  0.15460  Biso   1.000  H
  H851     1.0000 0.60210  0.37140  0.14490  Biso   1.000  H
  H852     1.0000 0.61300  0.33850  0.13220  Biso   1.000  H
  C794     1.0000 0.64330  0.30870  0.16850  Biso   1.000  C
  H853     1.0000 0.66290  0.30340  0.18150  Biso   1.000  H
  H854     1.0000 0.62030  0.29740  0.17250  Biso   1.000  H
  H855     1.0000 0.65130  0.30270  0.15090  Biso   1.000  H
  C795     1.0000 0.67320  0.35820  0.16150  Biso   1.000  C
  H856     1.0000 0.69150  0.35470  0.17590  Biso   1.000  H
  H857     1.0000 0.68150  0.34780  0.14560  Biso   1.000  H
  H858     1.0000 0.67060  0.38070  0.15820  Biso   1.000  H
  C796     1.0000 0.67110  0.32500  0.43800  Biso   1.000  C
  H859     1.0000 0.64770  0.31380  0.43430  Biso   1.000  H
  H860     1.0000 0.68390  0.31560  0.45340  Biso   1.000  H
  H861     1.0000 0.66580  0.34700  0.44170  Biso   1.000  H
  C797     1.0000 0.73280  0.33980  0.41970  Biso   1.000  C
  H862     1.0000 0.74490  0.33130  0.43570  Biso   1.000  H
  H863     1.0000 0.74930  0.33720  0.40480  Biso   1.000  H
  H864     1.0000 0.72770  0.36210  0.42230  Biso   1.000  H
  C798     1.0000 0.70400  0.28740  0.41070  Biso   1.000  C
  H865     1.0000 0.68040  0.27640  0.40710  Biso   1.000  H
  H866     1.0000 0.72070  0.28430  0.39600  Biso   1.000  H
  H867     1.0000 0.71580  0.27920  0.42690  Biso   1.000  H
  C799     1.0000 0.85960  0.42170  0.95388  Biso   1.000  C
  C800     1.0000 0.86270  0.39370  0.90355  Biso   1.000  C
  B27      1.0000 0.85640  0.43890  0.98147  Biso   1.000  B
  O187     1.0000 0.85820  0.47199  0.97510  Biso   1.000  O
  N87      1.0000 0.86050  0.49340  0.99588  Biso   1.000  N
  C801     1.0000 0.86200  0.52130  0.98808  Biso   1.000  C
  H868     1.0000 0.86180  0.52460  0.96960  Biso   1.000  H
  C802     1.0000 0.86400  0.54887  0.00468  Biso   1.000  C
  C803     1.0000 0.86300  0.54770  0.03275  Biso   1.000  C
  C804     1.0000 0.86600  0.57670  0.04650  Biso   1.000  C
  C805     1.0000 0.87080  0.60420  0.03208  Biso   1.000  C
  H869     1.0000 0.87400  0.62320  0.04160  Biso   1.000  H
  C806     1.0000 0.87110  0.60560  0.00522  Biso   1.000  C
  C807     1.0000 0.86820  0.57780  0.99170  Biso   1.000  C
  H870     1.0000 0.86910  0.57800  0.97300  Biso   1.000  H
  C808     1.0000 0.86410  0.57940  0.07461  Biso   1.000  C
  H871     1.0000 0.86610  0.60000  0.08160  Biso   1.000  H
  N88      1.0000 0.86020  0.55772  0.09120  Biso   1.000  N
  O188     1.0000 0.85930  0.56835  0.11663  Biso   1.000  O
  B28      1.0000 0.85430  0.54460  0.13696  Biso   1.000  B
  O189     1.0000 0.88880  0.42846  0.99683  Biso   1.000  O
  N89      1.0000 0.89480  0.44160  0.02149  Biso   1.000  N
  C809     1.0000 0.92730  0.43550  0.03066  Biso   1.000  C
  H872     1.0000 0.94290  0.42280  0.02020  Biso   1.000  H
  C810     1.0000 0.94230  0.44620  0.05553  Biso   1.000  C
  C811     1.0000 0.92200  0.46430  0.07426  Biso   1.000  C
  C812     1.0000 0.94190  0.47320  0.09784  Biso   1.000  C
  C813     1.0000 0.97970  0.46550  0.10128  Biso   1.000  C
  H873     1.0000 0.99250  0.47220  0.11690  Biso   1.000  H
  C814     1.0000 0.99950  0.44840  0.08298  Biso   1.000  C
  C815     1.0000 0.98010  0.43900  0.06074  Biso   1.000  C
  H874     1.0000 0.99300  0.42690  0.04820  Biso   1.000  H
  C816     1.0000 0.92520  0.49200  0.11828  Biso   1.000  C
  H875     1.0000 0.93900  0.49440  0.13440  Biso   1.000  H
  N90      1.0000 0.89370  0.50542  0.11627  Biso   1.000  N
  O190     1.0000 0.88530  0.52119  0.13872  Biso   1.000  O
  C817     1.0000 0.85420  0.56220  0.16486  Biso   1.000  C
  C818     1.0000 0.88630  0.56410  0.18114  Biso   1.000  C
  H876     1.0000 0.90850  0.55410  0.17580  Biso   1.000  H
  C819     1.0000 0.88640  0.58030  0.20488  Biso   1.000  C
  H877     1.0000 0.90880  0.58210  0.21520  Biso   1.000  H
  C820     1.0000 0.85380  0.59388  0.21356  Biso   1.000  C
  C821     1.0000 0.82140  0.59160  0.19829  Biso   1.000  C
  H878     1.0000 0.79900  0.60090  0.20400  Biso   1.000  H
  C822     1.0000 0.82190  0.57570  0.17444  Biso   1.000  C
  H879     1.0000 0.79930  0.57390  0.16430  Biso   1.000  H
  C823     1.0000 0.86350  0.38080  0.87627  Biso   1.000  C
  O191     1.0000 0.85142  0.35353  0.87224  Biso   1.000  O
  O192     1.0000 0.88000  0.39560  0.85928  Biso   1.000  O
  O193     1.0000 0.86210  0.52162  0.04478  Biso   1.000  O
  C824     1.0000 0.87600  0.63700  0.99110  Biso   1.000  C
  O194     1.0000 0.88780  0.47147  0.07011  Biso   1.000  O
  C825     1.0000 0.04070  0.43920  0.08670  Biso   1.000  C
  C826     1.0000 0.04570  0.40340  0.08430  Biso   1.000  C
  H880     1.0000 0.03570  0.39630  0.06720  Biso   1.000  H
  H881     1.0000 0.07220  0.39810  0.08600  Biso   1.000  H
  H882     1.0000 0.03210  0.39300  0.09840  Biso   1.000  H
  C827     1.0000 0.06330  0.45380  0.06450  Biso   1.000  C
  H883     1.0000 0.05230  0.44770  0.04740  Biso   1.000  H
  H884     1.0000 0.06290  0.47660  0.06610  Biso   1.000  H
  H885     1.0000 0.08920  0.44640  0.06580  Biso   1.000  H
  C828     1.0000 0.05660  0.44790  0.11330  Biso   1.000  C
  H886     1.0000 0.04160  0.43820  0.12700  Biso   1.000  H
  H887     1.0000 0.08240  0.44040  0.11500  Biso   1.000  H
  H888     1.0000 0.05610  0.47070  0.11530  Biso   1.000  H
  C829     1.0000 0.85360  0.60984  0.23994  Biso   1.000  C
  O195     1.0000 0.88474  0.61289  0.25189  Biso   1.000  O
  O196     1.0000 0.82225  0.61917  0.24786  Biso   1.000  O
  O197     1.0000 0.82520  0.42620  0.99680  Biso   1.000  O
  C830     1.0000 0.84800  0.37770  0.92440  Biso   1.000  C
  H889     1.0000 0.83880  0.35710  0.92190  Biso   1.000  H
  C831     1.0000 0.84650  0.39160  0.94900  Biso   1.000  C
  H890     1.0000 0.83620  0.38010  0.96310  Biso   1.000  H
  C832     1.0000 0.87590  0.43700  0.93260  Biso   1.000  C
  H891     1.0000 0.88640  0.45710  0.93540  Biso   1.000  H
  C833     1.0000 0.87730  0.42390  0.90770  Biso   1.000  C
  H892     1.0000 0.88790  0.43520  0.89370  Biso   1.000  H
  N91      1.0000 0.81790  0.44170  0.01930  Biso   1.000  N
  C834     1.0000 0.78870  0.43050  0.02920  Biso   1.000  C
  H893     1.0000 0.77580  0.41440  0.01970  Biso   1.000  H
  C835     1.0000 0.77370  0.44050  0.05400  Biso   1.000  C
  C836     1.0000 0.79080  0.46350  0.07100  Biso   1.000  C
  C837     1.0000 0.77370  0.46920  0.09570  Biso   1.000  C
  C838     1.0000 0.74100  0.45320  0.10230  Biso   1.000  C
  H894     1.0000 0.73050  0.45690  0.11900  Biso   1.000  H
  C839     1.0000 0.72400  0.43230  0.08520  Biso   1.000  C
  C840     1.0000 0.74060  0.42620  0.06160  Biso   1.000  C
  H895     1.0000 0.72900  0.41160  0.04990  Biso   1.000  H
  C841     1.0000 0.78800  0.49100  0.11520  Biso   1.000  C
  H896     1.0000 0.77430  0.49300  0.13090  Biso   1.000  H
  N92      1.0000 0.81700  0.50770  0.11340  Biso   1.000  N
  O198     1.0000 0.82190  0.52440  0.13610  Biso   1.000  O
  O199     1.0000 0.81930  0.47830  0.06410  Biso   1.000  O
  C842     1.0000 0.68720  0.41660  0.09230  Biso   1.000  C
  C843     1.0000 0.69640  0.38170  0.09230  Biso   1.000  C
  H897     1.0000 0.70340  0.37520  0.07460  Biso   1.000  H
  H898     1.0000 0.71720  0.37760  0.10480  Biso   1.000  H
  H899     1.0000 0.67450  0.36980  0.09760  Biso   1.000  H
  C844     1.0000 0.65650  0.42440  0.07210  Biso   1.000  C
  H900     1.0000 0.66410  0.41750  0.05460  Biso   1.000  H
  H901     1.0000 0.63350  0.41350  0.07670  Biso   1.000  H
  H902     1.0000 0.65220  0.44700  0.07190  Biso   1.000  H
  C845     1.0000 0.67620  0.42690  0.11960  Biso   1.000  C
  H903     1.0000 0.69630  0.42170  0.13230  Biso   1.000  H
  H904     1.0000 0.67200  0.44950  0.11960  Biso   1.000  H
  H905     1.0000 0.65330  0.41610  0.12440  Biso   1.000  H
  C846     1.0000 0.22430  0.27126  0.30169  Biso   1.000  C
  C847     1.0000 0.21910  0.24677  0.28380  Biso   1.000  C
  H906     1.0000 0.19990  0.24870  0.27070  Biso   1.000  H
  C848     1.0000 0.24050  0.22006  0.28420  Biso   1.000  C
  H907     1.0000 0.23630  0.20420  0.27130  Biso   1.000  H
  C849     1.0000 0.26840  0.21636  0.30358  Biso   1.000  C
  C850     1.0000 0.27520  0.24060  0.32128  Biso   1.000  C
  H908     1.0000 0.29470  0.23890  0.33430  Biso   1.000  H
  C851     1.0000 0.25350  0.26718  0.31982  Biso   1.000  C
  H909     1.0000 0.25890  0.28360  0.33190  Biso   1.000  H
  B29      1.0000 0.19700  0.30100  0.30210  Biso   1.000  B
  O200     1.0000 0.22080  0.32932  0.30344  Biso   1.000  O
  N93      1.0000 0.20160  0.35825  0.30540  Biso   1.000  N
  C852     1.0000 0.22390  0.38130  0.30510  Biso   1.000  C
  H910     1.0000 0.24970  0.37680  0.30320  Biso   1.000  H
  C853     1.0000 0.21340  0.41376  0.30721  Biso   1.000  C
  C854     1.0000 0.17610  0.42374  0.31036  Biso   1.000  C
  C855     1.0000 0.17022  0.45658  0.31332  Biso   1.000  C
  C856     1.0000 0.20075  0.47757  0.31298  Biso   1.000  C
  H911     1.0000 0.19620  0.49930  0.31500  Biso   1.000  H
  C857     1.0000 0.23692  0.46731  0.30984  Biso   1.000  C
  C858     1.0000 0.24260  0.43531  0.30730  Biso   1.000  C
  H912     1.0000 0.26730  0.42780  0.30560  Biso   1.000  H
  C859     1.0000 0.13315  0.47029  0.31494  Biso   1.000  C
  H913     1.0000 0.13220  0.49220  0.31780  Biso   1.000  H
  N94      1.0000 0.10203  0.45645  0.31302  Biso   1.000  N
  O201     1.0000 0.07215  0.47662  0.31448  Biso   1.000  O
  B30      1.0000 0.03430  0.46300  0.31100  Biso   1.000  B
  O202     1.0000 0.17640  0.29622  0.32567  Biso   1.000  O
  N95      1.0000 0.14860  0.31800  0.33043  Biso   1.000  N
  C860     1.0000 0.13250  0.31210  0.35180  Biso   1.000  C
  H914     1.0000 0.14060  0.29390  0.36100  Biso   1.000  H
  C861     1.0000 0.10330  0.33020  0.36346  Biso   1.000  C
  C862     1.0000 0.08810  0.35760  0.35159  Biso   1.000  C
  C863     1.0000 0.06130  0.37436  0.36672  Biso   1.000  C
  C864     1.0000 0.05070  0.36350  0.39135  Biso   1.000  C
  H915     1.0000 0.03260  0.37500  0.40070  Biso   1.000  H
  C865     1.0000 0.06550  0.33660  0.40275  Biso   1.000  C
  C866     1.0000 0.09130  0.32070  0.38810  Biso   1.000  C
  H916     1.0000 0.10160  0.30200  0.39530  Biso   1.000  H
  C867     1.0000 0.04410  0.40291  0.35754  Biso   1.000  C
  H917     1.0000 0.02710  0.41240  0.36910  Biso   1.000  H
  N96      1.0000 0.04880  0.41681  0.33604  Biso   1.000  N
  O203     1.0000 0.02547  0.44172  0.33268  Biso   1.000  O
  O204     1.0000 0.17530  0.30011  0.27758  Biso   1.000  O
  N97      1.0000 0.14970  0.32440  0.27403  Biso   1.000  N
  C868     1.0000 0.13490  0.32360  0.25120  Biso   1.000  C
  H918     1.0000 0.14350  0.30750  0.24000  Biso   1.000  H
  C869     1.0000 0.10680  0.34410  0.23993  Biso   1.000  C
  C870     1.0000 0.09200  0.36960  0.25487  Biso   1.000  C
  C871     1.0000 0.06540  0.38910  0.24157  Biso   1.000  C
  C872     1.0000 0.05460  0.38280  0.21541  Biso   1.000  C
  C873     1.0000 0.09440  0.33940  0.21403  Biso   1.000  C
  C874     1.0000 0.04790  0.41610  0.25402  Biso   1.000  C
  H919     1.0000 0.03260  0.42910  0.24310  Biso   1.000  H
  N98      1.0000 0.05140  0.42343  0.27821  Biso   1.000  N
  O205     1.0000 0.02820  0.44841  0.28476  Biso   1.000  O
  C875     1.0000 0.00534  0.49142  0.31092  Biso   1.000  C
  C876     1.0000 0.01150  0.51961  0.29800  Biso   1.000  C
  H920     1.0000 0.03460  0.52270  0.28960  Biso   1.000  H
  C877     1.0000 0.98511  0.54322  0.29713  Biso   1.000  C
  H921     1.0000 0.99020  0.56220  0.28820  Biso   1.000  H
  C878     1.0000 0.95112  0.53924  0.30924  Biso   1.000  C
  C879     1.0000 0.94450  0.51200  0.32271  Biso   1.000  C
  H922     1.0000 0.92170  0.50930  0.33160  Biso   1.000  H
  C880     1.0000 0.97115  0.48849  0.32335  Biso   1.000  C
  H923     1.0000 0.96600  0.46970  0.33260  Biso   1.000  H
  C881     1.0000 0.28980  0.18650  0.30650  Biso   1.000  C
  O206     1.0000 0.28412  0.16651  0.28875  Biso   1.000  O
  O207     1.0000 0.31244  0.18449  0.32571  Biso   1.000  O
  O208     1.0000 0.14884  0.40421  0.31110  Biso   1.000  O
  C882     1.0000 0.26980  0.48983  0.30810  Biso   1.000  C
  O209     1.0000 0.09940  0.36785  0.32996  Biso   1.000  O
  C883     1.0000 0.05270  0.32490  0.42960  Biso   1.000  C
  O210     1.0000 0.10200  0.37411  0.27922  Biso   1.000  O
  C884     1.0000 0.92182  0.56436  0.30793  Biso   1.000  C
  O211     1.0000 0.93099  0.59035  0.29877  Biso   1.000  O
  O212     1.0000 0.89018  0.55750  0.31497  Biso   1.000  O
  C885     1.0000 0.06570  0.35630  0.20190  Biso   1.000  C
  C886     1.0000 0.27820  0.51000  0.33160  Biso   1.000  C
  H924     1.0000 0.25500  0.51880  0.33800  Biso   1.000  H
  H925     1.0000 0.29030  0.49740  0.34550  Biso   1.000  H
  H926     1.0000 0.29500  0.52700  0.32660  Biso   1.000  H
  C887     1.0000 0.25860  0.51270  0.28460  Biso   1.000  C
  H927     1.0000 0.25280  0.50040  0.26880  Biso   1.000  H
  H928     1.0000 0.23670  0.52490  0.28930  Biso   1.000  H
  H929     1.0000 0.27940  0.52680  0.28130  Biso   1.000  H
  C888     1.0000 0.30560  0.47620  0.29800  Biso   1.000  C
  H930     1.0000 0.29990  0.46300  0.28270  Biso   1.000  H
  H931     1.0000 0.32230  0.49310  0.29300  Biso   1.000  H
  H932     1.0000 0.31760  0.46350  0.31190  Biso   1.000  H
  C889     1.0000 0.07400  0.29660  0.44050  Biso   1.000  C
  H933     1.0000 0.07370  0.27990  0.42740  Biso   1.000  H
  H934     1.0000 0.09990  0.30260  0.44470  Biso   1.000  H
  H935     1.0000 0.06210  0.28930  0.45650  Biso   1.000  H
  C890     1.0000 0.01290  0.31260  0.42280  Biso   1.000  C
  H936     1.0000 0.99760  0.32970  0.41560  Biso   1.000  H
  H937     1.0000 0.01430  0.29580  0.40980  Biso   1.000  H
  H938     1.0000 0.00160  0.30450  0.43880  Biso   1.000  H
  C891     1.0000 0.05170  0.35240  0.44870  Biso   1.000  C
  H939     1.0000 0.03770  0.36970  0.44060  Biso   1.000  H
  H940     1.0000 0.03940  0.34580  0.46490  Biso   1.000  H
  H941     1.0000 0.07720  0.35920  0.45310  Biso   1.000  H
  C892     1.0000 0.04390  0.34370  0.17770  Biso   1.000  C
  C893     1.0000 0.05920  0.31300  0.16780  Biso   1.000  C
  H942     1.0000 0.05690  0.29700  0.18150  Biso   1.000  H
  H943     1.0000 0.04500  0.30650  0.15190  Biso   1.000  H
  H944     1.0000 0.08550  0.31560  0.16360  Biso   1.000  H
  C894     1.0000 0.04730  0.36880  0.15660  Biso   1.000  C
  H945     1.0000 0.03740  0.38860  0.16310  Biso   1.000  H
  H946     1.0000 0.07370  0.37150  0.15240  Biso   1.000  H
  H947     1.0000 0.03320  0.36240  0.14070  Biso   1.000  H
  C895     1.0000 0.00260  0.33770  0.18240  Biso   1.000  C
  H948     1.0000 0.99100  0.35690  0.18890  Biso   1.000  H
  H949     1.0000 0.99010  0.33130  0.16590  Biso   1.000  H
  H950     1.0000 0.00010  0.32110  0.19550  Biso   1.000  H
  C896     1.0000 0.90780  0.63630  0.97150  Biso   1.000  C
  H951     1.0000 0.90440  0.61830  0.95980  Biso   1.000  H
  H952     1.0000 0.90750  0.65560  0.96120  Biso   1.000  H
  H953     1.0000 0.93170  0.63440  0.98120  Biso   1.000  H
  C897     1.0000 0.88160  0.66520  0.00940  Biso   1.000  C
  H954     1.0000 0.86140  0.66590  0.02200  Biso   1.000  H
  H955     1.0000 0.90560  0.66330  0.01890  Biso   1.000  H
  H956     1.0000 0.88140  0.68440  0.99890  Biso   1.000  H
  C898     1.0000 0.83870  0.64400  0.97610  Biso   1.000  C
  H957     1.0000 0.83300  0.62690  0.96380  Biso   1.000  H
  H958     1.0000 0.81860  0.64590  0.98870  Biso   1.000  H
  H959     1.0000 0.84090  0.66360  0.96630  Biso   1.000  H
  C899     1.0000 0.73210  0.48950  0.30820  Biso   1.000  C
  H960     1.0000 0.73970  0.46960  0.31460  Biso   1.000  H
  C900     1.0000 0.75830  0.51330  0.30710  Biso   1.000  C
  H961     1.0000 0.78340  0.50940  0.31250  Biso   1.000  H
  C901     1.0000 0.71220  0.54720  0.28800  Biso   1.000  C
  H962     1.0000 0.70510  0.56660  0.28040  Biso   1.000  H
  C902     1.0000 0.68660  0.52300  0.28890  Biso   1.000  C
  H963     1.0000 0.66220  0.52630  0.28150  Biso   1.000  H
  C903     1.0000 0.61190  0.32040  0.15620  Biso   1.000  C
  H964     1.0000 0.58560  0.32650  0.15690  Biso   1.000  H
  H965     1.0000 0.61890  0.31810  0.13780  Biso   1.000  H
  H966     1.0000 0.61560  0.30040  0.16530  Biso   1.000  H
  C904     1.0000 0.67730  0.33770  0.16910  Biso   1.000  C
  H967     1.0000 0.69110  0.35470  0.17790  Biso   1.000  H
  H968     1.0000 0.68210  0.31800  0.17850  Biso   1.000  H
  H969     1.0000 0.68540  0.33580  0.15100  Biso   1.000  H
  C905     1.0000 0.62770  0.37440  0.15180  Biso   1.000  C
  H970     1.0000 0.64220  0.39210  0.15880  Biso   1.000  H
  H971     1.0000 0.63480  0.37020  0.13370  Biso   1.000  H
  H972     1.0000 0.60110  0.37940  0.15210  Biso   1.000  H
  O213     1.0000 0.81750  0.43680  0.99080  Biso   1.000  O
  C906     1.0000 0.88960  0.42630  0.93750  Biso   1.000  C
  H973     1.0000 0.90970  0.43910  0.94360  Biso   1.000  H
  C907     1.0000 0.89140  0.41300  0.91280  Biso   1.000  C
  H974     1.0000 0.91220  0.41700  0.90210  Biso   1.000  H
  C908     1.0000 0.83380  0.38640  0.92030  Biso   1.000  C
  H975     1.0000 0.81520  0.37170  0.91490  Biso   1.000  H
  C909     1.0000 0.83230  0.40060  0.94470  Biso   1.000  C
  H976     1.0000 0.81200  0.39590  0.95570  Biso   1.000  H
  N99      1.0000 0.80970  0.45140  0.01520  Biso   1.000  N
  C910     1.0000 0.77580  0.44700  0.02080  Biso   1.000  C
  H977     1.0000 0.76060  0.43560  0.00850  Biso   1.000  H
  C911     1.0000 0.75830  0.45810  0.04460  Biso   1.000  C
  C912     1.0000 0.77800  0.47640  0.06430  Biso   1.000  C
  C913     1.0000 0.75680  0.48830  0.08570  Biso   1.000  C
  C914     1.0000 0.71860  0.48130  0.08700  Biso   1.000  C
  H978     1.0000 0.70480  0.48990  0.10100  Biso   1.000  H
  C915     1.0000 0.70030  0.46200  0.06850  Biso   1.000  C
  C916     1.0000 0.72050  0.45140  0.04750  Biso   1.000  C
  H979     1.0000 0.70800  0.43910  0.03440  Biso   1.000  H
  C917     1.0000 0.77360  0.50610  0.10700  Biso   1.000  C
  H980     1.0000 0.75720  0.51370  0.12000  Biso   1.000  H
  N100     1.0000 0.80790  0.51280  0.11020  Biso   1.000  N
  O214     1.0000 0.81640  0.53100  0.13210  Biso   1.000  O
  O215     1.0000 0.81340  0.48110  0.06340  Biso   1.000  O
  C918     1.0000 0.65930  0.45350  0.07270  Biso   1.000  C
  C919     1.0000 0.64150  0.43690  0.04960  Biso   1.000  C
  H981     1.0000 0.64470  0.44940  0.03360  Biso   1.000  H
  H982     1.0000 0.65330  0.41640  0.04740  Biso   1.000  H
  H983     1.0000 0.61480  0.43410  0.05260  Biso   1.000  H
  C920     1.0000 0.63720  0.48400  0.07600  Biso   1.000  C
  H984     1.0000 0.64780  0.49580  0.09100  Biso   1.000  H
  H985     1.0000 0.63880  0.49670  0.06000  Biso   1.000  H
  H986     1.0000 0.61100  0.47910  0.07930  Biso   1.000  H
  C921     1.0000 0.65610  0.43620  0.09890  Biso   1.000  C
  H987     1.0000 0.66830  0.44850  0.11290  Biso   1.000  H
  H988     1.0000 0.62960  0.43340  0.10280  Biso   1.000  H
  H989     1.0000 0.66820  0.41570  0.09770  Biso   1.000  H
  C922     1.0000 0.91560  0.64970  0.99910  Biso   1.000  C
  H990     1.0000 0.91740  0.65210  0.01830  Biso   1.000  H
  H991     1.0000 0.93460  0.63490  0.99340  Biso   1.000  H
  H992     1.0000 0.91950  0.67000  0.99070  Biso   1.000  H
  C923     1.0000 0.84820  0.66180  0.99900  Biso   1.000  C
  H993     1.0000 0.84860  0.66380  0.01830  Biso   1.000  H
  H994     1.0000 0.85490  0.68190  0.99120  Biso   1.000  H
  H995     1.0000 0.82310  0.65570  0.99280  Biso   1.000  H
  C924     1.0000 0.87540  0.63400  0.96140  Biso   1.000  C
  H996     1.0000 0.89340  0.61800  0.95630  Biso   1.000  H
  H997     1.0000 0.85030  0.62800  0.95520  Biso   1.000  H
  H998     1.0000 0.88210  0.65410  0.95360  Biso   1.000  H
  C925     1.0000 0.30000  0.47980  0.32910  Biso   1.000  C
  H999     1.0000 0.30790  0.45830  0.32570  Biso   1.000  H
  H1000    1.0000 0.32160  0.49380  0.32820  Biso   1.000  H
  H1001    1.0000 0.28960  0.48110  0.34670  Biso   1.000  H
  C926     1.0000 0.25980  0.52290  0.31520  Biso   1.000  C
  H1002    1.0000 0.24770  0.52310  0.33230  Biso   1.000  H
  H1003    1.0000 0.28260  0.53570  0.31640  Biso   1.000  H
  H1004    1.0000 0.24280  0.53160  0.30170  Biso   1.000  H
  C927     1.0000 0.28880  0.48830  0.28170  Biso   1.000  C
  H1005    1.0000 0.29490  0.46650  0.27770  Biso   1.000  H
  H1006    1.0000 0.27200  0.49670  0.26790  Biso   1.000  H
  H1007    1.0000 0.31180  0.50080  0.28260  Biso   1.000  H
  C928     1.0000 0.04420  0.28990  0.42830  Biso   1.000  C
  H1008    1.0000 0.06570  0.27870  0.42130  Biso   1.000  H
  H1009    1.0000 0.03910  0.28210  0.44600  Biso   1.000  H
  H1010    1.0000 0.02230  0.28630  0.41670  Biso   1.000  H
  C929     1.0000 0.01990  0.34330  0.44030  Biso   1.000  C
  H1011    1.0000 0.02620  0.36560  0.44090  Biso   1.000  H
  H1012    1.0000 0.99780  0.34020  0.42880  Biso   1.000  H
  H1013    1.0000 0.01470  0.33600  0.45810  Biso   1.000  H
  C930     1.0000 0.08430  0.33000  0.45050  Biso   1.000  C
  H1014    1.0000 0.09030  0.35230  0.45170  Biso   1.000  H
  H1015    1.0000 0.07610  0.32250  0.46770  Biso   1.000  H
  H1016    1.0000 0.10660  0.31830  0.44550  Biso   1.000  H
  C931     1.0000 0.07150  0.36010  0.20040  Biso   1.000  C
  C932     1.0000 0.07140  0.36230  0.17030  Biso   1.000  C
  C933     1.0000 0.08300  0.33170  0.15800  Biso   1.000  C
  H1017    1.0000 0.10780  0.32570  0.16490  Biso   1.000  H
  H1018    1.0000 0.06490  0.31540  0.16230  Biso   1.000  H
  H1019    1.0000 0.08380  0.33410  0.13880  Biso   1.000  H
  C934     1.0000 0.03310  0.37400  0.16100  Biso   1.000  C
  H1020    1.0000 0.02760  0.39380  0.16970  Biso   1.000  H
  H1021    1.0000 0.03300  0.37720  0.14190  Biso   1.000  H
  H1022    1.0000 0.01410  0.35850  0.16530  Biso   1.000  H
  C935     1.0000 0.10010  0.38580  0.15990  Biso   1.000  C
  H1023    1.0000 0.09490  0.40660  0.16690  Biso   1.000  H
  H1024    1.0000 0.12530  0.37930  0.16560  Biso   1.000  H
  H1025    1.0000 0.09840  0.38630  0.14060  Biso   1.000  H
  Zn51     1.0000 0.11411  0.90853  0.30203  Biso   1.000  Zn
  Zn52     1.0000 0.06608  0.85294  0.30369  Biso   1.000  Zn
  Zn53     1.0000 0.64252  0.85585  0.30492  Biso   1.000  Zn
  Zn54     1.0000 0.58986  0.90824  0.30788  Biso   1.000  Zn
  Zn55     1.0000 0.35613  0.97468  0.03419  Biso   1.000  Zn
  Zn56     1.0000 0.35575  0.00890  0.08430  Biso   1.000  Zn
  Zn57     1.0000 0.39609  0.12328  0.28849  Biso   1.000  Zn
  Zn58     1.0000 0.34691  0.08240  0.32737  Biso   1.000  Zn
  Zn59     1.0000 0.30781  0.12564  0.28468  Biso   1.000  Zn
  Zn60     1.0000 0.35266  0.15473  0.33414  Biso   1.000  Zn
  O216     1.0000 0.35070  0.12221  0.30789  Biso   1.000  O
  C936     1.0000 0.98840  0.76552  0.30556  Biso   1.000  C
  C937     1.0000 0.99000  0.74141  0.28685  Biso   1.000  C
  H1026    1.0000 0.00690  0.74340  0.27290  Biso   1.000  H
  C938     1.0000 0.96790  0.71493  0.28792  Biso   1.000  C
  H1027    1.0000 0.96930  0.69950  0.27450  Biso   1.000  H
  C939     1.0000 0.94360  0.71080  0.30837  Biso   1.000  C
  C940     1.0000 0.94080  0.73448  0.32695  Biso   1.000  C
  H1028    1.0000 0.92410  0.73220  0.34100  Biso   1.000  H
  C941     1.0000 0.96220  0.76133  0.32524  Biso   1.000  C
  H1029    1.0000 0.95900  0.77750  0.33780  Biso   1.000  H
  B31      1.0000 0.01480  0.79580  0.30470  Biso   1.000  B
  O217     1.0000 0.04603  0.78962  0.32412  Biso   1.000  O
  N101     1.0000 0.07190  0.81302  0.32771  Biso   1.000  N
  C942     1.0000 0.09530  0.80730  0.34610  Biso   1.000  C
  H1030    1.0000 0.09280  0.78770  0.35470  Biso   1.000  H
  C943     1.0000 0.12540  0.82720  0.35570  Biso   1.000  C
  C944     1.0000 0.13400  0.85630  0.34350  Biso   1.000  C
  C945     1.0000 0.16540  0.87320  0.35490  Biso   1.000  C
  C946     1.0000 0.18460  0.86260  0.37750  Biso   1.000  C
  H1031    1.0000 0.20430  0.87490  0.38490  Biso   1.000  H
  C947     1.0000 0.17540  0.83460  0.38940  Biso   1.000  C
  C948     1.0000 0.14590  0.81750  0.37810  Biso   1.000  C
  H1032    1.0000 0.13940  0.79820  0.38610  Biso   1.000  H
  C949     1.0000 0.17750  0.90210  0.34370  Biso   1.000  C
  H1033    1.0000 0.20020  0.91060  0.35060  Biso   1.000  H
  N102     1.0000 0.16110  0.91760  0.32560  Biso   1.000  N
  O218     1.0000 0.18070  0.94437  0.32061  Biso   1.000  O
  B32      1.0000 0.16540  0.96620  0.30100  Biso   1.000  B
  O219     1.0000 0.99202  0.82215  0.31328  Biso   1.000  O
  N103     1.0000 0.00950  0.85155  0.31296  Biso   1.000  N
  C950     1.0000 0.98670  0.87312  0.31840  Biso   1.000  C
  H1034    1.0000 0.96190  0.86680  0.32190  Biso   1.000  H
  C951     1.0000 0.99430  0.90669  0.31980  Biso   1.000  C
  C952     1.0000 0.03050  0.91916  0.31620  Biso   1.000  C
  C953     1.0000 0.03420  0.95201  0.31770  Biso   1.000  C
  C954     1.0000 0.00230  0.97100  0.32100  Biso   1.000  C
  H1035    1.0000 0.00530  0.99300  0.32100  Biso   1.000  H
  C955     1.0000 0.96680  0.95875  0.32430  Biso   1.000  C
  C956     1.0000 0.96440  0.92636  0.32470  Biso   1.000  C
  H1036    1.0000 0.94110  0.91710  0.32860  Biso   1.000  H
  C957     1.0000 0.06890  0.96880  0.31410  Biso   1.000  C
  H1037    1.0000 0.06860  0.99090  0.31610  Biso   1.000  H
  N104     1.0000 0.09960  0.95597  0.30840  Biso   1.000  N
  O220     1.0000 0.12846  0.97845  0.30608  Biso   1.000  O
  O221     1.0000 0.02751  0.79850  0.27787  Biso   1.000  O
  N105     1.0000 0.05180  0.82243  0.27252  Biso   1.000  N
  C958     1.0000 0.06160  0.82137  0.24876  Biso   1.000  C
  H1038    1.0000 0.05070  0.80540  0.23800  Biso   1.000  H
  C959     1.0000 0.08810  0.84232  0.23636  Biso   1.000  C
  C960     1.0000 0.10360  0.86876  0.24993  Biso   1.000  C
  C961     1.0000 0.12940  0.88767  0.23570  Biso   1.000  C
  C962     1.0000 0.13900  0.87900  0.21024  Biso   1.000  C
  H1039    1.0000 0.15680  0.89140  0.20150  Biso   1.000  H
  C963     1.0000 0.12410  0.85340  0.19706  Biso   1.000  C
  C964     1.0000 0.09820  0.83540  0.21039  Biso   1.000  C
  H1040    1.0000 0.08700  0.81790  0.20170  Biso   1.000  H
  C965     1.0000 0.14690  0.91530  0.24693  Biso   1.000  C
  H1041    1.0000 0.16210  0.92720  0.23560  Biso   1.000  H
  N106     1.0000 0.14400  0.92540  0.27024  Biso   1.000  N
  O222     1.0000 0.16580  0.95220  0.27429  Biso   1.000  O
  C966     1.0000 0.19490  0.99403  0.30001  Biso   1.000  C
  C967     1.0000 0.24800  0.04311  0.29822  Biso   1.000  C
  C968     1.0000 0.91980  0.68190  0.30998  Biso   1.000  C
  O223     1.0000 0.92269  0.66238  0.29185  Biso   1.000  O
  O224     1.0000 0.89757  0.68103  0.32880  Biso   1.000  O
  O225     1.0000 0.11660  0.86583  0.32314  Biso   1.000  O
  C969     1.0000 0.19630  0.82260  0.41410  Biso   1.000  C
  O226     1.0000 0.05866  0.90084  0.31153  Biso   1.000  O
  C970     1.0000 0.93200  0.97950  0.32660  Biso   1.000  C
  C971     1.0000 0.90580  0.97640  0.30130  Biso   1.000  C
  H1042    1.0000 0.91870  0.98460  0.28600  Biso   1.000  H
  H1043    1.0000 0.89940  0.95440  0.29840  Biso   1.000  H
  H1044    1.0000 0.88290  0.98850  0.30380  Biso   1.000  H
  C972     1.0000 0.90600  0.96590  0.34580  Biso   1.000  C
  H1045    1.0000 0.90310  0.94350  0.34230  Biso   1.000  H
  H1046    1.0000 0.91610  0.96900  0.36370  Biso   1.000  H
  H1047    1.0000 0.88170  0.97620  0.34390  Biso   1.000  H
  C973     1.0000 0.94190  0.01360  0.32710  Biso   1.000  C
  H1048    1.0000 0.95930  0.01810  0.31300  Biso   1.000  H
  H1049    1.0000 0.91920  0.02610  0.32440  Biso   1.000  H
  H1050    1.0000 0.95360  0.01890  0.34420  Biso   1.000  H
  O227     1.0000 0.09467  0.87603  0.27388  Biso   1.000  O
  C974     1.0000 0.13580  0.84490  0.16918  Biso   1.000  C
  C975     1.0000 0.27630  0.06839  0.29630  Biso   1.000  C
  O228     1.0000 0.30915  0.06142  0.30389  Biso   1.000  O
  O229     1.0000 0.26771  0.09485  0.28711  Biso   1.000  O
  C976     1.0000 0.22410  0.99660  0.31910  Biso   1.000  C
  H1051    1.0000 0.22590  0.98180  0.33290  Biso   1.000  H
  C977     1.0000 0.25030  0.02040  0.31800  Biso   1.000  C
  H1052    1.0000 0.27000  0.02130  0.33080  Biso   1.000  H
  C978     1.0000 0.21860  0.04180  0.27990  Biso   1.000  C
  H1053    1.0000 0.21600  0.05740  0.26670  Biso   1.000  H
  C979     1.0000 0.19320  0.01750  0.28110  Biso   1.000  C
  H1054    1.0000 0.17340  0.01690  0.26830  Biso   1.000  H
  C980     1.0000 0.10570  0.84910  0.14840  Biso   1.000  C
  H1055    1.0000 0.08230  0.84000  0.15460  Biso   1.000  H
  H1056    1.0000 0.10210  0.87140  0.14490  Biso   1.000  H
  H1057    1.0000 0.11300  0.83850  0.13220  Biso   1.000  H
  C981     1.0000 0.14330  0.80870  0.16850  Biso   1.000  C
  H1058    1.0000 0.16290  0.80340  0.18150  Biso   1.000  H
  H1059    1.0000 0.12030  0.79740  0.17250  Biso   1.000  H
  H1060    1.0000 0.15130  0.80270  0.15090  Biso   1.000  H
  C982     1.0000 0.17320  0.85820  0.16150  Biso   1.000  C
  H1061    1.0000 0.19150  0.85470  0.17590  Biso   1.000  H
  H1062    1.0000 0.18150  0.84780  0.14560  Biso   1.000  H
  H1063    1.0000 0.17060  0.88070  0.15820  Biso   1.000  H
  C983     1.0000 0.17110  0.82500  0.43800  Biso   1.000  C
  H1064    1.0000 0.14770  0.81380  0.43430  Biso   1.000  H
  H1065    1.0000 0.18390  0.81560  0.45340  Biso   1.000  H
  H1066    1.0000 0.16580  0.84700  0.44170  Biso   1.000  H
  C984     1.0000 0.23280  0.83980  0.41970  Biso   1.000  C
  H1067    1.0000 0.24490  0.83130  0.43570  Biso   1.000  H
  H1068    1.0000 0.24930  0.83720  0.40480  Biso   1.000  H
  H1069    1.0000 0.22770  0.86210  0.42230  Biso   1.000  H
  C985     1.0000 0.20400  0.78740  0.41070  Biso   1.000  C
  H1070    1.0000 0.18040  0.77640  0.40710  Biso   1.000  H
  H1071    1.0000 0.22070  0.78430  0.39600  Biso   1.000  H
  H1072    1.0000 0.21580  0.77920  0.42690  Biso   1.000  H
  C986     1.0000 0.35960  0.92170  0.95388  Biso   1.000  C
  C987     1.0000 0.36270  0.89370  0.90355  Biso   1.000  C
  B33      1.0000 0.35640  0.93890  0.98147  Biso   1.000  B
  O230     1.0000 0.35820  0.97199  0.97510  Biso   1.000  O
  N107     1.0000 0.36050  0.99340  0.99588  Biso   1.000  N
  C988     1.0000 0.36200  0.02130  0.98808  Biso   1.000  C
  H1073    1.0000 0.36180  0.02460  0.96960  Biso   1.000  H
  C989     1.0000 0.36400  0.04887  0.00468  Biso   1.000  C
  C990     1.0000 0.36300  0.04770  0.03275  Biso   1.000  C
  C991     1.0000 0.36600  0.07670  0.04650  Biso   1.000  C
  C992     1.0000 0.37080  0.10420  0.03208  Biso   1.000  C
  H1074    1.0000 0.37400  0.12320  0.04160  Biso   1.000  H
  C993     1.0000 0.37110  0.10560  0.00522  Biso   1.000  C
  C994     1.0000 0.36820  0.07780  0.99170  Biso   1.000  C
  H1075    1.0000 0.36910  0.07800  0.97300  Biso   1.000  H
  C995     1.0000 0.36410  0.07940  0.07461  Biso   1.000  C
  H1076    1.0000 0.36610  0.10000  0.08160  Biso   1.000  H
  N108     1.0000 0.36020  0.05772  0.09120  Biso   1.000  N
  O231     1.0000 0.35930  0.06835  0.11663  Biso   1.000  O
  B34      1.0000 0.35430  0.04460  0.13696  Biso   1.000  B
  O232     1.0000 0.38880  0.92846  0.99683  Biso   1.000  O
  N109     1.0000 0.39480  0.94160  0.02149  Biso   1.000  N
  C996     1.0000 0.42730  0.93550  0.03066  Biso   1.000  C
  H1077    1.0000 0.44290  0.92280  0.02020  Biso   1.000  H
  C997     1.0000 0.44230  0.94620  0.05553  Biso   1.000  C
  C998     1.0000 0.42200  0.96430  0.07426  Biso   1.000  C
  C999     1.0000 0.44190  0.97320  0.09784  Biso   1.000  C
  C1000    1.0000 0.47970  0.96550  0.10128  Biso   1.000  C
  H1078    1.0000 0.49250  0.97220  0.11690  Biso   1.000  H
  C1001    1.0000 0.49950  0.94840  0.08298  Biso   1.000  C
  C1002    1.0000 0.48010  0.93900  0.06074  Biso   1.000  C
  H1079    1.0000 0.49300  0.92690  0.04820  Biso   1.000  H
  C1003    1.0000 0.42520  0.99200  0.11828  Biso   1.000  C
  H1080    1.0000 0.43900  0.99440  0.13440  Biso   1.000  H
  N110     1.0000 0.39370  0.00542  0.11627  Biso   1.000  N
  O233     1.0000 0.38530  0.02119  0.13872  Biso   1.000  O
  C1004    1.0000 0.35420  0.06220  0.16486  Biso   1.000  C
  C1005    1.0000 0.38630  0.06410  0.18114  Biso   1.000  C
  H1081    1.0000 0.40850  0.05410  0.17580  Biso   1.000  H
  C1006    1.0000 0.38640  0.08030  0.20488  Biso   1.000  C
  H1082    1.0000 0.40880  0.08210  0.21520  Biso   1.000  H
  C1007    1.0000 0.35380  0.09388  0.21356  Biso   1.000  C
  C1008    1.0000 0.32140  0.09160  0.19829  Biso   1.000  C
  H1083    1.0000 0.29900  0.10090  0.20400  Biso   1.000  H
  C1009    1.0000 0.32190  0.07570  0.17444  Biso   1.000  C
  H1084    1.0000 0.29930  0.07390  0.16430  Biso   1.000  H
  C1010    1.0000 0.36350  0.88080  0.87627  Biso   1.000  C
  O234     1.0000 0.35142  0.85353  0.87224  Biso   1.000  O
  O235     1.0000 0.38000  0.89560  0.85928  Biso   1.000  O
  O236     1.0000 0.36210  0.02162  0.04478  Biso   1.000  O
  C1011    1.0000 0.37600  0.13700  0.99110  Biso   1.000  C
  O237     1.0000 0.38780  0.97147  0.07011  Biso   1.000  O
  C1012    1.0000 0.54070  0.93920  0.08670  Biso   1.000  C
  C1013    1.0000 0.54570  0.90340  0.08430  Biso   1.000  C
  H1085    1.0000 0.53570  0.89630  0.06720  Biso   1.000  H
  H1086    1.0000 0.57220  0.89810  0.08600  Biso   1.000  H
  H1087    1.0000 0.53210  0.89300  0.09840  Biso   1.000  H
  C1014    1.0000 0.56330  0.95380  0.06450  Biso   1.000  C
  H1088    1.0000 0.55230  0.94770  0.04740  Biso   1.000  H
  H1089    1.0000 0.56290  0.97660  0.06610  Biso   1.000  H
  H1090    1.0000 0.58920  0.94640  0.06580  Biso   1.000  H
  C1015    1.0000 0.55660  0.94790  0.11330  Biso   1.000  C
  H1091    1.0000 0.54160  0.93820  0.12700  Biso   1.000  H
  H1092    1.0000 0.58240  0.94040  0.11500  Biso   1.000  H
  H1093    1.0000 0.55610  0.97070  0.11530  Biso   1.000  H
  C1016    1.0000 0.35360  0.10984  0.23994  Biso   1.000  C
  O238     1.0000 0.38474  0.11289  0.25189  Biso   1.000  O
  O239     1.0000 0.32225  0.11917  0.24786  Biso   1.000  O
  O240     1.0000 0.32520  0.92620  0.99680  Biso   1.000  O
  C1017    1.0000 0.34800  0.87770  0.92440  Biso   1.000  C
  H1094    1.0000 0.33880  0.85710  0.92190  Biso   1.000  H
  C1018    1.0000 0.34650  0.89160  0.94900  Biso   1.000  C
  H1095    1.0000 0.33620  0.88010  0.96310  Biso   1.000  H
  C1019    1.0000 0.37590  0.93700  0.93260  Biso   1.000  C
  H1096    1.0000 0.38640  0.95710  0.93540  Biso   1.000  H
  C1020    1.0000 0.37730  0.92390  0.90770  Biso   1.000  C
  H1097    1.0000 0.38790  0.93520  0.89370  Biso   1.000  H
  N111     1.0000 0.31790  0.94170  0.01930  Biso   1.000  N
  C1021    1.0000 0.28870  0.93050  0.02920  Biso   1.000  C
  H1098    1.0000 0.27580  0.91440  0.01970  Biso   1.000  H
  C1022    1.0000 0.27370  0.94050  0.05400  Biso   1.000  C
  C1023    1.0000 0.29080  0.96350  0.07100  Biso   1.000  C
  C1024    1.0000 0.27370  0.96920  0.09570  Biso   1.000  C
  C1025    1.0000 0.24100  0.95320  0.10230  Biso   1.000  C
  H1099    1.0000 0.23050  0.95690  0.11900  Biso   1.000  H
  C1026    1.0000 0.22400  0.93230  0.08520  Biso   1.000  C
  C1027    1.0000 0.24060  0.92620  0.06160  Biso   1.000  C
  H1100    1.0000 0.22900  0.91160  0.04990  Biso   1.000  H
  C1028    1.0000 0.28800  0.99100  0.11520  Biso   1.000  C
  H1101    1.0000 0.27430  0.99300  0.13090  Biso   1.000  H
  N112     1.0000 0.31700  0.00770  0.11340  Biso   1.000  N
  O241     1.0000 0.32190  0.02440  0.13610  Biso   1.000  O
  O242     1.0000 0.31930  0.97830  0.06410  Biso   1.000  O
  C1029    1.0000 0.18720  0.91660  0.09230  Biso   1.000  C
  C1030    1.0000 0.19640  0.88170  0.09230  Biso   1.000  C
  H1102    1.0000 0.20340  0.87520  0.07460  Biso   1.000  H
  H1103    1.0000 0.21720  0.87760  0.10480  Biso   1.000  H
  H1104    1.0000 0.17450  0.86980  0.09760  Biso   1.000  H
  C1031    1.0000 0.15650  0.92440  0.07210  Biso   1.000  C
  H1105    1.0000 0.16410  0.91750  0.05460  Biso   1.000  H
  H1106    1.0000 0.13350  0.91350  0.07670  Biso   1.000  H
  H1107    1.0000 0.15220  0.94700  0.07190  Biso   1.000  H
  C1032    1.0000 0.17620  0.92690  0.11960  Biso   1.000  C
  H1108    1.0000 0.19630  0.92170  0.13230  Biso   1.000  H
  H1109    1.0000 0.17200  0.94950  0.11960  Biso   1.000  H
  H1110    1.0000 0.15330  0.91610  0.12440  Biso   1.000  H
  C1033    1.0000 0.72430  0.77126  0.30169  Biso   1.000  C
  C1034    1.0000 0.71910  0.74677  0.28380  Biso   1.000  C
  H1111    1.0000 0.69990  0.74870  0.27070  Biso   1.000  H
  C1035    1.0000 0.74050  0.72006  0.28420  Biso   1.000  C
  H1112    1.0000 0.73630  0.70420  0.27130  Biso   1.000  H
  C1036    1.0000 0.76840  0.71636  0.30358  Biso   1.000  C
  C1037    1.0000 0.77520  0.74060  0.32128  Biso   1.000  C
  H1113    1.0000 0.79470  0.73890  0.33430  Biso   1.000  H
  C1038    1.0000 0.75350  0.76718  0.31982  Biso   1.000  C
  H1114    1.0000 0.75890  0.78360  0.33190  Biso   1.000  H
  B35      1.0000 0.69700  0.80100  0.30210  Biso   1.000  B
  O243     1.0000 0.72080  0.82932  0.30344  Biso   1.000  O
  N113     1.0000 0.70160  0.85825  0.30540  Biso   1.000  N
  C1039    1.0000 0.72390  0.88130  0.30510  Biso   1.000  C
  H1115    1.0000 0.74970  0.87680  0.30320  Biso   1.000  H
  C1040    1.0000 0.71340  0.91376  0.30721  Biso   1.000  C
  C1041    1.0000 0.67610  0.92374  0.31036  Biso   1.000  C
  C1042    1.0000 0.67022  0.95658  0.31332  Biso   1.000  C
  C1043    1.0000 0.70075  0.97757  0.31298  Biso   1.000  C
  H1116    1.0000 0.69620  0.99930  0.31500  Biso   1.000  H
  C1044    1.0000 0.73692  0.96731  0.30984  Biso   1.000  C
  C1045    1.0000 0.74260  0.93531  0.30730  Biso   1.000  C
  H1117    1.0000 0.76730  0.92780  0.30560  Biso   1.000  H
  C1046    1.0000 0.63315  0.97029  0.31494  Biso   1.000  C
  H1118    1.0000 0.63220  0.99220  0.31780  Biso   1.000  H
  N114     1.0000 0.60203  0.95645  0.31302  Biso   1.000  N
  O244     1.0000 0.57215  0.97662  0.31448  Biso   1.000  O
  B36      1.0000 0.53430  0.96300  0.31100  Biso   1.000  B
  O245     1.0000 0.67640  0.79622  0.32567  Biso   1.000  O
  N115     1.0000 0.64860  0.81800  0.33043  Biso   1.000  N
  C1047    1.0000 0.63250  0.81210  0.35180  Biso   1.000  C
  H1119    1.0000 0.64060  0.79390  0.36100  Biso   1.000  H
  C1048    1.0000 0.60330  0.83020  0.36346  Biso   1.000  C
  C1049    1.0000 0.58810  0.85760  0.35159  Biso   1.000  C
  C1050    1.0000 0.56130  0.87436  0.36672  Biso   1.000  C
  C1051    1.0000 0.55070  0.86350  0.39135  Biso   1.000  C
  H1120    1.0000 0.53260  0.87500  0.40070  Biso   1.000  H
  C1052    1.0000 0.56550  0.83660  0.40275  Biso   1.000  C
  C1053    1.0000 0.59130  0.82070  0.38810  Biso   1.000  C
  H1121    1.0000 0.60160  0.80200  0.39530  Biso   1.000  H
  C1054    1.0000 0.54410  0.90291  0.35754  Biso   1.000  C
  H1122    1.0000 0.52710  0.91240  0.36910  Biso   1.000  H
  N116     1.0000 0.54880  0.91681  0.33604  Biso   1.000  N
  O246     1.0000 0.52547  0.94172  0.33268  Biso   1.000  O
  O247     1.0000 0.67530  0.80011  0.27758  Biso   1.000  O
  N117     1.0000 0.64970  0.82440  0.27403  Biso   1.000  N
  C1055    1.0000 0.63490  0.82360  0.25120  Biso   1.000  C
  H1123    1.0000 0.64350  0.80750  0.24000  Biso   1.000  H
  C1056    1.0000 0.60680  0.84410  0.23993  Biso   1.000  C
  C1057    1.0000 0.59200  0.86960  0.25487  Biso   1.000  C
  C1058    1.0000 0.56540  0.88910  0.24157  Biso   1.000  C
  C1059    1.0000 0.55460  0.88280  0.21541  Biso   1.000  C
  C1060    1.0000 0.59440  0.83940  0.21403  Biso   1.000  C
  C1061    1.0000 0.54790  0.91610  0.25402  Biso   1.000  C
  H1124    1.0000 0.53260  0.92910  0.24310  Biso   1.000  H
  N118     1.0000 0.55140  0.92343  0.27821  Biso   1.000  N
  O248     1.0000 0.52820  0.94841  0.28476  Biso   1.000  O
  C1062    1.0000 0.50534  0.99142  0.31092  Biso   1.000  C
  C1063    1.0000 0.51150  0.01961  0.29800  Biso   1.000  C
  H1125    1.0000 0.53460  0.02270  0.28960  Biso   1.000  H
  C1064    1.0000 0.48511  0.04322  0.29713  Biso   1.000  C
  H1126    1.0000 0.49020  0.06220  0.28820  Biso   1.000  H
  C1065    1.0000 0.45112  0.03924  0.30924  Biso   1.000  C
  C1066    1.0000 0.44450  0.01200  0.32271  Biso   1.000  C
  H1127    1.0000 0.42170  0.00930  0.33160  Biso   1.000  H
  C1067    1.0000 0.47115  0.98849  0.32335  Biso   1.000  C
  H1128    1.0000 0.46600  0.96970  0.33260  Biso   1.000  H
  C1068    1.0000 0.78980  0.68650  0.30650  Biso   1.000  C
  O249     1.0000 0.78412  0.66651  0.28875  Biso   1.000  O
  O250     1.0000 0.81244  0.68449  0.32571  Biso   1.000  O
  O251     1.0000 0.64884  0.90421  0.31110  Biso   1.000  O
  C1069    1.0000 0.76980  0.98983  0.30810  Biso   1.000  C
  O252     1.0000 0.59940  0.86785  0.32996  Biso   1.000  O
  C1070    1.0000 0.55270  0.82490  0.42960  Biso   1.000  C
  O253     1.0000 0.60200  0.87411  0.27922  Biso   1.000  O
  C1071    1.0000 0.42182  0.06436  0.30793  Biso   1.000  C
  O254     1.0000 0.43099  0.09035  0.29877  Biso   1.000  O
  O255     1.0000 0.39018  0.05750  0.31497  Biso   1.000  O
  C1072    1.0000 0.56570  0.85630  0.20190  Biso   1.000  C
  C1073    1.0000 0.77820  0.01000  0.33160  Biso   1.000  C
  H1129    1.0000 0.75500  0.01880  0.33800  Biso   1.000  H
  H1130    1.0000 0.79030  0.99740  0.34550  Biso   1.000  H
  H1131    1.0000 0.79500  0.02700  0.32660  Biso   1.000  H
  C1074    1.0000 0.75860  0.01270  0.28460  Biso   1.000  C
  H1132    1.0000 0.75280  0.00040  0.26880  Biso   1.000  H
  H1133    1.0000 0.73670  0.02490  0.28930  Biso   1.000  H
  H1134    1.0000 0.77940  0.02680  0.28130  Biso   1.000  H
  C1075    1.0000 0.80560  0.97620  0.29800  Biso   1.000  C
  H1135    1.0000 0.79990  0.96300  0.28270  Biso   1.000  H
  H1136    1.0000 0.82230  0.99310  0.29300  Biso   1.000  H
  H1137    1.0000 0.81760  0.96350  0.31190  Biso   1.000  H
  C1076    1.0000 0.57400  0.79660  0.44050  Biso   1.000  C
  H1138    1.0000 0.57370  0.77990  0.42740  Biso   1.000  H
  H1139    1.0000 0.59990  0.80260  0.44470  Biso   1.000  H
  H1140    1.0000 0.56210  0.78930  0.45650  Biso   1.000  H
  C1077    1.0000 0.51290  0.81260  0.42280  Biso   1.000  C
  H1141    1.0000 0.49760  0.82970  0.41560  Biso   1.000  H
  H1142    1.0000 0.51430  0.79580  0.40980  Biso   1.000  H
  H1143    1.0000 0.50160  0.80450  0.43880  Biso   1.000  H
  C1078    1.0000 0.55170  0.85240  0.44870  Biso   1.000  C
  H1144    1.0000 0.53770  0.86970  0.44060  Biso   1.000  H
  H1145    1.0000 0.53940  0.84580  0.46490  Biso   1.000  H
  H1146    1.0000 0.57720  0.85920  0.45310  Biso   1.000  H
  C1079    1.0000 0.54390  0.84370  0.17770  Biso   1.000  C
  C1080    1.0000 0.55920  0.81300  0.16780  Biso   1.000  C
  H1147    1.0000 0.55690  0.79700  0.18150  Biso   1.000  H
  H1148    1.0000 0.54500  0.80650  0.15190  Biso   1.000  H
  H1149    1.0000 0.58550  0.81560  0.16360  Biso   1.000  H
  C1081    1.0000 0.54730  0.86880  0.15660  Biso   1.000  C
  H1150    1.0000 0.53740  0.88860  0.16310  Biso   1.000  H
  H1151    1.0000 0.57370  0.87150  0.15240  Biso   1.000  H
  H1152    1.0000 0.53320  0.86240  0.14070  Biso   1.000  H
  C1082    1.0000 0.50260  0.83770  0.18240  Biso   1.000  C
  H1153    1.0000 0.49100  0.85690  0.18890  Biso   1.000  H
  H1154    1.0000 0.49010  0.83130  0.16590  Biso   1.000  H
  H1155    1.0000 0.50010  0.82110  0.19550  Biso   1.000  H
  C1083    1.0000 0.40780  0.13630  0.97150  Biso   1.000  C
  H1156    1.0000 0.40440  0.11830  0.95980  Biso   1.000  H
  H1157    1.0000 0.40750  0.15560  0.96120  Biso   1.000  H
  H1158    1.0000 0.43170  0.13440  0.98120  Biso   1.000  H
  C1084    1.0000 0.38160  0.16520  0.00940  Biso   1.000  C
  H1159    1.0000 0.36140  0.16590  0.02200  Biso   1.000  H
  H1160    1.0000 0.40560  0.16330  0.01890  Biso   1.000  H
  H1161    1.0000 0.38140  0.18440  0.99890  Biso   1.000  H
  C1085    1.0000 0.33870  0.14400  0.97610  Biso   1.000  C
  H1162    1.0000 0.33300  0.12690  0.96380  Biso   1.000  H
  H1163    1.0000 0.31860  0.14590  0.98870  Biso   1.000  H
  H1164    1.0000 0.34090  0.16360  0.96630  Biso   1.000  H
  C1086    1.0000 0.23210  0.98950  0.30820  Biso   1.000  C
  H1165    1.0000 0.23970  0.96960  0.31460  Biso   1.000  H
  C1087    1.0000 0.25830  0.01330  0.30710  Biso   1.000  C
  H1166    1.0000 0.28340  0.00940  0.31250  Biso   1.000  H
  C1088    1.0000 0.21220  0.04720  0.28800  Biso   1.000  C
  H1167    1.0000 0.20510  0.06660  0.28040  Biso   1.000  H
  C1089    1.0000 0.18660  0.02300  0.28890  Biso   1.000  C
  H1168    1.0000 0.16220  0.02630  0.28150  Biso   1.000  H
  C1090    1.0000 0.11190  0.82040  0.15620  Biso   1.000  C
  H1169    1.0000 0.08560  0.82650  0.15690  Biso   1.000  H
  H1170    1.0000 0.11890  0.81810  0.13780  Biso   1.000  H
  H1171    1.0000 0.11560  0.80040  0.16530  Biso   1.000  H
  C1091    1.0000 0.17730  0.83770  0.16910  Biso   1.000  C
  H1172    1.0000 0.19110  0.85470  0.17790  Biso   1.000  H
  H1173    1.0000 0.18210  0.81800  0.17850  Biso   1.000  H
  H1174    1.0000 0.18540  0.83580  0.15100  Biso   1.000  H
  C1092    1.0000 0.12770  0.87440  0.15180  Biso   1.000  C
  H1175    1.0000 0.14220  0.89210  0.15880  Biso   1.000  H
  H1176    1.0000 0.13480  0.87020  0.13370  Biso   1.000  H
  H1177    1.0000 0.10110  0.87940  0.15210  Biso   1.000  H
  O256     1.0000 0.31750  0.93680  0.99080  Biso   1.000  O
  C1093    1.0000 0.38960  0.92630  0.93750  Biso   1.000  C
  H1178    1.0000 0.40970  0.93910  0.94360  Biso   1.000  H
  C1094    1.0000 0.39140  0.91300  0.91280  Biso   1.000  C
  H1179    1.0000 0.41220  0.91700  0.90210  Biso   1.000  H
  C1095    1.0000 0.33380  0.88640  0.92030  Biso   1.000  C
  H1180    1.0000 0.31520  0.87170  0.91490  Biso   1.000  H
  C1096    1.0000 0.33230  0.90060  0.94470  Biso   1.000  C
  H1181    1.0000 0.31200  0.89590  0.95570  Biso   1.000  H
  N119     1.0000 0.30970  0.95140  0.01520  Biso   1.000  N
  C1097    1.0000 0.27580  0.94700  0.02080  Biso   1.000  C
  H1182    1.0000 0.26060  0.93560  0.00850  Biso   1.000  H
  C1098    1.0000 0.25830  0.95810  0.04460  Biso   1.000  C
  C1099    1.0000 0.27800  0.97640  0.06430  Biso   1.000  C
  C1100    1.0000 0.25680  0.98830  0.08570  Biso   1.000  C
  C1101    1.0000 0.21860  0.98130  0.08700  Biso   1.000  C
  H1183    1.0000 0.20480  0.98990  0.10100  Biso   1.000  H
  C1102    1.0000 0.20030  0.96200  0.06850  Biso   1.000  C
  C1103    1.0000 0.22050  0.95140  0.04750  Biso   1.000  C
  H1184    1.0000 0.20800  0.93910  0.03440  Biso   1.000  H
  C1104    1.0000 0.27360  0.00610  0.10700  Biso   1.000  C
  H1185    1.0000 0.25720  0.01370  0.12000  Biso   1.000  H
  N120     1.0000 0.30790  0.01280  0.11020  Biso   1.000  N
  O257     1.0000 0.31640  0.03100  0.13210  Biso   1.000  O
  O258     1.0000 0.31340  0.98110  0.06340  Biso   1.000  O
  C1105    1.0000 0.15930  0.95350  0.07270  Biso   1.000  C
  C1106    1.0000 0.14150  0.93690  0.04960  Biso   1.000  C
  H1186    1.0000 0.14470  0.94940  0.03360  Biso   1.000  H
  H1187    1.0000 0.15330  0.91640  0.04740  Biso   1.000  H
  H1188    1.0000 0.11480  0.93410  0.05260  Biso   1.000  H
  C1107    1.0000 0.13720  0.98400  0.07600  Biso   1.000  C
  H1189    1.0000 0.14780  0.99580  0.09100  Biso   1.000  H
  H1190    1.0000 0.13880  0.99670  0.06000  Biso   1.000  H
  H1191    1.0000 0.11100  0.97910  0.07930  Biso   1.000  H
  C1108    1.0000 0.15610  0.93620  0.09890  Biso   1.000  C
  H1192    1.0000 0.16830  0.94850  0.11290  Biso   1.000  H
  H1193    1.0000 0.12960  0.93340  0.10280  Biso   1.000  H
  H1194    1.0000 0.16820  0.91570  0.09770  Biso   1.000  H
  C1109    1.0000 0.41560  0.14970  0.99910  Biso   1.000  C
  H1195    1.0000 0.41740  0.15210  0.01830  Biso   1.000  H
  H1196    1.0000 0.43460  0.13490  0.99340  Biso   1.000  H
  H1197    1.0000 0.41950  0.17000  0.99070  Biso   1.000  H
  C1110    1.0000 0.34820  0.16180  0.99900  Biso   1.000  C
  H1198    1.0000 0.34860  0.16380  0.01830  Biso   1.000  H
  H1199    1.0000 0.35490  0.18190  0.99120  Biso   1.000  H
  H1200    1.0000 0.32310  0.15570  0.99280  Biso   1.000  H
  C1111    1.0000 0.37540  0.13400  0.96140  Biso   1.000  C
  H1201    1.0000 0.39340  0.11800  0.95630  Biso   1.000  H
  H1202    1.0000 0.35030  0.12800  0.95520  Biso   1.000  H
  H1203    1.0000 0.38210  0.15410  0.95360  Biso   1.000  H
  C1112    1.0000 0.80000  0.97980  0.32910  Biso   1.000  C
  H1204    1.0000 0.80790  0.95830  0.32570  Biso   1.000  H
  H1205    1.0000 0.82160  0.99380  0.32820  Biso   1.000  H
  H1206    1.0000 0.78960  0.98110  0.34670  Biso   1.000  H
  C1113    1.0000 0.75980  0.02290  0.31520  Biso   1.000  C
  H1207    1.0000 0.74770  0.02310  0.33230  Biso   1.000  H
  H1208    1.0000 0.78260  0.03570  0.31640  Biso   1.000  H
  H1209    1.0000 0.74280  0.03160  0.30170  Biso   1.000  H
  C1114    1.0000 0.78880  0.98830  0.28170  Biso   1.000  C
  H1210    1.0000 0.79490  0.96650  0.27770  Biso   1.000  H
  H1211    1.0000 0.77200  0.99670  0.26790  Biso   1.000  H
  H1212    1.0000 0.81180  0.00080  0.28260  Biso   1.000  H
  C1115    1.0000 0.54420  0.78990  0.42830  Biso   1.000  C
  H1213    1.0000 0.56570  0.77870  0.42130  Biso   1.000  H
  H1214    1.0000 0.53910  0.78210  0.44600  Biso   1.000  H
  H1215    1.0000 0.52230  0.78630  0.41670  Biso   1.000  H
  C1116    1.0000 0.51990  0.84330  0.44030  Biso   1.000  C
  H1216    1.0000 0.52620  0.86560  0.44090  Biso   1.000  H
  H1217    1.0000 0.49780  0.84020  0.42880  Biso   1.000  H
  H1218    1.0000 0.51470  0.83600  0.45810  Biso   1.000  H
  C1117    1.0000 0.58430  0.83000  0.45050  Biso   1.000  C
  H1219    1.0000 0.59030  0.85230  0.45170  Biso   1.000  H
  H1220    1.0000 0.57610  0.82250  0.46770  Biso   1.000  H
  H1221    1.0000 0.60660  0.81830  0.44550  Biso   1.000  H
  C1118    1.0000 0.57150  0.86010  0.20040  Biso   1.000  C
  C1119    1.0000 0.57140  0.86230  0.17030  Biso   1.000  C
  C1120    1.0000 0.58300  0.83170  0.15800  Biso   1.000  C
  H1222    1.0000 0.60780  0.82570  0.16490  Biso   1.000  H
  H1223    1.0000 0.56490  0.81540  0.16230  Biso   1.000  H
  H1224    1.0000 0.58380  0.83410  0.13880  Biso   1.000  H
  C1121    1.0000 0.53310  0.87400  0.16100  Biso   1.000  C
  H1225    1.0000 0.52760  0.89380  0.16970  Biso   1.000  H
  H1226    1.0000 0.53300  0.87720  0.14190  Biso   1.000  H
  H1227    1.0000 0.51410  0.85850  0.16530  Biso   1.000  H
  C1122    1.0000 0.60010  0.88580  0.15990  Biso   1.000  C
  H1228    1.0000 0.59490  0.90660  0.16690  Biso   1.000  H
  H1229    1.0000 0.62530  0.87930  0.16560  Biso   1.000  H
  H1230    1.0000 0.59840  0.88630  0.14060  Biso   1.000  H
  Zn61     1.0000 0.61411  0.59147  0.80203  Biso   1.000  Zn
  Zn62     1.0000 0.56608  0.64706  0.80369  Biso   1.000  Zn
  Zn63     1.0000 0.14252  0.64415  0.80492  Biso   1.000  Zn
  Zn64     1.0000 0.08986  0.59176  0.80788  Biso   1.000  Zn
  Zn65     1.0000 0.85613  0.52532  0.53419  Biso   1.000  Zn
  Zn66     1.0000 0.85575  0.49110  0.58430  Biso   1.000  Zn
  Zn67     1.0000 0.89609  0.37672  0.78849  Biso   1.000  Zn
  Zn68     1.0000 0.84691  0.41760  0.82737  Biso   1.000  Zn
  Zn69     1.0000 0.80781  0.37436  0.78468  Biso   1.000  Zn
  Zn70     1.0000 0.85266  0.34527  0.83414  Biso   1.000  Zn
  O259     1.0000 0.85070  0.37779  0.80789  Biso   1.000  O
  C1123    1.0000 0.48840  0.73448  0.80556  Biso   1.000  C
  C1124    1.0000 0.49000  0.75859  0.78685  Biso   1.000  C
  H1231    1.0000 0.50690  0.75660  0.77290  Biso   1.000  H
  C1125    1.0000 0.46790  0.78507  0.78792  Biso   1.000  C
  H1232    1.0000 0.46930  0.80050  0.77450  Biso   1.000  H
  C1126    1.0000 0.44360  0.78920  0.80837  Biso   1.000  C
  C1127    1.0000 0.44080  0.76552  0.82695  Biso   1.000  C
  H1233    1.0000 0.42410  0.76780  0.84100  Biso   1.000  H
  C1128    1.0000 0.46220  0.73867  0.82524  Biso   1.000  C
  H1234    1.0000 0.45900  0.72250  0.83780  Biso   1.000  H
  B37      1.0000 0.51480  0.70420  0.80470  Biso   1.000  B
  O260     1.0000 0.54603  0.71038  0.82412  Biso   1.000  O
  N121     1.0000 0.57190  0.68698  0.82771  Biso   1.000  N
  C1129    1.0000 0.59530  0.69270  0.84610  Biso   1.000  C
  H1235    1.0000 0.59280  0.71230  0.85470  Biso   1.000  H
  C1130    1.0000 0.62540  0.67280  0.85570  Biso   1.000  C
  C1131    1.0000 0.63400  0.64370  0.84350  Biso   1.000  C
  C1132    1.0000 0.66540  0.62680  0.85490  Biso   1.000  C
  C1133    1.0000 0.68460  0.63740  0.87750  Biso   1.000  C
  H1236    1.0000 0.70430  0.62510  0.88490  Biso   1.000  H
  C1134    1.0000 0.67540  0.66540  0.88940  Biso   1.000  C
  C1135    1.0000 0.64590  0.68250  0.87810  Biso   1.000  C
  H1237    1.0000 0.63940  0.70180  0.88610  Biso   1.000  H
  C1136    1.0000 0.67750  0.59790  0.84370  Biso   1.000  C
  H1238    1.0000 0.70020  0.58940  0.85060  Biso   1.000  H
  N122     1.0000 0.66110  0.58240  0.82560  Biso   1.000  N
  O261     1.0000 0.68070  0.55563  0.82061  Biso   1.000  O
  B38      1.0000 0.66540  0.53380  0.80100  Biso   1.000  B
  O262     1.0000 0.49202  0.67785  0.81328  Biso   1.000  O
  N123     1.0000 0.50950  0.64845  0.81296  Biso   1.000  N
  C1137    1.0000 0.48670  0.62688  0.81840  Biso   1.000  C
  H1239    1.0000 0.46190  0.63320  0.82190  Biso   1.000  H
  C1138    1.0000 0.49430  0.59331  0.81980  Biso   1.000  C
  C1139    1.0000 0.53050  0.58084  0.81620  Biso   1.000  C
  C1140    1.0000 0.53420  0.54799  0.81770  Biso   1.000  C
  C1141    1.0000 0.50230  0.52900  0.82100  Biso   1.000  C
  H1240    1.0000 0.50530  0.50700  0.82100  Biso   1.000  H
  C1142    1.0000 0.46680  0.54125  0.82430  Biso   1.000  C
  C1143    1.0000 0.46440  0.57364  0.82470  Biso   1.000  C
  H1241    1.0000 0.44110  0.58290  0.82860  Biso   1.000  H
  C1144    1.0000 0.56890  0.53120  0.81410  Biso   1.000  C
  H1242    1.0000 0.56860  0.50910  0.81610  Biso   1.000  H
  N124     1.0000 0.59960  0.54403  0.80840  Biso   1.000  N
  O263     1.0000 0.62846  0.52155  0.80608  Biso   1.000  O
  O264     1.0000 0.52751  0.70150  0.77787  Biso   1.000  O
  N125     1.0000 0.55180  0.67757  0.77252  Biso   1.000  N
  C1145    1.0000 0.56160  0.67863  0.74876  Biso   1.000  C
  H1243    1.0000 0.55070  0.69460  0.73800  Biso   1.000  H
  C1146    1.0000 0.58810  0.65768  0.73636  Biso   1.000  C
  C1147    1.0000 0.60360  0.63124  0.74993  Biso   1.000  C
  C1148    1.0000 0.62940  0.61233  0.73570  Biso   1.000  C
  C1149    1.0000 0.63900  0.62100  0.71024  Biso   1.000  C
  H1244    1.0000 0.65680  0.60860  0.70150  Biso   1.000  H
  C1150    1.0000 0.62410  0.64660  0.69706  Biso   1.000  C
  C1151    1.0000 0.59820  0.66460  0.71039  Biso   1.000  C
  H1245    1.0000 0.58700  0.68210  0.70170  Biso   1.000  H
  C1152    1.0000 0.64690  0.58470  0.74693  Biso   1.000  C
  H1246    1.0000 0.66210  0.57280  0.73560  Biso   1.000  H
  N126     1.0000 0.64400  0.57460  0.77024  Biso   1.000  N
  O265     1.0000 0.66580  0.54780  0.77429  Biso   1.000  O
  C1153    1.0000 0.69490  0.50597  0.80001  Biso   1.000  C
  C1154    1.0000 0.74800  0.45689  0.79822  Biso   1.000  C
  C1155    1.0000 0.41980  0.81810  0.80998  Biso   1.000  C
  O266     1.0000 0.42269  0.83762  0.79185  Biso   1.000  O
  O267     1.0000 0.39757  0.81897  0.82880  Biso   1.000  O
  O268     1.0000 0.61660  0.63417  0.82314  Biso   1.000  O
  C1156    1.0000 0.69630  0.67740  0.91410  Biso   1.000  C
  O269     1.0000 0.55866  0.59916  0.81153  Biso   1.000  O
  C1157    1.0000 0.43200  0.52050  0.82660  Biso   1.000  C
  C1158    1.0000 0.40580  0.52360  0.80130  Biso   1.000  C
  H1247    1.0000 0.41870  0.51540  0.78600  Biso   1.000  H
  H1248    1.0000 0.39940  0.54560  0.79840  Biso   1.000  H
  H1249    1.0000 0.38290  0.51150  0.80380  Biso   1.000  H
  C1159    1.0000 0.40600  0.53410  0.84580  Biso   1.000  C
  H1250    1.0000 0.40310  0.55650  0.84230  Biso   1.000  H
  H1251    1.0000 0.41610  0.53100  0.86370  Biso   1.000  H
  H1252    1.0000 0.38170  0.52380  0.84390  Biso   1.000  H
  C1160    1.0000 0.44190  0.48640  0.82710  Biso   1.000  C
  H1253    1.0000 0.45930  0.48190  0.81300  Biso   1.000  H
  H1254    1.0000 0.41920  0.47390  0.82440  Biso   1.000  H
  H1255    1.0000 0.45360  0.48110  0.84420  Biso   1.000  H
  O270     1.0000 0.59467  0.62397  0.77388  Biso   1.000  O
  C1161    1.0000 0.63580  0.65510  0.66918  Biso   1.000  C
  C1162    1.0000 0.77630  0.43161  0.79630  Biso   1.000  C
  O271     1.0000 0.80915  0.43858  0.80389  Biso   1.000  O
  O272     1.0000 0.76771  0.40515  0.78711  Biso   1.000  O
  C1163    1.0000 0.72410  0.50340  0.81910  Biso   1.000  C
  H1256    1.0000 0.72590  0.51820  0.83290  Biso   1.000  H
  C1164    1.0000 0.75030  0.47960  0.81800  Biso   1.000  C
  H1257    1.0000 0.77000  0.47870  0.83080  Biso   1.000  H
  C1165    1.0000 0.71860  0.45820  0.77990  Biso   1.000  C
  H1258    1.0000 0.71600  0.44260  0.76670  Biso   1.000  H
  C1166    1.0000 0.69320  0.48250  0.78110  Biso   1.000  C
  H1259    1.0000 0.67340  0.48310  0.76830  Biso   1.000  H
  C1167    1.0000 0.60570  0.65090  0.64840  Biso   1.000  C
  H1260    1.0000 0.58230  0.66000  0.65460  Biso   1.000  H
  H1261    1.0000 0.60210  0.62860  0.64490  Biso   1.000  H
  H1262    1.0000 0.61300  0.66150  0.63220  Biso   1.000  H
  C1168    1.0000 0.64330  0.69130  0.66850  Biso   1.000  C
  H1263    1.0000 0.66290  0.69660  0.68150  Biso   1.000  H
  H1264    1.0000 0.62030  0.70260  0.67250  Biso   1.000  H
  H1265    1.0000 0.65130  0.69730  0.65090  Biso   1.000  H
  C1169    1.0000 0.67320  0.64180  0.66150  Biso   1.000  C
  H1266    1.0000 0.69150  0.64530  0.67590  Biso   1.000  H
  H1267    1.0000 0.68150  0.65220  0.64560  Biso   1.000  H
  H1268    1.0000 0.67060  0.61930  0.65820  Biso   1.000  H
  C1170    1.0000 0.67110  0.67500  0.93800  Biso   1.000  C
  H1269    1.0000 0.64770  0.68620  0.93430  Biso   1.000  H
  H1270    1.0000 0.68390  0.68440  0.95340  Biso   1.000  H
  H1271    1.0000 0.66580  0.65300  0.94170  Biso   1.000  H
  C1171    1.0000 0.73280  0.66020  0.91970  Biso   1.000  C
  H1272    1.0000 0.74490  0.66870  0.93570  Biso   1.000  H
  H1273    1.0000 0.74930  0.66280  0.90480  Biso   1.000  H
  H1274    1.0000 0.72770  0.63790  0.92230  Biso   1.000  H
  C1172    1.0000 0.70400  0.71260  0.91070  Biso   1.000  C
  H1275    1.0000 0.68040  0.72360  0.90710  Biso   1.000  H
  H1276    1.0000 0.72070  0.71570  0.89600  Biso   1.000  H
  H1277    1.0000 0.71580  0.72080  0.92690  Biso   1.000  H
  C1173    1.0000 0.85960  0.57830  0.45388  Biso   1.000  C
  C1174    1.0000 0.86270  0.60630  0.40355  Biso   1.000  C
  B39      1.0000 0.85640  0.56110  0.48147  Biso   1.000  B
  O273     1.0000 0.85820  0.52801  0.47510  Biso   1.000  O
  N127     1.0000 0.86050  0.50660  0.49588  Biso   1.000  N
  C1175    1.0000 0.86200  0.47870  0.48808  Biso   1.000  C
  H1278    1.0000 0.86180  0.47540  0.46960  Biso   1.000  H
  C1176    1.0000 0.86400  0.45113  0.50468  Biso   1.000  C
  C1177    1.0000 0.86300  0.45230  0.53275  Biso   1.000  C
  C1178    1.0000 0.86600  0.42330  0.54650  Biso   1.000  C
  C1179    1.0000 0.87080  0.39580  0.53208  Biso   1.000  C
  H1279    1.0000 0.87400  0.37680  0.54160  Biso   1.000  H
  C1180    1.0000 0.87110  0.39440  0.50522  Biso   1.000  C
  C1181    1.0000 0.86820  0.42220  0.49170  Biso   1.000  C
  H1280    1.0000 0.86910  0.42200  0.47300  Biso   1.000  H
  C1182    1.0000 0.86410  0.42060  0.57461  Biso   1.000  C
  H1281    1.0000 0.86610  0.40000  0.58160  Biso   1.000  H
  N128     1.0000 0.86020  0.44228  0.59120  Biso   1.000  N
  O274     1.0000 0.85930  0.43165  0.61663  Biso   1.000  O
  B40      1.0000 0.85430  0.45540  0.63696  Biso   1.000  B
  O275     1.0000 0.88880  0.57154  0.49683  Biso   1.000  O
  N129     1.0000 0.89480  0.55840  0.52149  Biso   1.000  N
  C1183    1.0000 0.92730  0.56450  0.53066  Biso   1.000  C
  H1282    1.0000 0.94290  0.57720  0.52020  Biso   1.000  H
  C1184    1.0000 0.94230  0.55380  0.55553  Biso   1.000  C
  C1185    1.0000 0.92200  0.53570  0.57426  Biso   1.000  C
  C1186    1.0000 0.94190  0.52680  0.59784  Biso   1.000  C
  C1187    1.0000 0.97970  0.53450  0.60128  Biso   1.000  C
  H1283    1.0000 0.99250  0.52780  0.61690  Biso   1.000  H
  C1188    1.0000 0.99950  0.55160  0.58298  Biso   1.000  C
  C1189    1.0000 0.98010  0.56100  0.56074  Biso   1.000  C
  H1284    1.0000 0.99300  0.57310  0.54820  Biso   1.000  H
  C1190    1.0000 0.92520  0.50800  0.61828  Biso   1.000  C
  H1285    1.0000 0.93900  0.50560  0.63440  Biso   1.000  H
  N130     1.0000 0.89370  0.49458  0.61627  Biso   1.000  N
  O276     1.0000 0.88530  0.47881  0.63872  Biso   1.000  O
  C1191    1.0000 0.85420  0.43780  0.66486  Biso   1.000  C
  C1192    1.0000 0.88630  0.43590  0.68114  Biso   1.000  C
  H1286    1.0000 0.90850  0.44590  0.67580  Biso   1.000  H
  C1193    1.0000 0.88640  0.41970  0.70488  Biso   1.000  C
  H1287    1.0000 0.90880  0.41790  0.71520  Biso   1.000  H
  C1194    1.0000 0.85380  0.40612  0.71356  Biso   1.000  C
  C1195    1.0000 0.82140  0.40840  0.69829  Biso   1.000  C
  H1288    1.0000 0.79900  0.39910  0.70400  Biso   1.000  H
  C1196    1.0000 0.82190  0.42430  0.67444  Biso   1.000  C
  H1289    1.0000 0.79930  0.42610  0.66430  Biso   1.000  H
  C1197    1.0000 0.86350  0.61920  0.37627  Biso   1.000  C
  O277     1.0000 0.85142  0.64647  0.37224  Biso   1.000  O
  O278     1.0000 0.88000  0.60440  0.35928  Biso   1.000  O
  O279     1.0000 0.86210  0.47838  0.54478  Biso   1.000  O
  C1198    1.0000 0.87600  0.36300  0.49110  Biso   1.000  C
  O280     1.0000 0.88780  0.52853  0.57011  Biso   1.000  O
  C1199    1.0000 0.04070  0.56080  0.58670  Biso   1.000  C
  C1200    1.0000 0.04570  0.59660  0.58430  Biso   1.000  C
  H1290    1.0000 0.03570  0.60370  0.56720  Biso   1.000  H
  H1291    1.0000 0.07220  0.60190  0.58600  Biso   1.000  H
  H1292    1.0000 0.03210  0.60700  0.59840  Biso   1.000  H
  C1201    1.0000 0.06330  0.54620  0.56450  Biso   1.000  C
  H1293    1.0000 0.05230  0.55230  0.54740  Biso   1.000  H
  H1294    1.0000 0.06290  0.52340  0.56610  Biso   1.000  H
  H1295    1.0000 0.08920  0.55360  0.56580  Biso   1.000  H
  C1202    1.0000 0.05660  0.55210  0.61330  Biso   1.000  C
  H1296    1.0000 0.04160  0.56180  0.62700  Biso   1.000  H
  H1297    1.0000 0.08240  0.55960  0.61500  Biso   1.000  H
  H1298    1.0000 0.05610  0.52930  0.61530  Biso   1.000  H
  C1203    1.0000 0.85360  0.39016  0.73994  Biso   1.000  C
  O281     1.0000 0.88474  0.38711  0.75189  Biso   1.000  O
  O282     1.0000 0.82225  0.38083  0.74786  Biso   1.000  O
  O283     1.0000 0.82520  0.57380  0.49680  Biso   1.000  O
  C1204    1.0000 0.84800  0.62230  0.42440  Biso   1.000  C
  H1299    1.0000 0.83880  0.64290  0.42190  Biso   1.000  H
  C1205    1.0000 0.84650  0.60840  0.44900  Biso   1.000  C
  H1300    1.0000 0.83620  0.61990  0.46310  Biso   1.000  H
  C1206    1.0000 0.87590  0.56300  0.43260  Biso   1.000  C
  H1301    1.0000 0.88640  0.54290  0.43540  Biso   1.000  H
  C1207    1.0000 0.87730  0.57610  0.40770  Biso   1.000  C
  H1302    1.0000 0.88790  0.56480  0.39370  Biso   1.000  H
  N131     1.0000 0.81790  0.55830  0.51930  Biso   1.000  N
  C1208    1.0000 0.78870  0.56950  0.52920  Biso   1.000  C
  H1303    1.0000 0.77580  0.58560  0.51970  Biso   1.000  H
  C1209    1.0000 0.77370  0.55950  0.55400  Biso   1.000  C
  C1210    1.0000 0.79080  0.53650  0.57100  Biso   1.000  C
  C1211    1.0000 0.77370  0.53080  0.59570  Biso   1.000  C
  C1212    1.0000 0.74100  0.54680  0.60230  Biso   1.000  C
  H1304    1.0000 0.73050  0.54310  0.61900  Biso   1.000  H
  C1213    1.0000 0.72400  0.56770  0.58520  Biso   1.000  C
  C1214    1.0000 0.74060  0.57380  0.56160  Biso   1.000  C
  H1305    1.0000 0.72900  0.58840  0.54990  Biso   1.000  H
  C1215    1.0000 0.78800  0.50900  0.61520  Biso   1.000  C
  H1306    1.0000 0.77430  0.50700  0.63090  Biso   1.000  H
  N132     1.0000 0.81700  0.49230  0.61340  Biso   1.000  N
  O284     1.0000 0.82190  0.47560  0.63610  Biso   1.000  O
  O285     1.0000 0.81930  0.52170  0.56410  Biso   1.000  O
  C1216    1.0000 0.68720  0.58340  0.59230  Biso   1.000  C
  C1217    1.0000 0.69640  0.61830  0.59230  Biso   1.000  C
  H1307    1.0000 0.70340  0.62480  0.57460  Biso   1.000  H
  H1308    1.0000 0.71720  0.62240  0.60480  Biso   1.000  H
  H1309    1.0000 0.67450  0.63020  0.59760  Biso   1.000  H
  C1218    1.0000 0.65650  0.57560  0.57210  Biso   1.000  C
  H1310    1.0000 0.66410  0.58250  0.55460  Biso   1.000  H
  H1311    1.0000 0.63350  0.58650  0.57670  Biso   1.000  H
  H1312    1.0000 0.65220  0.55300  0.57190  Biso   1.000  H
  C1219    1.0000 0.67620  0.57310  0.61960  Biso   1.000  C
  H1313    1.0000 0.69630  0.57830  0.63230  Biso   1.000  H
  H1314    1.0000 0.67200  0.55050  0.61960  Biso   1.000  H
  H1315    1.0000 0.65330  0.58390  0.62440  Biso   1.000  H
  C1220    1.0000 0.22430  0.72874  0.80169  Biso   1.000  C
  C1221    1.0000 0.21910  0.75323  0.78380  Biso   1.000  C
  H1316    1.0000 0.19990  0.75130  0.77070  Biso   1.000  H
  C1222    1.0000 0.24050  0.77994  0.78420  Biso   1.000  C
  H1317    1.0000 0.23630  0.79580  0.77130  Biso   1.000  H
  C1223    1.0000 0.26840  0.78364  0.80358  Biso   1.000  C
  C1224    1.0000 0.27520  0.75940  0.82128  Biso   1.000  C
  H1318    1.0000 0.29470  0.76110  0.83430  Biso   1.000  H
  C1225    1.0000 0.25350  0.73282  0.81982  Biso   1.000  C
  H1319    1.0000 0.25890  0.71640  0.83190  Biso   1.000  H
  B41      1.0000 0.19700  0.69900  0.80210  Biso   1.000  B
  O286     1.0000 0.22080  0.67068  0.80344  Biso   1.000  O
  N133     1.0000 0.20160  0.64175  0.80540  Biso   1.000  N
  C1226    1.0000 0.22390  0.61870  0.80510  Biso   1.000  C
  H1320    1.0000 0.24970  0.62320  0.80320  Biso   1.000  H
  C1227    1.0000 0.21340  0.58624  0.80721  Biso   1.000  C
  C1228    1.0000 0.17610  0.57626  0.81036  Biso   1.000  C
  C1229    1.0000 0.17022  0.54342  0.81332  Biso   1.000  C
  C1230    1.0000 0.20075  0.52243  0.81298  Biso   1.000  C
  H1321    1.0000 0.19620  0.50070  0.81500  Biso   1.000  H
  C1231    1.0000 0.23692  0.53269  0.80984  Biso   1.000  C
  C1232    1.0000 0.24260  0.56469  0.80730  Biso   1.000  C
  H1322    1.0000 0.26730  0.57220  0.80560  Biso   1.000  H
  C1233    1.0000 0.13315  0.52971  0.81494  Biso   1.000  C
  H1323    1.0000 0.13220  0.50780  0.81780  Biso   1.000  H
  N134     1.0000 0.10203  0.54355  0.81302  Biso   1.000  N
  O287     1.0000 0.07215  0.52338  0.81448  Biso   1.000  O
  B42      1.0000 0.03430  0.53700  0.81100  Biso   1.000  B
  O288     1.0000 0.17640  0.70378  0.82567  Biso   1.000  O
  N135     1.0000 0.14860  0.68200  0.83043  Biso   1.000  N
  C1234    1.0000 0.13250  0.68790  0.85180  Biso   1.000  C
  H1324    1.0000 0.14060  0.70610  0.86100  Biso   1.000  H
  C1235    1.0000 0.10330  0.66980  0.86346  Biso   1.000  C
  C1236    1.0000 0.08810  0.64240  0.85159  Biso   1.000  C
  C1237    1.0000 0.06130  0.62564  0.86672  Biso   1.000  C
  C1238    1.0000 0.05070  0.63650  0.89135  Biso   1.000  C
  H1325    1.0000 0.03260  0.62500  0.90070  Biso   1.000  H
  C1239    1.0000 0.06550  0.66340  0.90275  Biso   1.000  C
  C1240    1.0000 0.09130  0.67930  0.88810  Biso   1.000  C
  H1326    1.0000 0.10160  0.69800  0.89530  Biso   1.000  H
  C1241    1.0000 0.04410  0.59709  0.85754  Biso   1.000  C
  H1327    1.0000 0.02710  0.58760  0.86910  Biso   1.000  H
  N136     1.0000 0.04880  0.58319  0.83604  Biso   1.000  N
  O289     1.0000 0.02547  0.55828  0.83268  Biso   1.000  O
  O290     1.0000 0.17530  0.69989  0.77758  Biso   1.000  O
  N137     1.0000 0.14970  0.67560  0.77403  Biso   1.000  N
  C1242    1.0000 0.13490  0.67640  0.75120  Biso   1.000  C
  H1328    1.0000 0.14350  0.69250  0.74000  Biso   1.000  H
  C1243    1.0000 0.10680  0.65590  0.73993  Biso   1.000  C
  C1244    1.0000 0.09200  0.63040  0.75487  Biso   1.000  C
  C1245    1.0000 0.06540  0.61090  0.74157  Biso   1.000  C
  C1246    1.0000 0.05460  0.61720  0.71541  Biso   1.000  C
  C1247    1.0000 0.09440  0.66060  0.71403  Biso   1.000  C
  C1248    1.0000 0.04790  0.58390  0.75402  Biso   1.000  C
  H1329    1.0000 0.03260  0.57090  0.74310  Biso   1.000  H
  N138     1.0000 0.05140  0.57657  0.77821  Biso   1.000  N
  O291     1.0000 0.02820  0.55159  0.78476  Biso   1.000  O
  C1249    1.0000 0.00534  0.50858  0.81092  Biso   1.000  C
  C1250    1.0000 0.01150  0.48039  0.79800  Biso   1.000  C
  H1330    1.0000 0.03460  0.47730  0.78960  Biso   1.000  H
  C1251    1.0000 0.98511  0.45678  0.79713  Biso   1.000  C
  H1331    1.0000 0.99020  0.43780  0.78820  Biso   1.000  H
  C1252    1.0000 0.95112  0.46076  0.80924  Biso   1.000  C
  C1253    1.0000 0.94450  0.48800  0.82271  Biso   1.000  C
  H1332    1.0000 0.92170  0.49070  0.83160  Biso   1.000  H
  C1254    1.0000 0.97115  0.51151  0.82335  Biso   1.000  C
  H1333    1.0000 0.96600  0.53030  0.83260  Biso   1.000  H
  C1255    1.0000 0.28980  0.81350  0.80650  Biso   1.000  C
  O292     1.0000 0.28412  0.83349  0.78875  Biso   1.000  O
  O293     1.0000 0.31244  0.81551  0.82571  Biso   1.000  O
  O294     1.0000 0.14884  0.59579  0.81110  Biso   1.000  O
  C1256    1.0000 0.26980  0.51017  0.80810  Biso   1.000  C
  O295     1.0000 0.09940  0.63215  0.82996  Biso   1.000  O
  C1257    1.0000 0.05270  0.67510  0.92960  Biso   1.000  C
  O296     1.0000 0.10200  0.62589  0.77922  Biso   1.000  O
  C1258    1.0000 0.92182  0.43564  0.80793  Biso   1.000  C
  O297     1.0000 0.93099  0.40965  0.79877  Biso   1.000  O
  O298     1.0000 0.89018  0.44250  0.81497  Biso   1.000  O
  C1259    1.0000 0.06570  0.64370  0.70190  Biso   1.000  C
  C1260    1.0000 0.27820  0.49000  0.83160  Biso   1.000  C
  H1334    1.0000 0.25500  0.48120  0.83800  Biso   1.000  H
  H1335    1.0000 0.29030  0.50260  0.84550  Biso   1.000  H
  H1336    1.0000 0.29500  0.47300  0.82660  Biso   1.000  H
  C1261    1.0000 0.25860  0.48730  0.78460  Biso   1.000  C
  H1337    1.0000 0.25280  0.49960  0.76880  Biso   1.000  H
  H1338    1.0000 0.23670  0.47510  0.78930  Biso   1.000  H
  H1339    1.0000 0.27940  0.47320  0.78130  Biso   1.000  H
  C1262    1.0000 0.30560  0.52380  0.79800  Biso   1.000  C
  H1340    1.0000 0.29990  0.53700  0.78270  Biso   1.000  H
  H1341    1.0000 0.32230  0.50690  0.79300  Biso   1.000  H
  H1342    1.0000 0.31760  0.53650  0.81190  Biso   1.000  H
  C1263    1.0000 0.07400  0.70340  0.94050  Biso   1.000  C
  H1343    1.0000 0.07370  0.72010  0.92740  Biso   1.000  H
  H1344    1.0000 0.09990  0.69740  0.94470  Biso   1.000  H
  H1345    1.0000 0.06210  0.71070  0.95650  Biso   1.000  H
  C1264    1.0000 0.01290  0.68740  0.92280  Biso   1.000  C
  H1346    1.0000 0.99760  0.67030  0.91560  Biso   1.000  H
  H1347    1.0000 0.01430  0.70420  0.90980  Biso   1.000  H
  H1348    1.0000 0.00160  0.69550  0.93880  Biso   1.000  H
  C1265    1.0000 0.05170  0.64760  0.94870  Biso   1.000  C
  H1349    1.0000 0.03770  0.63030  0.94060  Biso   1.000  H
  H1350    1.0000 0.03940  0.65420  0.96490  Biso   1.000  H
  H1351    1.0000 0.07720  0.64080  0.95310  Biso   1.000  H
  C1266    1.0000 0.04390  0.65630  0.67770  Biso   1.000  C
  C1267    1.0000 0.05920  0.68700  0.66780  Biso   1.000  C
  H1352    1.0000 0.05690  0.70300  0.68150  Biso   1.000  H
  H1353    1.0000 0.04500  0.69350  0.65190  Biso   1.000  H
  H1354    1.0000 0.08550  0.68440  0.66360  Biso   1.000  H
  C1268    1.0000 0.04730  0.63120  0.65660  Biso   1.000  C
  H1355    1.0000 0.03740  0.61140  0.66310  Biso   1.000  H
  H1356    1.0000 0.07370  0.62850  0.65240  Biso   1.000  H
  H1357    1.0000 0.03320  0.63760  0.64070  Biso   1.000  H
  C1269    1.0000 0.00260  0.66230  0.68240  Biso   1.000  C
  H1358    1.0000 0.99100  0.64310  0.68890  Biso   1.000  H
  H1359    1.0000 0.99010  0.66870  0.66590  Biso   1.000  H
  H1360    1.0000 0.00010  0.67890  0.69550  Biso   1.000  H
  C1270    1.0000 0.90780  0.36370  0.47150  Biso   1.000  C
  H1361    1.0000 0.90440  0.38170  0.45980  Biso   1.000  H
  H1362    1.0000 0.90750  0.34440  0.46120  Biso   1.000  H
  H1363    1.0000 0.93170  0.36560  0.48120  Biso   1.000  H
  C1271    1.0000 0.88160  0.33480  0.50940  Biso   1.000  C
  H1364    1.0000 0.86140  0.33410  0.52200  Biso   1.000  H
  H1365    1.0000 0.90560  0.33670  0.51890  Biso   1.000  H
  H1366    1.0000 0.88140  0.31560  0.49890  Biso   1.000  H
  C1272    1.0000 0.83870  0.35600  0.47610  Biso   1.000  C
  H1367    1.0000 0.83300  0.37310  0.46380  Biso   1.000  H
  H1368    1.0000 0.81860  0.35410  0.48870  Biso   1.000  H
  H1369    1.0000 0.84090  0.33640  0.46630  Biso   1.000  H
  C1273    1.0000 0.73210  0.51050  0.80820  Biso   1.000  C
  H1370    1.0000 0.73970  0.53040  0.81460  Biso   1.000  H
  C1274    1.0000 0.75830  0.48670  0.80710  Biso   1.000  C
  H1371    1.0000 0.78340  0.49060  0.81250  Biso   1.000  H
  C1275    1.0000 0.71220  0.45280  0.78800  Biso   1.000  C
  H1372    1.0000 0.70510  0.43340  0.78040  Biso   1.000  H
  C1276    1.0000 0.68660  0.47700  0.78890  Biso   1.000  C
  H1373    1.0000 0.66220  0.47370  0.78150  Biso   1.000  H
  C1277    1.0000 0.61190  0.67960  0.65620  Biso   1.000  C
  H1374    1.0000 0.58560  0.67350  0.65690  Biso   1.000  H
  H1375    1.0000 0.61890  0.68190  0.63780  Biso   1.000  H
  H1376    1.0000 0.61560  0.69960  0.66530  Biso   1.000  H
  C1278    1.0000 0.67730  0.66230  0.66910  Biso   1.000  C
  H1377    1.0000 0.69110  0.64530  0.67790  Biso   1.000  H
  H1378    1.0000 0.68210  0.68200  0.67850  Biso   1.000  H
  H1379    1.0000 0.68540  0.66420  0.65100  Biso   1.000  H
  C1279    1.0000 0.62770  0.62560  0.65180  Biso   1.000  C
  H1380    1.0000 0.64220  0.60790  0.65880  Biso   1.000  H
  H1381    1.0000 0.63480  0.62980  0.63370  Biso   1.000  H
  H1382    1.0000 0.60110  0.62060  0.65210  Biso   1.000  H
  O299     1.0000 0.81750  0.56320  0.49080  Biso   1.000  O
  C1280    1.0000 0.88960  0.57370  0.43750  Biso   1.000  C
  H1383    1.0000 0.90970  0.56090  0.44360  Biso   1.000  H
  C1281    1.0000 0.89140  0.58700  0.41280  Biso   1.000  C
  H1384    1.0000 0.91220  0.58300  0.40210  Biso   1.000  H
  C1282    1.0000 0.83380  0.61360  0.42030  Biso   1.000  C
  H1385    1.0000 0.81520  0.62830  0.41490  Biso   1.000  H
  C1283    1.0000 0.83230  0.59940  0.44470  Biso   1.000  C
  H1386    1.0000 0.81200  0.60410  0.45570  Biso   1.000  H
  N139     1.0000 0.80970  0.54860  0.51520  Biso   1.000  N
  C1284    1.0000 0.77580  0.55300  0.52080  Biso   1.000  C
  H1387    1.0000 0.76060  0.56440  0.50850  Biso   1.000  H
  C1285    1.0000 0.75830  0.54190  0.54460  Biso   1.000  C
  C1286    1.0000 0.77800  0.52360  0.56430  Biso   1.000  C
  C1287    1.0000 0.75680  0.51170  0.58570  Biso   1.000  C
  C1288    1.0000 0.71860  0.51870  0.58700  Biso   1.000  C
  H1388    1.0000 0.70480  0.51010  0.60100  Biso   1.000  H
  C1289    1.0000 0.70030  0.53800  0.56850  Biso   1.000  C
  C1290    1.0000 0.72050  0.54860  0.54750  Biso   1.000  C
  H1389    1.0000 0.70800  0.56090  0.53440  Biso   1.000  H
  C1291    1.0000 0.77360  0.49390  0.60700  Biso   1.000  C
  H1390    1.0000 0.75720  0.48630  0.62000  Biso   1.000  H
  N140     1.0000 0.80790  0.48720  0.61020  Biso   1.000  N
  O300     1.0000 0.81640  0.46900  0.63210  Biso   1.000  O
  O301     1.0000 0.81340  0.51890  0.56340  Biso   1.000  O
  C1292    1.0000 0.65930  0.54650  0.57270  Biso   1.000  C
  C1293    1.0000 0.64150  0.56310  0.54960  Biso   1.000  C
  H1391    1.0000 0.64470  0.55060  0.53360  Biso   1.000  H
  H1392    1.0000 0.65330  0.58360  0.54740  Biso   1.000  H
  H1393    1.0000 0.61480  0.56590  0.55260  Biso   1.000  H
  C1294    1.0000 0.63720  0.51600  0.57600  Biso   1.000  C
  H1394    1.0000 0.64780  0.50420  0.59100  Biso   1.000  H
  H1395    1.0000 0.63880  0.50330  0.56000  Biso   1.000  H
  H1396    1.0000 0.61100  0.52090  0.57930  Biso   1.000  H
  C1295    1.0000 0.65610  0.56380  0.59890  Biso   1.000  C
  H1397    1.0000 0.66830  0.55150  0.61290  Biso   1.000  H
  H1398    1.0000 0.62960  0.56660  0.60280  Biso   1.000  H
  H1399    1.0000 0.66820  0.58430  0.59770  Biso   1.000  H
  C1296    1.0000 0.91560  0.35030  0.49910  Biso   1.000  C
  H1400    1.0000 0.91740  0.34790  0.51830  Biso   1.000  H
  H1401    1.0000 0.93460  0.36510  0.49340  Biso   1.000  H
  H1402    1.0000 0.91950  0.33000  0.49070  Biso   1.000  H
  C1297    1.0000 0.84820  0.33820  0.49900  Biso   1.000  C
  H1403    1.0000 0.84860  0.33620  0.51830  Biso   1.000  H
  H1404    1.0000 0.85490  0.31810  0.49120  Biso   1.000  H
  H1405    1.0000 0.82310  0.34430  0.49280  Biso   1.000  H
  C1298    1.0000 0.87540  0.36600  0.46140  Biso   1.000  C
  H1406    1.0000 0.89340  0.38200  0.45630  Biso   1.000  H
  H1407    1.0000 0.85030  0.37200  0.45520  Biso   1.000  H
  H1408    1.0000 0.88210  0.34590  0.45360  Biso   1.000  H
  C1299    1.0000 0.30000  0.52020  0.82910  Biso   1.000  C
  H1409    1.0000 0.30790  0.54170  0.82570  Biso   1.000  H
  H1410    1.0000 0.32160  0.50620  0.82820  Biso   1.000  H
  H1411    1.0000 0.28960  0.51890  0.84670  Biso   1.000  H
  C1300    1.0000 0.25980  0.47710  0.81520  Biso   1.000  C
  H1412    1.0000 0.24770  0.47690  0.83230  Biso   1.000  H
  H1413    1.0000 0.28260  0.46430  0.81640  Biso   1.000  H
  H1414    1.0000 0.24280  0.46840  0.80170  Biso   1.000  H
  C1301    1.0000 0.28880  0.51170  0.78170  Biso   1.000  C
  H1415    1.0000 0.29490  0.53350  0.77770  Biso   1.000  H
  H1416    1.0000 0.27200  0.50330  0.76790  Biso   1.000  H
  H1417    1.0000 0.31180  0.49920  0.78260  Biso   1.000  H
  C1302    1.0000 0.04420  0.71010  0.92830  Biso   1.000  C
  H1418    1.0000 0.06570  0.72130  0.92130  Biso   1.000  H
  H1419    1.0000 0.03910  0.71790  0.94600  Biso   1.000  H
  H1420    1.0000 0.02230  0.71370  0.91670  Biso   1.000  H
  C1303    1.0000 0.01990  0.65670  0.94030  Biso   1.000  C
  H1421    1.0000 0.02620  0.63440  0.94090  Biso   1.000  H
  H1422    1.0000 0.99780  0.65980  0.92880  Biso   1.000  H
  H1423    1.0000 0.01470  0.66400  0.95810  Biso   1.000  H
  C1304    1.0000 0.08430  0.67000  0.95050  Biso   1.000  C
  H1424    1.0000 0.09030  0.64770  0.95170  Biso   1.000  H
  H1425    1.0000 0.07610  0.67750  0.96770  Biso   1.000  H
  H1426    1.0000 0.10660  0.68170  0.94550  Biso   1.000  H
  C1305    1.0000 0.07150  0.63990  0.70040  Biso   1.000  C
  C1306    1.0000 0.07140  0.63770  0.67030  Biso   1.000  C
  C1307    1.0000 0.08300  0.66830  0.65800  Biso   1.000  C
  H1427    1.0000 0.10780  0.67430  0.66490  Biso   1.000  H
  H1428    1.0000 0.06490  0.68460  0.66230  Biso   1.000  H
  H1429    1.0000 0.08380  0.66590  0.63880  Biso   1.000  H
  C1308    1.0000 0.03310  0.62600  0.66100  Biso   1.000  C
  H1430    1.0000 0.02760  0.60620  0.66970  Biso   1.000  H
  H1431    1.0000 0.03300  0.62280  0.64190  Biso   1.000  H
  H1432    1.0000 0.01410  0.64150  0.66530  Biso   1.000  H
  C1309    1.0000 0.10010  0.61420  0.65990  Biso   1.000  C
  H1433    1.0000 0.09490  0.59340  0.66690  Biso   1.000  H
  H1434    1.0000 0.12530  0.62070  0.66560  Biso   1.000  H
  H1435    1.0000 0.09840  0.61370  0.64060  Biso   1.000  H
  Zn71     1.0000 0.11411  0.09147  0.80203  Biso   1.000  Zn
  Zn72     1.0000 0.06608  0.14706  0.80369  Biso   1.000  Zn
  Zn73     1.0000 0.64252  0.14415  0.80492  Biso   1.000  Zn
  Zn74     1.0000 0.58986  0.09176  0.80788  Biso   1.000  Zn
  Zn75     1.0000 0.35613  0.02532  0.53419  Biso   1.000  Zn
  Zn76     1.0000 0.35575  0.99110  0.58430  Biso   1.000  Zn
  Zn77     1.0000 0.39609  0.87672  0.78849  Biso   1.000  Zn
  Zn78     1.0000 0.34691  0.91760  0.82737  Biso   1.000  Zn
  Zn79     1.0000 0.30781  0.87436  0.78468  Biso   1.000  Zn
  Zn80     1.0000 0.35266  0.84527  0.83414  Biso   1.000  Zn
  O302     1.0000 0.35070  0.87779  0.80789  Biso   1.000  O
  C1310    1.0000 0.98840  0.23448  0.80556  Biso   1.000  C
  C1311    1.0000 0.99000  0.25859  0.78685  Biso   1.000  C
  H1436    1.0000 0.00690  0.25660  0.77290  Biso   1.000  H
  C1312    1.0000 0.96790  0.28507  0.78792  Biso   1.000  C
  H1437    1.0000 0.96930  0.30050  0.77450  Biso   1.000  H
  C1313    1.0000 0.94360  0.28920  0.80837  Biso   1.000  C
  C1314    1.0000 0.94080  0.26552  0.82695  Biso   1.000  C
  H1438    1.0000 0.92410  0.26780  0.84100  Biso   1.000  H
  C1315    1.0000 0.96220  0.23867  0.82524  Biso   1.000  C
  H1439    1.0000 0.95900  0.22250  0.83780  Biso   1.000  H
  B43      1.0000 0.01480  0.20420  0.80470  Biso   1.000  B
  O303     1.0000 0.04603  0.21038  0.82412  Biso   1.000  O
  N141     1.0000 0.07190  0.18698  0.82771  Biso   1.000  N
  C1316    1.0000 0.09530  0.19270  0.84610  Biso   1.000  C
  H1440    1.0000 0.09280  0.21230  0.85470  Biso   1.000  H
  C1317    1.0000 0.12540  0.17280  0.85570  Biso   1.000  C
  C1318    1.0000 0.13400  0.14370  0.84350  Biso   1.000  C
  C1319    1.0000 0.16540  0.12680  0.85490  Biso   1.000  C
  C1320    1.0000 0.18460  0.13740  0.87750  Biso   1.000  C
  H1441    1.0000 0.20430  0.12510  0.88490  Biso   1.000  H
  C1321    1.0000 0.17540  0.16540  0.88940  Biso   1.000  C
  C1322    1.0000 0.14590  0.18250  0.87810  Biso   1.000  C
  H1442    1.0000 0.13940  0.20180  0.88610  Biso   1.000  H
  C1323    1.0000 0.17750  0.09790  0.84370  Biso   1.000  C
  H1443    1.0000 0.20020  0.08940  0.85060  Biso   1.000  H
  N142     1.0000 0.16110  0.08240  0.82560  Biso   1.000  N
  O304     1.0000 0.18070  0.05563  0.82061  Biso   1.000  O
  B44      1.0000 0.16540  0.03380  0.80100  Biso   1.000  B
  O305     1.0000 0.99202  0.17785  0.81328  Biso   1.000  O
  N143     1.0000 0.00950  0.14845  0.81296  Biso   1.000  N
  C1324    1.0000 0.98670  0.12688  0.81840  Biso   1.000  C
  H1444    1.0000 0.96190  0.13320  0.82190  Biso   1.000  H
  C1325    1.0000 0.99430  0.09331  0.81980  Biso   1.000  C
  C1326    1.0000 0.03050  0.08084  0.81620  Biso   1.000  C
  C1327    1.0000 0.03420  0.04799  0.81770  Biso   1.000  C
  C1328    1.0000 0.00230  0.02900  0.82100  Biso   1.000  C
  H1445    1.0000 0.00530  0.00700  0.82100  Biso   1.000  H
  C1329    1.0000 0.96680  0.04125  0.82430  Biso   1.000  C
  C1330    1.0000 0.96440  0.07364  0.82470  Biso   1.000  C
  H1446    1.0000 0.94110  0.08290  0.82860  Biso   1.000  H
  C1331    1.0000 0.06890  0.03120  0.81410  Biso   1.000  C
  H1447    1.0000 0.06860  0.00910  0.81610  Biso   1.000  H
  N144     1.0000 0.09960  0.04403  0.80840  Biso   1.000  N
  O306     1.0000 0.12846  0.02155  0.80608  Biso   1.000  O
  O307     1.0000 0.02751  0.20150  0.77787  Biso   1.000  O
  N145     1.0000 0.05180  0.17757  0.77252  Biso   1.000  N
  C1332    1.0000 0.06160  0.17863  0.74876  Biso   1.000  C
  H1448    1.0000 0.05070  0.19460  0.73800  Biso   1.000  H
  C1333    1.0000 0.08810  0.15768  0.73636  Biso   1.000  C
  C1334    1.0000 0.10360  0.13124  0.74993  Biso   1.000  C
  C1335    1.0000 0.12940  0.11233  0.73570  Biso   1.000  C
  C1336    1.0000 0.13900  0.12100  0.71024  Biso   1.000  C
  H1449    1.0000 0.15680  0.10860  0.70150  Biso   1.000  H
  C1337    1.0000 0.12410  0.14660  0.69706  Biso   1.000  C
  C1338    1.0000 0.09820  0.16460  0.71039  Biso   1.000  C
  H1450    1.0000 0.08700  0.18210  0.70170  Biso   1.000  H
  C1339    1.0000 0.14690  0.08470  0.74693  Biso   1.000  C
  H1451    1.0000 0.16210  0.07280  0.73560  Biso   1.000  H
  N146     1.0000 0.14400  0.07460  0.77024  Biso   1.000  N
  O308     1.0000 0.16580  0.04780  0.77429  Biso   1.000  O
  C1340    1.0000 0.19490  0.00597  0.80001  Biso   1.000  C
  C1341    1.0000 0.24800  0.95689  0.79822  Biso   1.000  C
  C1342    1.0000 0.91980  0.31810  0.80998  Biso   1.000  C
  O309     1.0000 0.92269  0.33762  0.79185  Biso   1.000  O
  O310     1.0000 0.89757  0.31897  0.82880  Biso   1.000  O
  O311     1.0000 0.11660  0.13417  0.82314  Biso   1.000  O
  C1343    1.0000 0.19630  0.17740  0.91410  Biso   1.000  C
  O312     1.0000 0.05866  0.09916  0.81153  Biso   1.000  O
  C1344    1.0000 0.93200  0.02050  0.82660  Biso   1.000  C
  C1345    1.0000 0.90580  0.02360  0.80130  Biso   1.000  C
  H1452    1.0000 0.91870  0.01540  0.78600  Biso   1.000  H
  H1453    1.0000 0.89940  0.04560  0.79840  Biso   1.000  H
  H1454    1.0000 0.88290  0.01150  0.80380  Biso   1.000  H
  C1346    1.0000 0.90600  0.03410  0.84580  Biso   1.000  C
  H1455    1.0000 0.90310  0.05650  0.84230  Biso   1.000  H
  H1456    1.0000 0.91610  0.03100  0.86370  Biso   1.000  H
  H1457    1.0000 0.88170  0.02380  0.84390  Biso   1.000  H
  C1347    1.0000 0.94190  0.98640  0.82710  Biso   1.000  C
  H1458    1.0000 0.95930  0.98190  0.81300  Biso   1.000  H
  H1459    1.0000 0.91920  0.97390  0.82440  Biso   1.000  H
  H1460    1.0000 0.95360  0.98110  0.84420  Biso   1.000  H
  O313     1.0000 0.09467  0.12397  0.77388  Biso   1.000  O
  C1348    1.0000 0.13580  0.15510  0.66918  Biso   1.000  C
  C1349    1.0000 0.27630  0.93161  0.79630  Biso   1.000  C
  O314     1.0000 0.30915  0.93858  0.80389  Biso   1.000  O
  O315     1.0000 0.26771  0.90515  0.78711  Biso   1.000  O
  C1350    1.0000 0.22410  0.00340  0.81910  Biso   1.000  C
  H1461    1.0000 0.22590  0.01820  0.83290  Biso   1.000  H
  C1351    1.0000 0.25030  0.97960  0.81800  Biso   1.000  C
  H1462    1.0000 0.27000  0.97870  0.83080  Biso   1.000  H
  C1352    1.0000 0.21860  0.95820  0.77990  Biso   1.000  C
  H1463    1.0000 0.21600  0.94260  0.76670  Biso   1.000  H
  C1353    1.0000 0.19320  0.98250  0.78110  Biso   1.000  C
  H1464    1.0000 0.17340  0.98310  0.76830  Biso   1.000  H
  C1354    1.0000 0.10570  0.15090  0.64840  Biso   1.000  C
  H1465    1.0000 0.08230  0.16000  0.65460  Biso   1.000  H
  H1466    1.0000 0.10210  0.12860  0.64490  Biso   1.000  H
  H1467    1.0000 0.11300  0.16150  0.63220  Biso   1.000  H
  C1355    1.0000 0.14330  0.19130  0.66850  Biso   1.000  C
  H1468    1.0000 0.16290  0.19660  0.68150  Biso   1.000  H
  H1469    1.0000 0.12030  0.20260  0.67250  Biso   1.000  H
  H1470    1.0000 0.15130  0.19730  0.65090  Biso   1.000  H
  C1356    1.0000 0.17320  0.14180  0.66150  Biso   1.000  C
  H1471    1.0000 0.19150  0.14530  0.67590  Biso   1.000  H
  H1472    1.0000 0.18150  0.15220  0.64560  Biso   1.000  H
  H1473    1.0000 0.17060  0.11930  0.65820  Biso   1.000  H
  C1357    1.0000 0.17110  0.17500  0.93800  Biso   1.000  C
  H1474    1.0000 0.14770  0.18620  0.93430  Biso   1.000  H
  H1475    1.0000 0.18390  0.18440  0.95340  Biso   1.000  H
  H1476    1.0000 0.16580  0.15300  0.94170  Biso   1.000  H
  C1358    1.0000 0.23280  0.16020  0.91970  Biso   1.000  C
  H1477    1.0000 0.24490  0.16870  0.93570  Biso   1.000  H
  H1478    1.0000 0.24930  0.16280  0.90480  Biso   1.000  H
  H1479    1.0000 0.22770  0.13790  0.92230  Biso   1.000  H
  C1359    1.0000 0.20400  0.21260  0.91070  Biso   1.000  C
  H1480    1.0000 0.18040  0.22360  0.90710  Biso   1.000  H
  H1481    1.0000 0.22070  0.21570  0.89600  Biso   1.000  H
  H1482    1.0000 0.21580  0.22080  0.92690  Biso   1.000  H
  C1360    1.0000 0.35960  0.07830  0.45388  Biso   1.000  C
  C1361    1.0000 0.36270  0.10630  0.40355  Biso   1.000  C
  B45      1.0000 0.35640  0.06110  0.48147  Biso   1.000  B
  O316     1.0000 0.35820  0.02801  0.47510  Biso   1.000  O
  N147     1.0000 0.36050  0.00660  0.49588  Biso   1.000  N
  C1362    1.0000 0.36200  0.97870  0.48808  Biso   1.000  C
  H1483    1.0000 0.36180  0.97540  0.46960  Biso   1.000  H
  C1363    1.0000 0.36400  0.95113  0.50468  Biso   1.000  C
  C1364    1.0000 0.36300  0.95230  0.53275  Biso   1.000  C
  C1365    1.0000 0.36600  0.92330  0.54650  Biso   1.000  C
  C1366    1.0000 0.37080  0.89580  0.53208  Biso   1.000  C
  H1484    1.0000 0.37400  0.87680  0.54160  Biso   1.000  H
  C1367    1.0000 0.37110  0.89440  0.50522  Biso   1.000  C
  C1368    1.0000 0.36820  0.92220  0.49170  Biso   1.000  C
  H1485    1.0000 0.36910  0.92200  0.47300  Biso   1.000  H
  C1369    1.0000 0.36410  0.92060  0.57461  Biso   1.000  C
  H1486    1.0000 0.36610  0.90000  0.58160  Biso   1.000  H
  N148     1.0000 0.36020  0.94228  0.59120  Biso   1.000  N
  O317     1.0000 0.35930  0.93165  0.61663  Biso   1.000  O
  B46      1.0000 0.35430  0.95540  0.63696  Biso   1.000  B
  O318     1.0000 0.38880  0.07154  0.49683  Biso   1.000  O
  N149     1.0000 0.39480  0.05840  0.52149  Biso   1.000  N
  C1370    1.0000 0.42730  0.06450  0.53066  Biso   1.000  C
  H1487    1.0000 0.44290  0.07720  0.52020  Biso   1.000  H
  C1371    1.0000 0.44230  0.05380  0.55553  Biso   1.000  C
  C1372    1.0000 0.42200  0.03570  0.57426  Biso   1.000  C
  C1373    1.0000 0.44190  0.02680  0.59784  Biso   1.000  C
  C1374    1.0000 0.47970  0.03450  0.60128  Biso   1.000  C
  H1488    1.0000 0.49250  0.02780  0.61690  Biso   1.000  H
  C1375    1.0000 0.49950  0.05160  0.58298  Biso   1.000  C
  C1376    1.0000 0.48010  0.06100  0.56074  Biso   1.000  C
  H1489    1.0000 0.49300  0.07310  0.54820  Biso   1.000  H
  C1377    1.0000 0.42520  0.00800  0.61828  Biso   1.000  C
  H1490    1.0000 0.43900  0.00560  0.63440  Biso   1.000  H
  N150     1.0000 0.39370  0.99458  0.61627  Biso   1.000  N
  O319     1.0000 0.38530  0.97881  0.63872  Biso   1.000  O
  C1378    1.0000 0.35420  0.93780  0.66486  Biso   1.000  C
  C1379    1.0000 0.38630  0.93590  0.68114  Biso   1.000  C
  H1491    1.0000 0.40850  0.94590  0.67580  Biso   1.000  H
  C1380    1.0000 0.38640  0.91970  0.70488  Biso   1.000  C
  H1492    1.0000 0.40880  0.91790  0.71520  Biso   1.000  H
  C1381    1.0000 0.35380  0.90612  0.71356  Biso   1.000  C
  C1382    1.0000 0.32140  0.90840  0.69829  Biso   1.000  C
  H1493    1.0000 0.29900  0.89910  0.70400  Biso   1.000  H
  C1383    1.0000 0.32190  0.92430  0.67444  Biso   1.000  C
  H1494    1.0000 0.29930  0.92610  0.66430  Biso   1.000  H
  C1384    1.0000 0.36350  0.11920  0.37627  Biso   1.000  C
  O320     1.0000 0.35142  0.14647  0.37224  Biso   1.000  O
  O321     1.0000 0.38000  0.10440  0.35928  Biso   1.000  O
  O322     1.0000 0.36210  0.97838  0.54478  Biso   1.000  O
  C1385    1.0000 0.37600  0.86300  0.49110  Biso   1.000  C
  O323     1.0000 0.38780  0.02853  0.57011  Biso   1.000  O
  C1386    1.0000 0.54070  0.06080  0.58670  Biso   1.000  C
  C1387    1.0000 0.54570  0.09660  0.58430  Biso   1.000  C
  H1495    1.0000 0.53570  0.10370  0.56720  Biso   1.000  H
  H1496    1.0000 0.57220  0.10190  0.58600  Biso   1.000  H
  H1497    1.0000 0.53210  0.10700  0.59840  Biso   1.000  H
  C1388    1.0000 0.56330  0.04620  0.56450  Biso   1.000  C
  H1498    1.0000 0.55230  0.05230  0.54740  Biso   1.000  H
  H1499    1.0000 0.56290  0.02340  0.56610  Biso   1.000  H
  H1500    1.0000 0.58920  0.05360  0.56580  Biso   1.000  H
  C1389    1.0000 0.55660  0.05210  0.61330  Biso   1.000  C
  H1501    1.0000 0.54160  0.06180  0.62700  Biso   1.000  H
  H1502    1.0000 0.58240  0.05960  0.61500  Biso   1.000  H
  H1503    1.0000 0.55610  0.02930  0.61530  Biso   1.000  H
  C1390    1.0000 0.35360  0.89016  0.73994  Biso   1.000  C
  O324     1.0000 0.38474  0.88711  0.75189  Biso   1.000  O
  O325     1.0000 0.32225  0.88083  0.74786  Biso   1.000  O
  O326     1.0000 0.32520  0.07380  0.49680  Biso   1.000  O
  C1391    1.0000 0.34800  0.12230  0.42440  Biso   1.000  C
  H1504    1.0000 0.33880  0.14290  0.42190  Biso   1.000  H
  C1392    1.0000 0.34650  0.10840  0.44900  Biso   1.000  C
  H1505    1.0000 0.33620  0.11990  0.46310  Biso   1.000  H
  C1393    1.0000 0.37590  0.06300  0.43260  Biso   1.000  C
  H1506    1.0000 0.38640  0.04290  0.43540  Biso   1.000  H
  C1394    1.0000 0.37730  0.07610  0.40770  Biso   1.000  C
  H1507    1.0000 0.38790  0.06480  0.39370  Biso   1.000  H
  N151     1.0000 0.31790  0.05830  0.51930  Biso   1.000  N
  C1395    1.0000 0.28870  0.06950  0.52920  Biso   1.000  C
  H1508    1.0000 0.27580  0.08560  0.51970  Biso   1.000  H
  C1396    1.0000 0.27370  0.05950  0.55400  Biso   1.000  C
  C1397    1.0000 0.29080  0.03650  0.57100  Biso   1.000  C
  C1398    1.0000 0.27370  0.03080  0.59570  Biso   1.000  C
  C1399    1.0000 0.24100  0.04680  0.60230  Biso   1.000  C
  H1509    1.0000 0.23050  0.04310  0.61900  Biso   1.000  H
  C1400    1.0000 0.22400  0.06770  0.58520  Biso   1.000  C
  C1401    1.0000 0.24060  0.07380  0.56160  Biso   1.000  C
  H1510    1.0000 0.22900  0.08840  0.54990  Biso   1.000  H
  C1402    1.0000 0.28800  0.00900  0.61520  Biso   1.000  C
  H1511    1.0000 0.27430  0.00700  0.63090  Biso   1.000  H
  N152     1.0000 0.31700  0.99230  0.61340  Biso   1.000  N
  O327     1.0000 0.32190  0.97560  0.63610  Biso   1.000  O
  O328     1.0000 0.31930  0.02170  0.56410  Biso   1.000  O
  C1403    1.0000 0.18720  0.08340  0.59230  Biso   1.000  C
  C1404    1.0000 0.19640  0.11830  0.59230  Biso   1.000  C
  H1512    1.0000 0.20340  0.12480  0.57460  Biso   1.000  H
  H1513    1.0000 0.21720  0.12240  0.60480  Biso   1.000  H
  H1514    1.0000 0.17450  0.13020  0.59760  Biso   1.000  H
  C1405    1.0000 0.15650  0.07560  0.57210  Biso   1.000  C
  H1515    1.0000 0.16410  0.08250  0.55460  Biso   1.000  H
  H1516    1.0000 0.13350  0.08650  0.57670  Biso   1.000  H
  H1517    1.0000 0.15220  0.05300  0.57190  Biso   1.000  H
  C1406    1.0000 0.17620  0.07310  0.61960  Biso   1.000  C
  H1518    1.0000 0.19630  0.07830  0.63230  Biso   1.000  H
  H1519    1.0000 0.17200  0.05050  0.61960  Biso   1.000  H
  H1520    1.0000 0.15330  0.08390  0.62440  Biso   1.000  H
  C1407    1.0000 0.72430  0.22874  0.80169  Biso   1.000  C
  C1408    1.0000 0.71910  0.25323  0.78380  Biso   1.000  C
  H1521    1.0000 0.69990  0.25130  0.77070  Biso   1.000  H
  C1409    1.0000 0.74050  0.27994  0.78420  Biso   1.000  C
  H1522    1.0000 0.73630  0.29580  0.77130  Biso   1.000  H
  C1410    1.0000 0.76840  0.28364  0.80358  Biso   1.000  C
  C1411    1.0000 0.77520  0.25940  0.82128  Biso   1.000  C
  H1523    1.0000 0.79470  0.26110  0.83430  Biso   1.000  H
  C1412    1.0000 0.75350  0.23282  0.81982  Biso   1.000  C
  H1524    1.0000 0.75890  0.21640  0.83190  Biso   1.000  H
  B47      1.0000 0.69700  0.19900  0.80210  Biso   1.000  B
  O329     1.0000 0.72080  0.17068  0.80344  Biso   1.000  O
  N153     1.0000 0.70160  0.14175  0.80540  Biso   1.000  N
  C1413    1.0000 0.72390  0.11870  0.80510  Biso   1.000  C
  H1525    1.0000 0.74970  0.12320  0.80320  Biso   1.000  H
  C1414    1.0000 0.71340  0.08624  0.80721  Biso   1.000  C
  C1415    1.0000 0.67610  0.07626  0.81036  Biso   1.000  C
  C1416    1.0000 0.67022  0.04342  0.81332  Biso   1.000  C
  C1417    1.0000 0.70075  0.02243  0.81298  Biso   1.000  C
  H1526    1.0000 0.69620  0.00070  0.81500  Biso   1.000  H
  C1418    1.0000 0.73692  0.03269  0.80984  Biso   1.000  C
  C1419    1.0000 0.74260  0.06469  0.80730  Biso   1.000  C
  H1527    1.0000 0.76730  0.07220  0.80560  Biso   1.000  H
  C1420    1.0000 0.63315  0.02971  0.81494  Biso   1.000  C
  H1528    1.0000 0.63220  0.00780  0.81780  Biso   1.000  H
  N154     1.0000 0.60203  0.04355  0.81302  Biso   1.000  N
  O330     1.0000 0.57215  0.02338  0.81448  Biso   1.000  O
  B48      1.0000 0.53430  0.03700  0.81100  Biso   1.000  B
  O331     1.0000 0.67640  0.20378  0.82567  Biso   1.000  O
  N155     1.0000 0.64860  0.18200  0.83043  Biso   1.000  N
  C1421    1.0000 0.63250  0.18790  0.85180  Biso   1.000  C
  H1529    1.0000 0.64060  0.20610  0.86100  Biso   1.000  H
  C1422    1.0000 0.60330  0.16980  0.86346  Biso   1.000  C
  C1423    1.0000 0.58810  0.14240  0.85159  Biso   1.000  C
  C1424    1.0000 0.56130  0.12564  0.86672  Biso   1.000  C
  C1425    1.0000 0.55070  0.13650  0.89135  Biso   1.000  C
  H1530    1.0000 0.53260  0.12500  0.90070  Biso   1.000  H
  C1426    1.0000 0.56550  0.16340  0.90275  Biso   1.000  C
  C1427    1.0000 0.59130  0.17930  0.88810  Biso   1.000  C
  H1531    1.0000 0.60160  0.19800  0.89530  Biso   1.000  H
  C1428    1.0000 0.54410  0.09709  0.85754  Biso   1.000  C
  H1532    1.0000 0.52710  0.08760  0.86910  Biso   1.000  H
  N156     1.0000 0.54880  0.08319  0.83604  Biso   1.000  N
  O332     1.0000 0.52547  0.05828  0.83268  Biso   1.000  O
  O333     1.0000 0.67530  0.19989  0.77758  Biso   1.000  O
  N157     1.0000 0.64970  0.17560  0.77403  Biso   1.000  N
  C1429    1.0000 0.63490  0.17640  0.75120  Biso   1.000  C
  H1533    1.0000 0.64350  0.19250  0.74000  Biso   1.000  H
  C1430    1.0000 0.60680  0.15590  0.73993  Biso   1.000  C
  C1431    1.0000 0.59200  0.13040  0.75487  Biso   1.000  C
  C1432    1.0000 0.56540  0.11090  0.74157  Biso   1.000  C
  C1433    1.0000 0.55460  0.11720  0.71541  Biso   1.000  C
  C1434    1.0000 0.59440  0.16060  0.71403  Biso   1.000  C
  C1435    1.0000 0.54790  0.08390  0.75402  Biso   1.000  C
  H1534    1.0000 0.53260  0.07090  0.74310  Biso   1.000  H
  N158     1.0000 0.55140  0.07657  0.77821  Biso   1.000  N
  O334     1.0000 0.52820  0.05159  0.78476  Biso   1.000  O
  C1436    1.0000 0.50534  0.00858  0.81092  Biso   1.000  C
  C1437    1.0000 0.51150  0.98039  0.79800  Biso   1.000  C
  H1535    1.0000 0.53460  0.97730  0.78960  Biso   1.000  H
  C1438    1.0000 0.48511  0.95678  0.79713  Biso   1.000  C
  H1536    1.0000 0.49020  0.93780  0.78820  Biso   1.000  H
  C1439    1.0000 0.45112  0.96076  0.80924  Biso   1.000  C
  C1440    1.0000 0.44450  0.98800  0.82271  Biso   1.000  C
  H1537    1.0000 0.42170  0.99070  0.83160  Biso   1.000  H
  C1441    1.0000 0.47115  0.01151  0.82335  Biso   1.000  C
  H1538    1.0000 0.46600  0.03030  0.83260  Biso   1.000  H
  C1442    1.0000 0.78980  0.31350  0.80650  Biso   1.000  C
  O335     1.0000 0.78412  0.33349  0.78875  Biso   1.000  O
  O336     1.0000 0.81244  0.31551  0.82571  Biso   1.000  O
  O337     1.0000 0.64884  0.09579  0.81110  Biso   1.000  O
  C1443    1.0000 0.76980  0.01017  0.80810  Biso   1.000  C
  O338     1.0000 0.59940  0.13215  0.82996  Biso   1.000  O
  C1444    1.0000 0.55270  0.17510  0.92960  Biso   1.000  C
  O339     1.0000 0.60200  0.12589  0.77922  Biso   1.000  O
  C1445    1.0000 0.42182  0.93564  0.80793  Biso   1.000  C
  O340     1.0000 0.43099  0.90965  0.79877  Biso   1.000  O
  O341     1.0000 0.39018  0.94250  0.81497  Biso   1.000  O
  C1446    1.0000 0.56570  0.14370  0.70190  Biso   1.000  C
  C1447    1.0000 0.77820  0.99000  0.83160  Biso   1.000  C
  H1539    1.0000 0.75500  0.98120  0.83800  Biso   1.000  H
  H1540    1.0000 0.79030  0.00260  0.84550  Biso   1.000  H
  H1541    1.0000 0.79500  0.97300  0.82660  Biso   1.000  H
  C1448    1.0000 0.75860  0.98730  0.78460  Biso   1.000  C
  H1542    1.0000 0.75280  0.99960  0.76880  Biso   1.000  H
  H1543    1.0000 0.73670  0.97510  0.78930  Biso   1.000  H
  H1544    1.0000 0.77940  0.97320  0.78130  Biso   1.000  H
  C1449    1.0000 0.80560  0.02380  0.79800  Biso   1.000  C
  H1545    1.0000 0.79990  0.03700  0.78270  Biso   1.000  H
  H1546    1.0000 0.82230  0.00690  0.79300  Biso   1.000  H
  H1547    1.0000 0.81760  0.03650  0.81190  Biso   1.000  H
  C1450    1.0000 0.57400  0.20340  0.94050  Biso   1.000  C
  H1548    1.0000 0.57370  0.22010  0.92740  Biso   1.000  H
  H1549    1.0000 0.59990  0.19740  0.94470  Biso   1.000  H
  H1550    1.0000 0.56210  0.21070  0.95650  Biso   1.000  H
  C1451    1.0000 0.51290  0.18740  0.92280  Biso   1.000  C
  H1551    1.0000 0.49760  0.17030  0.91560  Biso   1.000  H
  H1552    1.0000 0.51430  0.20420  0.90980  Biso   1.000  H
  H1553    1.0000 0.50160  0.19550  0.93880  Biso   1.000  H
  C1452    1.0000 0.55170  0.14760  0.94870  Biso   1.000  C
  H1554    1.0000 0.53770  0.13030  0.94060  Biso   1.000  H
  H1555    1.0000 0.53940  0.15420  0.96490  Biso   1.000  H
  H1556    1.0000 0.57720  0.14080  0.95310  Biso   1.000  H
  C1453    1.0000 0.54390  0.15630  0.67770  Biso   1.000  C
  C1454    1.0000 0.55920  0.18700  0.66780  Biso   1.000  C
  H1557    1.0000 0.55690  0.20300  0.68150  Biso   1.000  H
  H1558    1.0000 0.54500  0.19350  0.65190  Biso   1.000  H
  H1559    1.0000 0.58550  0.18440  0.66360  Biso   1.000  H
  C1455    1.0000 0.54730  0.13120  0.65660  Biso   1.000  C
  H1560    1.0000 0.53740  0.11140  0.66310  Biso   1.000  H
  H1561    1.0000 0.57370  0.12850  0.65240  Biso   1.000  H
  H1562    1.0000 0.53320  0.13760  0.64070  Biso   1.000  H
  C1456    1.0000 0.50260  0.16230  0.68240  Biso   1.000  C
  H1563    1.0000 0.49100  0.14310  0.68890  Biso   1.000  H
  H1564    1.0000 0.49010  0.16870  0.66590  Biso   1.000  H
  H1565    1.0000 0.50010  0.17890  0.69550  Biso   1.000  H
  C1457    1.0000 0.40780  0.86370  0.47150  Biso   1.000  C
  H1566    1.0000 0.40440  0.88170  0.45980  Biso   1.000  H
  H1567    1.0000 0.40750  0.84440  0.46120  Biso   1.000  H
  H1568    1.0000 0.43170  0.86560  0.48120  Biso   1.000  H
  C1458    1.0000 0.38160  0.83480  0.50940  Biso   1.000  C
  H1569    1.0000 0.36140  0.83410  0.52200  Biso   1.000  H
  H1570    1.0000 0.40560  0.83670  0.51890  Biso   1.000  H
  H1571    1.0000 0.38140  0.81560  0.49890  Biso   1.000  H
  C1459    1.0000 0.33870  0.85600  0.47610  Biso   1.000  C
  H1572    1.0000 0.33300  0.87310  0.46380  Biso   1.000  H
  H1573    1.0000 0.31860  0.85410  0.48870  Biso   1.000  H
  H1574    1.0000 0.34090  0.83640  0.46630  Biso   1.000  H
  C1460    1.0000 0.23210  0.01050  0.80820  Biso   1.000  C
  H1575    1.0000 0.23970  0.03040  0.81460  Biso   1.000  H
  C1461    1.0000 0.25830  0.98670  0.80710  Biso   1.000  C
  H1576    1.0000 0.28340  0.99060  0.81250  Biso   1.000  H
  C1462    1.0000 0.21220  0.95280  0.78800  Biso   1.000  C
  H1577    1.0000 0.20510  0.93340  0.78040  Biso   1.000  H
  C1463    1.0000 0.18660  0.97700  0.78890  Biso   1.000  C
  H1578    1.0000 0.16220  0.97370  0.78150  Biso   1.000  H
  C1464    1.0000 0.11190  0.17960  0.65620  Biso   1.000  C
  H1579    1.0000 0.08560  0.17350  0.65690  Biso   1.000  H
  H1580    1.0000 0.11890  0.18190  0.63780  Biso   1.000  H
  H1581    1.0000 0.11560  0.19960  0.66530  Biso   1.000  H
  C1465    1.0000 0.17730  0.16230  0.66910  Biso   1.000  C
  H1582    1.0000 0.19110  0.14530  0.67790  Biso   1.000  H
  H1583    1.0000 0.18210  0.18200  0.67850  Biso   1.000  H
  H1584    1.0000 0.18540  0.16420  0.65100  Biso   1.000  H
  C1466    1.0000 0.12770  0.12560  0.65180  Biso   1.000  C
  H1585    1.0000 0.14220  0.10790  0.65880  Biso   1.000  H
  H1586    1.0000 0.13480  0.12980  0.63370  Biso   1.000  H
  H1587    1.0000 0.10110  0.12060  0.65210  Biso   1.000  H
  O342     1.0000 0.31750  0.06320  0.49080  Biso   1.000  O
  C1467    1.0000 0.38960  0.07370  0.43750  Biso   1.000  C
  H1588    1.0000 0.40970  0.06090  0.44360  Biso   1.000  H
  C1468    1.0000 0.39140  0.08700  0.41280  Biso   1.000  C
  H1589    1.0000 0.41220  0.08300  0.40210  Biso   1.000  H
  C1469    1.0000 0.33380  0.11360  0.42030  Biso   1.000  C
  H1590    1.0000 0.31520  0.12830  0.41490  Biso   1.000  H
  C1470    1.0000 0.33230  0.09940  0.44470  Biso   1.000  C
  H1591    1.0000 0.31200  0.10410  0.45570  Biso   1.000  H
  N159     1.0000 0.30970  0.04860  0.51520  Biso   1.000  N
  C1471    1.0000 0.27580  0.05300  0.52080  Biso   1.000  C
  H1592    1.0000 0.26060  0.06440  0.50850  Biso   1.000  H
  C1472    1.0000 0.25830  0.04190  0.54460  Biso   1.000  C
  C1473    1.0000 0.27800  0.02360  0.56430  Biso   1.000  C
  C1474    1.0000 0.25680  0.01170  0.58570  Biso   1.000  C
  C1475    1.0000 0.21860  0.01870  0.58700  Biso   1.000  C
  H1593    1.0000 0.20480  0.01010  0.60100  Biso   1.000  H
  C1476    1.0000 0.20030  0.03800  0.56850  Biso   1.000  C
  C1477    1.0000 0.22050  0.04860  0.54750  Biso   1.000  C
  H1594    1.0000 0.20800  0.06090  0.53440  Biso   1.000  H
  C1478    1.0000 0.27360  0.99390  0.60700  Biso   1.000  C
  H1595    1.0000 0.25720  0.98630  0.62000  Biso   1.000  H
  N160     1.0000 0.30790  0.98720  0.61020  Biso   1.000  N
  O343     1.0000 0.31640  0.96900  0.63210  Biso   1.000  O
  O344     1.0000 0.31340  0.01890  0.56340  Biso   1.000  O
  C1479    1.0000 0.15930  0.04650  0.57270  Biso   1.000  C
  C1480    1.0000 0.14150  0.06310  0.54960  Biso   1.000  C
  H1596    1.0000 0.14470  0.05060  0.53360  Biso   1.000  H
  H1597    1.0000 0.15330  0.08360  0.54740  Biso   1.000  H
  H1598    1.0000 0.11480  0.06590  0.55260  Biso   1.000  H
  C1481    1.0000 0.13720  0.01600  0.57600  Biso   1.000  C
  H1599    1.0000 0.14780  0.00420  0.59100  Biso   1.000  H
  H1600    1.0000 0.13880  0.00330  0.56000  Biso   1.000  H
  H1601    1.0000 0.11100  0.02090  0.57930  Biso   1.000  H
  C1482    1.0000 0.15610  0.06380  0.59890  Biso   1.000  C
  H1602    1.0000 0.16830  0.05150  0.61290  Biso   1.000  H
  H1603    1.0000 0.12960  0.06660  0.60280  Biso   1.000  H
  H1604    1.0000 0.16820  0.08430  0.59770  Biso   1.000  H
  C1483    1.0000 0.41560  0.85030  0.49910  Biso   1.000  C
  H1605    1.0000 0.41740  0.84790  0.51830  Biso   1.000  H
  H1606    1.0000 0.43460  0.86510  0.49340  Biso   1.000  H
  H1607    1.0000 0.41950  0.83000  0.49070  Biso   1.000  H
  C1484    1.0000 0.34820  0.83820  0.49900  Biso   1.000  C
  H1608    1.0000 0.34860  0.83620  0.51830  Biso   1.000  H
  H1609    1.0000 0.35490  0.81810  0.49120  Biso   1.000  H
  H1610    1.0000 0.32310  0.84430  0.49280  Biso   1.000  H
  C1485    1.0000 0.37540  0.86600  0.46140  Biso   1.000  C
  H1611    1.0000 0.39340  0.88200  0.45630  Biso   1.000  H
  H1612    1.0000 0.35030  0.87200  0.45520  Biso   1.000  H
  H1613    1.0000 0.38210  0.84590  0.45360  Biso   1.000  H
  C1486    1.0000 0.80000  0.02020  0.82910  Biso   1.000  C
  H1614    1.0000 0.80790  0.04170  0.82570  Biso   1.000  H
  H1615    1.0000 0.82160  0.00620  0.82820  Biso   1.000  H
  H1616    1.0000 0.78960  0.01890  0.84670  Biso   1.000  H
  C1487    1.0000 0.75980  0.97710  0.81520  Biso   1.000  C
  H1617    1.0000 0.74770  0.97690  0.83230  Biso   1.000  H
  H1618    1.0000 0.78260  0.96430  0.81640  Biso   1.000  H
  H1619    1.0000 0.74280  0.96840  0.80170  Biso   1.000  H
  C1488    1.0000 0.78880  0.01170  0.78170  Biso   1.000  C
  H1620    1.0000 0.79490  0.03350  0.77770  Biso   1.000  H
  H1621    1.0000 0.77200  0.00330  0.76790  Biso   1.000  H
  H1622    1.0000 0.81180  0.99920  0.78260  Biso   1.000  H
  C1489    1.0000 0.54420  0.21010  0.92830  Biso   1.000  C
  H1623    1.0000 0.56570  0.22130  0.92130  Biso   1.000  H
  H1624    1.0000 0.53910  0.21790  0.94600  Biso   1.000  H
  H1625    1.0000 0.52230  0.21370  0.91670  Biso   1.000  H
  C1490    1.0000 0.51990  0.15670  0.94030  Biso   1.000  C
  H1626    1.0000 0.52620  0.13440  0.94090  Biso   1.000  H
  H1627    1.0000 0.49780  0.15980  0.92880  Biso   1.000  H
  H1628    1.0000 0.51470  0.16400  0.95810  Biso   1.000  H
  C1491    1.0000 0.58430  0.17000  0.95050  Biso   1.000  C
  H1629    1.0000 0.59030  0.14770  0.95170  Biso   1.000  H
  H1630    1.0000 0.57610  0.17750  0.96770  Biso   1.000  H
  H1631    1.0000 0.60660  0.18170  0.94550  Biso   1.000  H
  C1492    1.0000 0.57150  0.13990  0.70040  Biso   1.000  C
  C1493    1.0000 0.57140  0.13770  0.67030  Biso   1.000  C
  C1494    1.0000 0.58300  0.16830  0.65800  Biso   1.000  C
  H1632    1.0000 0.60780  0.17430  0.66490  Biso   1.000  H
  H1633    1.0000 0.56490  0.18460  0.66230  Biso   1.000  H
  H1634    1.0000 0.58380  0.16590  0.63880  Biso   1.000  H
  C1495    1.0000 0.53310  0.12600  0.66100  Biso   1.000  C
  H1635    1.0000 0.52760  0.10620  0.66970  Biso   1.000  H
  H1636    1.0000 0.53300  0.12280  0.64190  Biso   1.000  H
  H1637    1.0000 0.51410  0.14150  0.66530  Biso   1.000  H
  C1496    1.0000 0.60010  0.11420  0.65990  Biso   1.000  C
  H1638    1.0000 0.59490  0.09340  0.66690  Biso   1.000  H
  H1639    1.0000 0.62530  0.12070  0.66560  Biso   1.000  H
  H1640    1.0000 0.59840  0.11370  0.64060  Biso   1.000  H
