data_image0
_cell_length_a       31.473
_cell_length_b       31.473
_cell_length_c       62.316
_cell_angle_alpha    90
_cell_angle_beta     90
_cell_angle_gamma    120

_symmetry_space_group_name_H-M    "P 1"
_symmetry_int_tables_number       1

loop_
  _symmetry_equiv_pos_as_xyz
  'x, y, z'

loop_
  _atom_site_label
  _atom_site_occupancy
  _atom_site_fract_x
  _atom_site_fract_y
  _atom_site_fract_z
  _atom_site_thermal_displace_type
  _atom_site_B_iso_or_equiv
  _atom_site_type_symbol
  Co1      1.0000 0.51198  0.48788  0.36289  Biso   1.000  Co
  Co2      1.0000 0.48029  0.51956  0.40124  Biso   1.000  Co
  Zn1      1.0000 0.40079  0.70042  0.54393  Biso   1.000  Zn
  B1       1.0000 0.54470  0.45380  0.32350  Biso   1.000  B
  O1       1.0000 0.51230  0.41040  0.33525  Biso   1.000  O
  N1       1.0000 0.49160  0.41640  0.35345  Biso   1.000  N
  C1       1.0000 0.45930  0.37500  0.36096  Biso   1.000  C
  H1       1.0000 0.45440  0.34640  0.35370  Biso   1.000  H
  C2       1.0000 0.42930  0.36820  0.37970  Biso   1.000  C
  C3       1.0000 0.43420  0.40740  0.39277  Biso   1.000  C
  C4       1.0000 0.40350  0.39470  0.41140  Biso   1.000  C
  C5       1.0000 0.36750  0.34550  0.41515  Biso   1.000  C
  H2       1.0000 0.34740  0.33770  0.42750  Biso   1.000  H
  C6       1.0000 0.36050  0.30820  0.40133  Biso   1.000  C
  C7       1.0000 0.39170  0.32050  0.38401  Biso   1.000  C
  H3       1.0000 0.38740  0.29510  0.37450  Biso   1.000  H
  C8       1.0000 0.40720  0.43050  0.42660  Biso   1.000  C
  H4       1.0000 0.38850  0.41790  0.43940  Biso   1.000  H
  N2       1.0000 0.43230  0.47650  0.42520  Biso   1.000  N
  O2       1.0000 0.42480  0.49930  0.44246  Biso   1.000  O
  B2       1.0000 0.44820  0.55280  0.44121  Biso   1.000  B
  O3       1.0000 0.51810  0.47940  0.31539  Biso   1.000  O
  N3       1.0000 0.50050  0.49710  0.33081  Biso   1.000  N
  C9       1.0000 0.47890  0.51810  0.32240  Biso   1.000  C
  H5       1.0000 0.47690  0.51690  0.30720  Biso   1.000  H
  C10      1.0000 0.45720  0.54340  0.33294  Biso   1.000  C
  C11      1.0000 0.45550  0.54550  0.35585  Biso   1.000  C
  C12      1.0000 0.43530  0.57310  0.36508  Biso   1.000  C
  C13      1.0000 0.42250  0.60080  0.35134  Biso   1.000  C
  H6       1.0000 0.41040  0.62020  0.35760  Biso   1.000  H
  C14      1.0000 0.42660  0.60110  0.32919  Biso   1.000  C
  C15      1.0000 0.44390  0.57160  0.32021  Biso   1.000  C
  H7       1.0000 0.44670  0.57080  0.30510  Biso   1.000  H
  C16      1.0000 0.42920  0.57610  0.38797  Biso   1.000  C
  H8       1.0000 0.41430  0.59450  0.39230  Biso   1.000  H
  N4       1.0000 0.44150  0.55710  0.40290  Biso   1.000  N
  O4       1.0000 0.43080  0.56930  0.42270  Biso   1.000  O
  O5       1.0000 0.58980  0.48830  0.33542  Biso   1.000  O
  N5       1.0000 0.58370  0.50890  0.35305  Biso   1.000  N
  C17      1.0000 0.62490  0.54190  0.36059  Biso   1.000  C
  H9       1.0000 0.65340  0.54770  0.35290  Biso   1.000  H
  C18      1.0000 0.63240  0.57110  0.37954  Biso   1.000  C
  C19      1.0000 0.59290  0.56540  0.39301  Biso   1.000  C
  C20      1.0000 0.60550  0.59770  0.41093  Biso   1.000  C
  C21      1.0000 0.65400  0.63310  0.41428  Biso   1.000  C
  H10      1.0000 0.66120  0.65450  0.42620  Biso   1.000  H
  C22      1.0000 0.69300  0.63940  0.40146  Biso   1.000  C
  C23      1.0000 0.68060  0.60760  0.38423  Biso   1.000  C
  H11      1.0000 0.70620  0.61070  0.37510  Biso   1.000  H
  C24      1.0000 0.56970  0.59600  0.42610  Biso   1.000  C
  H12      1.0000 0.58200  0.61750  0.43810  Biso   1.000  H
  N6       1.0000 0.52380  0.56890  0.42489  Biso   1.000  N
  O6       1.0000 0.50180  0.57750  0.44223  Biso   1.000  O
  C25      1.0000 0.43080  0.56840  0.46230  Biso   1.000  C
  C26      1.0000 0.38660  0.53830  0.47216  Biso   1.000  C
  H13      1.0000 0.36610  0.50630  0.46650  Biso   1.000  H
  C27      1.0000 0.37080  0.55290  0.48996  Biso   1.000  C
  H14      1.0000 0.33970  0.53150  0.49610  Biso   1.000  H
  C28      1.0000 0.40060  0.59890  0.49870  Biso   1.000  C
  C29      1.0000 0.44570  0.62910  0.48964  Biso   1.000  C
  H15      1.0000 0.46670  0.66050  0.49570  Biso   1.000  H
  C30      1.0000 0.46060  0.61410  0.47169  Biso   1.000  C
  H16      1.0000 0.49190  0.63550  0.46560  Biso   1.000  H
  O7       1.0000 0.46630  0.45150  0.38911  Biso   1.000  O
  C31      1.0000 0.31910  0.25540  0.40540  Biso   1.000  C
  C32      1.0000 0.30490  0.22130  0.38640  Biso   1.000  C
  H17      1.0000 0.33430  0.22280  0.38030  Biso   1.000  H
  H18      1.0000 0.28200  0.18770  0.39110  Biso   1.000  H
  H19      1.0000 0.28920  0.23130  0.37550  Biso   1.000  H
  C33      1.0000 0.27360  0.25250  0.41440  Biso   1.000  C
  H20      1.0000 0.28220  0.27440  0.42680  Biso   1.000  H
  H21      1.0000 0.25800  0.26230  0.40340  Biso   1.000  H
  H22      1.0000 0.25080  0.21870  0.41890  Biso   1.000  H
  C34      1.0000 0.34060  0.23840  0.42370  Biso   1.000  C
  H23      1.0000 0.37070  0.23960  0.41870  Biso   1.000  H
  H24      1.0000 0.34800  0.26020  0.43610  Biso   1.000  H
  H25      1.0000 0.31650  0.20480  0.42790  Biso   1.000  H
  O8       1.0000 0.47450  0.52600  0.36811  Biso   1.000  O
  C35      1.0000 0.41390  0.63290  0.31470  Biso   1.000  C
  C36      1.0000 0.45500  0.66360  0.29960  Biso   1.000  C
  H26      1.0000 0.46380  0.64240  0.29150  Biso   1.000  H
  H27      1.0000 0.44460  0.68070  0.28970  Biso   1.000  H
  H28      1.0000 0.48360  0.68760  0.30780  Biso   1.000  H
  C37      1.0000 0.36870  0.59430  0.30150  Biso   1.000  C
  H29      1.0000 0.34170  0.57410  0.31130  Biso   1.000  H
  H30      1.0000 0.35840  0.61130  0.29150  Biso   1.000  H
  H31      1.0000 0.37790  0.57330  0.29350  Biso   1.000  H
  C38      1.0000 0.39900  0.66460  0.32780  Biso   1.000  C
  H32      1.0000 0.37210  0.64370  0.33750  Biso   1.000  H
  H33      1.0000 0.42710  0.68870  0.33620  Biso   1.000  H
  H34      1.0000 0.38820  0.68180  0.31800  Biso   1.000  H
  O9       1.0000 0.54830  0.53300  0.38894  Biso   1.000  O
  C39      1.0000 0.74570  0.67880  0.40680  Biso   1.000  C
  C40      1.0000 0.78170  0.69380  0.38900  Biso   1.000  C
  H35      1.0000 0.77820  0.66460  0.38180  Biso   1.000  H
  H36      1.0000 0.77580  0.71380  0.37870  Biso   1.000  H
  H37      1.0000 0.81500  0.71300  0.39480  Biso   1.000  H
  C41      1.0000 0.76340  0.65610  0.42420  Biso   1.000  C
  H38      1.0000 0.74070  0.64550  0.43640  Biso   1.000  H
  H39      1.0000 0.76440  0.62780  0.41830  Biso   1.000  H
  H40      1.0000 0.79630  0.68070  0.42910  Biso   1.000  H
  C42      1.0000 0.75120  0.72410  0.41790  Biso   1.000  C
  H41      1.0000 0.72740  0.71420  0.42960  Biso   1.000  H
  H42      1.0000 0.78450  0.74330  0.42370  Biso   1.000  H
  H43      1.0000 0.74530  0.74400  0.40760  Biso   1.000  H
  C43      1.0000 0.38310  0.61600  0.51757  Biso   1.000  C
  O10      1.0000 0.34189  0.58680  0.52469  Biso   1.000  O
  O11      1.0000 0.41289  0.65780  0.52460  Biso   1.000  O
  C44      1.0000 0.56680  0.44240  0.30264  Biso   1.000  C
  C45      1.0000 0.61080  0.44140  0.30345  Biso   1.000  C
  H44      1.0000 0.62960  0.45150  0.31630  Biso   1.000  H
  C46      1.0000 0.62800  0.42650  0.28645  Biso   1.000  C
  H45      1.0000 0.65790  0.42620  0.28780  Biso   1.000  H
  C47      1.0000 0.60180  0.41190  0.26732  Biso   1.000  C
  C48      1.0000 0.55940  0.41480  0.26563  Biso   1.000  C
  H46      1.0000 0.54150  0.40630  0.25250  Biso   1.000  H
  C49      1.0000 0.54320  0.43010  0.28287  Biso   1.000  C
  H47      1.0000 0.51440  0.43230  0.28120  Biso   1.000  H
  C50      1.0000 0.62070  0.39540  0.24900  Biso   1.000  C
  O12      1.0000 0.65690  0.39090  0.25223  Biso   1.000  O
  O13      1.0000 0.60010  0.38830  0.23120  Biso   1.000  O
  C51      1.0000 0.55940  0.43350  0.30304  Biso   1.000  C
  C52      1.0000 0.56060  0.38960  0.30407  Biso   1.000  C
  H48      1.0000 0.55130  0.37130  0.31700  Biso   1.000  H
  C53      1.0000 0.57490  0.37210  0.28690  Biso   1.000  C
  H49      1.0000 0.57580  0.34250  0.28820  Biso   1.000  H
  C54      1.0000 0.58790  0.39820  0.26758  Biso   1.000  C
  C55      1.0000 0.58420  0.43990  0.26582  Biso   1.000  C
  H50      1.0000 0.59050  0.45640  0.25240  Biso   1.000  H
  C56      1.0000 0.57140  0.45810  0.28346  Biso   1.000  C
  H51      1.0000 0.57080  0.48790  0.28210  Biso   1.000  H
  C57      1.0000 0.60630  0.38040  0.24950  Biso   1.000  C
  O14      1.0000 0.61060  0.34400  0.25288  Biso   1.000  O
  O15      1.0000 0.61350  0.40100  0.23150  Biso   1.000  O
  Co3      1.0000 0.17865  0.82121  0.69622  Biso   1.000  Co
  Co4      1.0000 0.14696  0.85289  0.73457  Biso   1.000  Co
  Zn2      1.0000 0.06746  0.03375  0.87726  Biso   1.000  Zn
  B3       1.0000 0.21137  0.78713  0.65683  Biso   1.000  B
  O16      1.0000 0.17897  0.74373  0.66858  Biso   1.000  O
  N7       1.0000 0.15827  0.74973  0.68678  Biso   1.000  N
  C58      1.0000 0.12597  0.70833  0.69429  Biso   1.000  C
  H52      1.0000 0.12107  0.67973  0.68703  Biso   1.000  H
  C59      1.0000 0.09597  0.70153  0.71303  Biso   1.000  C
  C60      1.0000 0.10087  0.74073  0.72610  Biso   1.000  C
  C61      1.0000 0.07017  0.72803  0.74473  Biso   1.000  C
  C62      1.0000 0.03417  0.67883  0.74848  Biso   1.000  C
  H53      1.0000 0.01407  0.67103  0.76083  Biso   1.000  H
  C63      1.0000 0.02717  0.64153  0.73466  Biso   1.000  C
  C64      1.0000 0.05837  0.65383  0.71734  Biso   1.000  C
  H54      1.0000 0.05407  0.62843  0.70783  Biso   1.000  H
  C65      1.0000 0.07387  0.76383  0.75993  Biso   1.000  C
  H55      1.0000 0.05517  0.75123  0.77273  Biso   1.000  H
  N8       1.0000 0.09897  0.80983  0.75853  Biso   1.000  N
  O17      1.0000 0.09147  0.83263  0.77579  Biso   1.000  O
  B4       1.0000 0.11487  0.88613  0.77454  Biso   1.000  B
  O18      1.0000 0.18477  0.81273  0.64872  Biso   1.000  O
  N9       1.0000 0.16717  0.83043  0.66414  Biso   1.000  N
  C66      1.0000 0.14557  0.85143  0.65573  Biso   1.000  C
  H56      1.0000 0.14357  0.85023  0.64053  Biso   1.000  H
  C67      1.0000 0.12387  0.87673  0.66627  Biso   1.000  C
  C68      1.0000 0.12217  0.87883  0.68918  Biso   1.000  C
  C69      1.0000 0.10197  0.90643  0.69841  Biso   1.000  C
  C70      1.0000 0.08917  0.93413  0.68467  Biso   1.000  C
  H57      1.0000 0.07707  0.95353  0.69093  Biso   1.000  H
  C71      1.0000 0.09327  0.93443  0.66252  Biso   1.000  C
  C72      1.0000 0.11057  0.90493  0.65354  Biso   1.000  C
  H58      1.0000 0.11337  0.90413  0.63843  Biso   1.000  H
  C73      1.0000 0.09587  0.90943  0.72130  Biso   1.000  C
  H59      1.0000 0.08097  0.92783  0.72563  Biso   1.000  H
  N10      1.0000 0.10817  0.89043  0.73623  Biso   1.000  N
  O19      1.0000 0.09747  0.90263  0.75603  Biso   1.000  O
  O20      1.0000 0.25647  0.82163  0.66875  Biso   1.000  O
  N11      1.0000 0.25037  0.84223  0.68638  Biso   1.000  N
  C74      1.0000 0.29157  0.87523  0.69392  Biso   1.000  C
  H60      1.0000 0.32007  0.88103  0.68623  Biso   1.000  H
  C75      1.0000 0.29907  0.90443  0.71287  Biso   1.000  C
  C76      1.0000 0.25957  0.89873  0.72634  Biso   1.000  C
  C77      1.0000 0.27217  0.93103  0.74426  Biso   1.000  C
  C78      1.0000 0.32067  0.96643  0.74761  Biso   1.000  C
  H61      1.0000 0.32787  0.98783  0.75953  Biso   1.000  H
  C79      1.0000 0.35967  0.97273  0.73479  Biso   1.000  C
  C80      1.0000 0.34727  0.94093  0.71756  Biso   1.000  C
  H62      1.0000 0.37287  0.94403  0.70843  Biso   1.000  H
  C81      1.0000 0.23637  0.92933  0.75943  Biso   1.000  C
  H63      1.0000 0.24867  0.95083  0.77143  Biso   1.000  H
  N12      1.0000 0.19047  0.90223  0.75822  Biso   1.000  N
  O21      1.0000 0.16847  0.91083  0.77556  Biso   1.000  O
  C82      1.0000 0.09747  0.90173  0.79563  Biso   1.000  C
  C83      1.0000 0.05327  0.87163  0.80549  Biso   1.000  C
  H64      1.0000 0.03277  0.83963  0.79983  Biso   1.000  H
  C84      1.0000 0.03747  0.88623  0.82329  Biso   1.000  C
  H65      1.0000 0.00637  0.86483  0.82943  Biso   1.000  H
  C85      1.0000 0.06727  0.93223  0.83203  Biso   1.000  C
  C86      1.0000 0.11237  0.96243  0.82297  Biso   1.000  C
  H66      1.0000 0.13337  0.99383  0.82903  Biso   1.000  H
  C87      1.0000 0.12727  0.94743  0.80502  Biso   1.000  C
  H67      1.0000 0.15857  0.96883  0.79893  Biso   1.000  H
  O22      1.0000 0.13297  0.78483  0.72244  Biso   1.000  O
  C88      1.0000 0.98577  0.58873  0.73873  Biso   1.000  C
  C89      1.0000 0.97157  0.55463  0.71973  Biso   1.000  C
  H68      1.0000 0.00097  0.55613  0.71363  Biso   1.000  H
  H69      1.0000 0.94867  0.52103  0.72443  Biso   1.000  H
  H70      1.0000 0.95587  0.56463  0.70883  Biso   1.000  H
  C90      1.0000 0.94027  0.58583  0.74773  Biso   1.000  C
  H71      1.0000 0.94887  0.60773  0.76013  Biso   1.000  H
  H72      1.0000 0.92467  0.59563  0.73673  Biso   1.000  H
  H73      1.0000 0.91747  0.55203  0.75223  Biso   1.000  H
  C91      1.0000 0.00727  0.57173  0.75703  Biso   1.000  C
  H74      1.0000 0.03737  0.57293  0.75203  Biso   1.000  H
  H75      1.0000 0.01467  0.59353  0.76943  Biso   1.000  H
  H76      1.0000 0.98317  0.53813  0.76123  Biso   1.000  H
  O23      1.0000 0.14117  0.85933  0.70144  Biso   1.000  O
  C92      1.0000 0.08057  0.96623  0.64803  Biso   1.000  C
  C93      1.0000 0.12167  0.99693  0.63293  Biso   1.000  C
  H77      1.0000 0.13047  0.97573  0.62483  Biso   1.000  H
  H78      1.0000 0.11127  0.01403  0.62303  Biso   1.000  H
  H79      1.0000 0.15027  0.02093  0.64113  Biso   1.000  H
  C94      1.0000 0.03537  0.92763  0.63483  Biso   1.000  C
  H80      1.0000 0.00837  0.90743  0.64463  Biso   1.000  H
  H81      1.0000 0.02507  0.94463  0.62483  Biso   1.000  H
  H82      1.0000 0.04457  0.90663  0.62683  Biso   1.000  H
  C95      1.0000 0.06567  0.99793  0.66113  Biso   1.000  C
  H83      1.0000 0.03877  0.97703  0.67083  Biso   1.000  H
  H84      1.0000 0.09377  0.02203  0.66953  Biso   1.000  H
  H85      1.0000 0.05487  0.01513  0.65133  Biso   1.000  H
  O24      1.0000 0.21497  0.86633  0.72227  Biso   1.000  O
  C96      1.0000 0.41237  0.01213  0.74013  Biso   1.000  C
  C97      1.0000 0.44837  0.02713  0.72233  Biso   1.000  C
  H86      1.0000 0.44487  0.99793  0.71513  Biso   1.000  H
  H87      1.0000 0.44247  0.04713  0.71203  Biso   1.000  H
  H88      1.0000 0.48167  0.04633  0.72813  Biso   1.000  H
  C98      1.0000 0.43007  0.98943  0.75753  Biso   1.000  C
  H89      1.0000 0.40737  0.97883  0.76973  Biso   1.000  H
  H90      1.0000 0.43107  0.96113  0.75163  Biso   1.000  H
  H91      1.0000 0.46297  0.01403  0.76243  Biso   1.000  H
  C99      1.0000 0.41787  0.05743  0.75123  Biso   1.000  C
  H92      1.0000 0.39407  0.04753  0.76293  Biso   1.000  H
  H93      1.0000 0.45117  0.07663  0.75703  Biso   1.000  H
  H94      1.0000 0.41197  0.07733  0.74093  Biso   1.000  H
  C100     1.0000 0.04977  0.94933  0.85090  Biso   1.000  C
  O25      1.0000 0.00856  0.92013  0.85802  Biso   1.000  O
  O26      1.0000 0.07956  0.99113  0.85793  Biso   1.000  O
  C101     1.0000 0.23347  0.77573  0.63597  Biso   1.000  C
  C102     1.0000 0.27747  0.77473  0.63678  Biso   1.000  C
  H95      1.0000 0.29627  0.78483  0.64963  Biso   1.000  H
  C103     1.0000 0.29467  0.75983  0.61978  Biso   1.000  C
  H96      1.0000 0.32457  0.75953  0.62113  Biso   1.000  H
  C104     1.0000 0.26847  0.74523  0.60065  Biso   1.000  C
  C105     1.0000 0.22607  0.74813  0.59896  Biso   1.000  C
  H97      1.0000 0.20817  0.73963  0.58583  Biso   1.000  H
  C106     1.0000 0.20987  0.76343  0.61620  Biso   1.000  C
  H98      1.0000 0.18107  0.76563  0.61453  Biso   1.000  H
  C107     1.0000 0.28737  0.72873  0.58233  Biso   1.000  C
  O27      1.0000 0.32357  0.72423  0.58556  Biso   1.000  O
  O28      1.0000 0.26677  0.72163  0.56453  Biso   1.000  O
  C108     1.0000 0.22607  0.76683  0.63637  Biso   1.000  C
  C109     1.0000 0.22727  0.72293  0.63740  Biso   1.000  C
  H99      1.0000 0.21797  0.70463  0.65033  Biso   1.000  H
  C110     1.0000 0.24157  0.70543  0.62023  Biso   1.000  C
  H100     1.0000 0.24247  0.67583  0.62153  Biso   1.000  H
  C111     1.0000 0.25457  0.73153  0.60091  Biso   1.000  C
  C112     1.0000 0.25087  0.77323  0.59915  Biso   1.000  C
  H101     1.0000 0.25717  0.78973  0.58573  Biso   1.000  H
  C113     1.0000 0.23807  0.79143  0.61679  Biso   1.000  C
  H102     1.0000 0.23747  0.82123  0.61543  Biso   1.000  H
  C114     1.0000 0.27297  0.71373  0.58283  Biso   1.000  C
  O29      1.0000 0.27727  0.67733  0.58621  Biso   1.000  O
  O30      1.0000 0.28017  0.73433  0.56483  Biso   1.000  O
  Co5      1.0000 0.84531  0.15455  0.02956  Biso   1.000  Co
  Co6      1.0000 0.81362  0.18623  0.06791  Biso   1.000  Co
  Zn3      1.0000 0.73412  0.36709  0.21060  Biso   1.000  Zn
  B5       1.0000 0.87803  0.12047  0.99017  Biso   1.000  B
  O31      1.0000 0.84563  0.07707  0.00192  Biso   1.000  O
  N13      1.0000 0.82493  0.08307  0.02012  Biso   1.000  N
  C115     1.0000 0.79263  0.04167  0.02763  Biso   1.000  C
  H103     1.0000 0.78773  0.01307  0.02037  Biso   1.000  H
  C116     1.0000 0.76263  0.03487  0.04637  Biso   1.000  C
  C117     1.0000 0.76753  0.07407  0.05944  Biso   1.000  C
  C118     1.0000 0.73683  0.06137  0.07807  Biso   1.000  C
  C119     1.0000 0.70083  0.01217  0.08182  Biso   1.000  C
  H104     1.0000 0.68073  0.00437  0.09417  Biso   1.000  H
  C120     1.0000 0.69383  0.97487  0.06800  Biso   1.000  C
  C121     1.0000 0.72503  0.98717  0.05068  Biso   1.000  C
  H105     1.0000 0.72073  0.96177  0.04117  Biso   1.000  H
  C122     1.0000 0.74053  0.09717  0.09327  Biso   1.000  C
  H106     1.0000 0.72183  0.08457  0.10607  Biso   1.000  H
  N14      1.0000 0.76563  0.14317  0.09187  Biso   1.000  N
  O32      1.0000 0.75813  0.16597  0.10913  Biso   1.000  O
  B6       1.0000 0.78153  0.21947  0.10788  Biso   1.000  B
  O33      1.0000 0.85143  0.14607  0.98206  Biso   1.000  O
  N15      1.0000 0.83383  0.16377  0.99748  Biso   1.000  N
  C123     1.0000 0.81223  0.18477  0.98907  Biso   1.000  C
  H107     1.0000 0.81023  0.18357  0.97387  Biso   1.000  H
  C124     1.0000 0.79053  0.21007  0.99961  Biso   1.000  C
  C125     1.0000 0.78883  0.21217  0.02252  Biso   1.000  C
  C126     1.0000 0.76863  0.23977  0.03175  Biso   1.000  C
  C127     1.0000 0.75583  0.26747  0.01801  Biso   1.000  C
  H108     1.0000 0.74373  0.28687  0.02427  Biso   1.000  H
  C128     1.0000 0.75993  0.26777  0.99586  Biso   1.000  C
  C129     1.0000 0.77723  0.23827  0.98688  Biso   1.000  C
  H109     1.0000 0.78003  0.23747  0.97177  Biso   1.000  H
  C130     1.0000 0.76253  0.24277  0.05464  Biso   1.000  C
  H110     1.0000 0.74763  0.26117  0.05897  Biso   1.000  H
  N16      1.0000 0.77483  0.22377  0.06957  Biso   1.000  N
  O34      1.0000 0.76413  0.23597  0.08937  Biso   1.000  O
  O35      1.0000 0.92313  0.15497  0.00209  Biso   1.000  O
  N17      1.0000 0.91703  0.17557  0.01972  Biso   1.000  N
  C131     1.0000 0.95823  0.20857  0.02726  Biso   1.000  C
  H111     1.0000 0.98673  0.21437  0.01957  Biso   1.000  H
  C132     1.0000 0.96573  0.23777  0.04621  Biso   1.000  C
  C133     1.0000 0.92623  0.23207  0.05968  Biso   1.000  C
  C134     1.0000 0.93883  0.26437  0.07760  Biso   1.000  C
  C135     1.0000 0.98733  0.29977  0.08095  Biso   1.000  C
  H112     1.0000 0.99453  0.32117  0.09287  Biso   1.000  H
  C136     1.0000 0.02633  0.30607  0.06813  Biso   1.000  C
  C137     1.0000 0.01393  0.27427  0.05090  Biso   1.000  C
  H113     1.0000 0.03953  0.27737  0.04177  Biso   1.000  H
  C138     1.0000 0.90303  0.26267  0.09277  Biso   1.000  C
  H114     1.0000 0.91533  0.28417  0.10477  Biso   1.000  H
  N18      1.0000 0.85713  0.23557  0.09156  Biso   1.000  N
  O36      1.0000 0.83513  0.24417  0.10890  Biso   1.000  O
  C139     1.0000 0.76413  0.23507  0.12897  Biso   1.000  C
  C140     1.0000 0.71993  0.20497  0.13883  Biso   1.000  C
  H115     1.0000 0.69943  0.17297  0.13317  Biso   1.000  H
  C141     1.0000 0.70413  0.21957  0.15663  Biso   1.000  C
  H116     1.0000 0.67303  0.19817  0.16277  Biso   1.000  H
  C142     1.0000 0.73393  0.26557  0.16537  Biso   1.000  C
  C143     1.0000 0.77903  0.29577  0.15631  Biso   1.000  C
  H117     1.0000 0.80003  0.32717  0.16237  Biso   1.000  H
  C144     1.0000 0.79393  0.28077  0.13836  Biso   1.000  C
  H118     1.0000 0.82523  0.30217  0.13227  Biso   1.000  H
  O37      1.0000 0.79963  0.11817  0.05578  Biso   1.000  O
  C145     1.0000 0.65243  0.92207  0.07207  Biso   1.000  C
  C146     1.0000 0.63823  0.88797  0.05307  Biso   1.000  C
  H119     1.0000 0.66763  0.88947  0.04697  Biso   1.000  H
  H120     1.0000 0.61533  0.85437  0.05777  Biso   1.000  H
  H121     1.0000 0.62253  0.89797  0.04217  Biso   1.000  H
  C147     1.0000 0.60693  0.91917  0.08107  Biso   1.000  C
  H122     1.0000 0.61553  0.94107  0.09347  Biso   1.000  H
  H123     1.0000 0.59133  0.92897  0.07007  Biso   1.000  H
  H124     1.0000 0.58413  0.88537  0.08557  Biso   1.000  H
  C148     1.0000 0.67393  0.90507  0.09037  Biso   1.000  C
  H125     1.0000 0.70403  0.90627  0.08537  Biso   1.000  H
  H126     1.0000 0.68133  0.92687  0.10277  Biso   1.000  H
  H127     1.0000 0.64983  0.87147  0.09457  Biso   1.000  H
  O38      1.0000 0.80783  0.19267  0.03478  Biso   1.000  O
  C149     1.0000 0.74723  0.29957  0.98137  Biso   1.000  C
  C150     1.0000 0.78833  0.33027  0.96627  Biso   1.000  C
  H128     1.0000 0.79713  0.30907  0.95817  Biso   1.000  H
  H129     1.0000 0.77793  0.34737  0.95637  Biso   1.000  H
  H130     1.0000 0.81693  0.35427  0.97447  Biso   1.000  H
  C151     1.0000 0.70203  0.26097  0.96817  Biso   1.000  C
  H131     1.0000 0.67503  0.24077  0.97797  Biso   1.000  H
  H132     1.0000 0.69173  0.27797  0.95817  Biso   1.000  H
  H133     1.0000 0.71123  0.23997  0.96017  Biso   1.000  H
  C152     1.0000 0.73233  0.33127  0.99447  Biso   1.000  C
  H134     1.0000 0.70543  0.31037  0.00417  Biso   1.000  H
  H135     1.0000 0.76043  0.35537  0.00287  Biso   1.000  H
  H136     1.0000 0.72153  0.34847  0.98467  Biso   1.000  H
  O39      1.0000 0.88163  0.19967  0.05561  Biso   1.000  O
  C153     1.0000 0.07903  0.34547  0.07347  Biso   1.000  C
  C154     1.0000 0.11503  0.36047  0.05567  Biso   1.000  C
  H137     1.0000 0.11153  0.33127  0.04847  Biso   1.000  H
  H138     1.0000 0.10913  0.38047  0.04537  Biso   1.000  H
  H139     1.0000 0.14833  0.37967  0.06147  Biso   1.000  H
  C155     1.0000 0.09673  0.32277  0.09087  Biso   1.000  C
  H140     1.0000 0.07403  0.31217  0.10307  Biso   1.000  H
  H141     1.0000 0.09773  0.29447  0.08497  Biso   1.000  H
  H142     1.0000 0.12963  0.34737  0.09577  Biso   1.000  H
  C156     1.0000 0.08453  0.39077  0.08457  Biso   1.000  C
  H143     1.0000 0.06073  0.38087  0.09627  Biso   1.000  H
  H144     1.0000 0.11783  0.40997  0.09037  Biso   1.000  H
  H145     1.0000 0.07863  0.41067  0.07427  Biso   1.000  H
  C157     1.0000 0.71643  0.28267  0.18424  Biso   1.000  C
  O40      1.0000 0.67522  0.25347  0.19136  Biso   1.000  O
  O41      1.0000 0.74622  0.32447  0.19127  Biso   1.000  O
  C158     1.0000 0.90013  0.10907  0.96931  Biso   1.000  C
  C159     1.0000 0.94413  0.10807  0.97012  Biso   1.000  C
  H146     1.0000 0.96293  0.11817  0.98297  Biso   1.000  H
  C160     1.0000 0.96133  0.09317  0.95312  Biso   1.000  C
  H147     1.0000 0.99123  0.09287  0.95447  Biso   1.000  H
  C161     1.0000 0.93513  0.07857  0.93399  Biso   1.000  C
  C162     1.0000 0.89273  0.08147  0.93230  Biso   1.000  C
  H148     1.0000 0.87483  0.07297  0.91917  Biso   1.000  H
  C163     1.0000 0.87653  0.09677  0.94954  Biso   1.000  C
  H149     1.0000 0.84773  0.09897  0.94787  Biso   1.000  H
  C164     1.0000 0.95403  0.06207  0.91567  Biso   1.000  C
  O42      1.0000 0.99023  0.05757  0.91890  Biso   1.000  O
  O43      1.0000 0.93343  0.05497  0.89787  Biso   1.000  O
  C165     1.0000 0.89273  0.10017  0.96971  Biso   1.000  C
  C166     1.0000 0.89393  0.05627  0.97074  Biso   1.000  C
  H150     1.0000 0.88463  0.03797  0.98367  Biso   1.000  H
  C167     1.0000 0.90823  0.03877  0.95357  Biso   1.000  C
  H151     1.0000 0.90913  0.00917  0.95487  Biso   1.000  H
  C168     1.0000 0.92123  0.06487  0.93425  Biso   1.000  C
  C169     1.0000 0.91753  0.10657  0.93249  Biso   1.000  C
  H152     1.0000 0.92383  0.12307  0.91907  Biso   1.000  H
  C170     1.0000 0.90473  0.12477  0.95013  Biso   1.000  C
  H153     1.0000 0.90413  0.15457  0.94877  Biso   1.000  H
  C171     1.0000 0.93963  0.04707  0.91617  Biso   1.000  C
  O44      1.0000 0.94393  0.01067  0.91955  Biso   1.000  O
  O45      1.0000 0.94683  0.06767  0.89817  Biso   1.000  O
  Co7      1.0000 0.51212  0.02410  0.36289  Biso   1.000  Co
  Co8      1.0000 0.48044  0.96073  0.40124  Biso   1.000  Co
  Zn4      1.0000 0.29958  0.70037  0.54393  Biso   1.000  Zn
  B7       1.0000 0.54620  0.09090  0.32350  Biso   1.000  B
  O46      1.0000 0.58960  0.10190  0.33525  Biso   1.000  O
  N19      1.0000 0.58360  0.07520  0.35345  Biso   1.000  N
  C172     1.0000 0.62500  0.08430  0.36096  Biso   1.000  C
  H154     1.0000 0.65360  0.10800  0.35370  Biso   1.000  H
  C173     1.0000 0.63180  0.06110  0.37970  Biso   1.000  C
  C174     1.0000 0.59260  0.02680  0.39277  Biso   1.000  C
  C175     1.0000 0.60530  0.00880  0.41140  Biso   1.000  C
  C176     1.0000 0.65450  0.02200  0.41515  Biso   1.000  C
  H155     1.0000 0.66230  0.00970  0.42750  Biso   1.000  H
  C177     1.0000 0.69180  0.05230  0.40133  Biso   1.000  C
  C178     1.0000 0.67950  0.07120  0.38401  Biso   1.000  C
  H156     1.0000 0.70490  0.09230  0.37450  Biso   1.000  H
  C179     1.0000 0.56950  0.97670  0.42660  Biso   1.000  C
  H157     1.0000 0.58210  0.97060  0.43940  Biso   1.000  H
  N20      1.0000 0.52350  0.95580  0.42520  Biso   1.000  N
  O47      1.0000 0.50070  0.92550  0.44246  Biso   1.000  O
  B8       1.0000 0.44720  0.89540  0.44121  Biso   1.000  B
  O48      1.0000 0.52060  0.03870  0.31539  Biso   1.000  O
  N21      1.0000 0.50290  0.00340  0.33081  Biso   1.000  N
  C180     1.0000 0.48190  0.96080  0.32240  Biso   1.000  C
  H158     1.0000 0.48310  0.96000  0.30720  Biso   1.000  H
  C181     1.0000 0.45660  0.91380  0.33294  Biso   1.000  C
  C182     1.0000 0.45450  0.91000  0.35585  Biso   1.000  C
  C183     1.0000 0.42690  0.86220  0.36508  Biso   1.000  C
  C184     1.0000 0.39920  0.82170  0.35134  Biso   1.000  C
  H159     1.0000 0.37980  0.79020  0.35760  Biso   1.000  H
  C185     1.0000 0.39890  0.82550  0.32919  Biso   1.000  C
  C186     1.0000 0.42840  0.87230  0.32021  Biso   1.000  C
  H160     1.0000 0.42920  0.87590  0.30510  Biso   1.000  H
  C187     1.0000 0.42390  0.85310  0.38797  Biso   1.000  C
  H161     1.0000 0.40550  0.81980  0.39230  Biso   1.000  H
  N22      1.0000 0.44290  0.88440  0.40290  Biso   1.000  N
  O49      1.0000 0.43070  0.86150  0.42270  Biso   1.000  O
  O50      1.0000 0.51170  0.10150  0.33542  Biso   1.000  O
  N23      1.0000 0.49110  0.07480  0.35305  Biso   1.000  N
  C188     1.0000 0.45810  0.08300  0.36059  Biso   1.000  C
  H162     1.0000 0.45230  0.10570  0.35290  Biso   1.000  H
  C189     1.0000 0.42890  0.06130  0.37954  Biso   1.000  C
  C190     1.0000 0.43460  0.02750  0.39301  Biso   1.000  C
  C191     1.0000 0.40230  0.00780  0.41093  Biso   1.000  C
  C192     1.0000 0.36690  0.02090  0.41428  Biso   1.000  C
  H163     1.0000 0.34550  0.00670  0.42620  Biso   1.000  H
  C193     1.0000 0.36060  0.05360  0.40146  Biso   1.000  C
  C194     1.0000 0.39240  0.07300  0.38423  Biso   1.000  C
  H164     1.0000 0.38930  0.09550  0.37510  Biso   1.000  H
  C195     1.0000 0.40400  0.97370  0.42610  Biso   1.000  C
  H165     1.0000 0.38250  0.96450  0.43810  Biso   1.000  H
  N24      1.0000 0.43110  0.95490  0.42489  Biso   1.000  N
  O51      1.0000 0.42250  0.92430  0.44223  Biso   1.000  O
  C196     1.0000 0.43160  0.86240  0.46230  Biso   1.000  C
  C197     1.0000 0.46170  0.84830  0.47216  Biso   1.000  C
  H166     1.0000 0.49370  0.85980  0.46650  Biso   1.000  H
  C198     1.0000 0.44710  0.81790  0.48996  Biso   1.000  C
  H167     1.0000 0.46850  0.80820  0.49610  Biso   1.000  H
  C199     1.0000 0.40110  0.80170  0.49870  Biso   1.000  C
  C200     1.0000 0.37090  0.81660  0.48964  Biso   1.000  C
  H168     1.0000 0.33950  0.80620  0.49570  Biso   1.000  H
  C201     1.0000 0.38590  0.84650  0.47169  Biso   1.000  C
  H169     1.0000 0.36450  0.85640  0.46560  Biso   1.000  H
  O52      1.0000 0.54850  0.01480  0.38911  Biso   1.000  O
  C202     1.0000 0.74460  0.06370  0.40540  Biso   1.000  C
  C203     1.0000 0.77870  0.08360  0.38640  Biso   1.000  C
  H170     1.0000 0.77720  0.11150  0.38030  Biso   1.000  H
  H171     1.0000 0.81230  0.09430  0.39110  Biso   1.000  H
  H172     1.0000 0.76870  0.05790  0.37550  Biso   1.000  H
  C204     1.0000 0.74750  0.02110  0.41440  Biso   1.000  C
  H173     1.0000 0.72560  0.00780  0.42680  Biso   1.000  H
  H174     1.0000 0.73770  0.99570  0.40340  Biso   1.000  H
  H175     1.0000 0.78130  0.03210  0.41890  Biso   1.000  H
  C205     1.0000 0.76160  0.10220  0.42370  Biso   1.000  C
  H176     1.0000 0.76040  0.13110  0.41870  Biso   1.000  H
  H177     1.0000 0.73980  0.08780  0.43610  Biso   1.000  H
  H178     1.0000 0.79520  0.11170  0.42790  Biso   1.000  H
  O53      1.0000 0.47400  0.94850  0.36811  Biso   1.000  O
  C206     1.0000 0.36710  0.78100  0.31470  Biso   1.000  C
  C207     1.0000 0.33640  0.79140  0.29960  Biso   1.000  C
  H179     1.0000 0.35760  0.82140  0.29150  Biso   1.000  H
  H180     1.0000 0.31930  0.76390  0.28970  Biso   1.000  H
  H181     1.0000 0.31240  0.79600  0.30780  Biso   1.000  H
  C208     1.0000 0.40570  0.77440  0.30150  Biso   1.000  C
  H182     1.0000 0.42590  0.76760  0.31130  Biso   1.000  H
  H183     1.0000 0.38870  0.74710  0.29150  Biso   1.000  H
  H184     1.0000 0.42670  0.80460  0.29350  Biso   1.000  H
  C209     1.0000 0.33540  0.73440  0.32780  Biso   1.000  C
  H185     1.0000 0.35630  0.72840  0.33750  Biso   1.000  H
  H186     1.0000 0.31130  0.73840  0.33620  Biso   1.000  H
  H187     1.0000 0.31820  0.70640  0.31800  Biso   1.000  H
  O54      1.0000 0.46700  0.01530  0.38894  Biso   1.000  O
  C210     1.0000 0.32120  0.06690  0.40680  Biso   1.000  C
  C211     1.0000 0.30620  0.08790  0.38900  Biso   1.000  C
  H188     1.0000 0.33540  0.11360  0.38180  Biso   1.000  H
  H189     1.0000 0.28620  0.06200  0.37870  Biso   1.000  H
  H190     1.0000 0.28700  0.10200  0.39480  Biso   1.000  H
  C212     1.0000 0.34390  0.10730  0.42420  Biso   1.000  C
  H191     1.0000 0.35450  0.09520  0.43640  Biso   1.000  H
  H192     1.0000 0.37220  0.13660  0.41830  Biso   1.000  H
  H193     1.0000 0.31930  0.11560  0.42910  Biso   1.000  H
  C213     1.0000 0.27590  0.02710  0.41790  Biso   1.000  C
  H194     1.0000 0.28580  0.01320  0.42960  Biso   1.000  H
  H195     1.0000 0.25670  0.04120  0.42370  Biso   1.000  H
  H196     1.0000 0.25600  0.00130  0.40760  Biso   1.000  H
  C214     1.0000 0.38400  0.76710  0.51757  Biso   1.000  C
  O55      1.0000 0.41320  0.75509  0.52469  Biso   1.000  O
  O56      1.0000 0.34220  0.75509  0.52460  Biso   1.000  O
  C215     1.0000 0.55760  0.12440  0.30264  Biso   1.000  C
  C216     1.0000 0.55860  0.16940  0.30345  Biso   1.000  C
  H197     1.0000 0.54850  0.17810  0.31630  Biso   1.000  H
  C217     1.0000 0.57350  0.20150  0.28645  Biso   1.000  C
  H198     1.0000 0.57380  0.23170  0.28780  Biso   1.000  H
  C218     1.0000 0.58810  0.18990  0.26732  Biso   1.000  C
  C219     1.0000 0.58520  0.14460  0.26563  Biso   1.000  C
  H199     1.0000 0.59370  0.13520  0.25250  Biso   1.000  H
  C220     1.0000 0.56990  0.11310  0.28287  Biso   1.000  C
  H200     1.0000 0.56770  0.08210  0.28120  Biso   1.000  H
  C221     1.0000 0.60460  0.22530  0.24900  Biso   1.000  C
  O57      1.0000 0.60910  0.26600  0.25223  Biso   1.000  O
  O58      1.0000 0.61170  0.21180  0.23120  Biso   1.000  O
  C222     1.0000 0.56650  0.12590  0.30304  Biso   1.000  C
  C223     1.0000 0.61040  0.17100  0.30407  Biso   1.000  C
  H201     1.0000 0.62870  0.18000  0.31700  Biso   1.000  H
  C224     1.0000 0.62790  0.20280  0.28690  Biso   1.000  C
  H202     1.0000 0.65750  0.23330  0.28820  Biso   1.000  H
  C225     1.0000 0.60180  0.18970  0.26758  Biso   1.000  C
  C226     1.0000 0.56010  0.14430  0.26582  Biso   1.000  C
  H203     1.0000 0.54360  0.13410  0.25240  Biso   1.000  H
  C227     1.0000 0.54190  0.11330  0.28346  Biso   1.000  C
  H204     1.0000 0.51210  0.08290  0.28210  Biso   1.000  H
  C228     1.0000 0.61960  0.22590  0.24950  Biso   1.000  C
  O59      1.0000 0.65600  0.26660  0.25288  Biso   1.000  O
  O60      1.0000 0.59900  0.21250  0.23150  Biso   1.000  O
  Co9      1.0000 0.17879  0.35743  0.69622  Biso   1.000  Co
  Co10     1.0000 0.14711  0.29406  0.73457  Biso   1.000  Co
  Zn5      1.0000 0.96625  0.03370  0.87726  Biso   1.000  Zn
  B9       1.0000 0.21287  0.42423  0.65683  Biso   1.000  B
  O61      1.0000 0.25627  0.43523  0.66858  Biso   1.000  O
  N25      1.0000 0.25027  0.40853  0.68678  Biso   1.000  N
  C229     1.0000 0.29167  0.41763  0.69429  Biso   1.000  C
  H205     1.0000 0.32027  0.44133  0.68703  Biso   1.000  H
  C230     1.0000 0.29847  0.39443  0.71303  Biso   1.000  C
  C231     1.0000 0.25927  0.36013  0.72610  Biso   1.000  C
  C232     1.0000 0.27197  0.34213  0.74473  Biso   1.000  C
  C233     1.0000 0.32117  0.35533  0.74848  Biso   1.000  C
  H206     1.0000 0.32897  0.34303  0.76083  Biso   1.000  H
  C234     1.0000 0.35847  0.38563  0.73466  Biso   1.000  C
  C235     1.0000 0.34617  0.40453  0.71734  Biso   1.000  C
  H207     1.0000 0.37157  0.42563  0.70783  Biso   1.000  H
  C236     1.0000 0.23617  0.31003  0.75993  Biso   1.000  C
  H208     1.0000 0.24877  0.30393  0.77273  Biso   1.000  H
  N26      1.0000 0.19017  0.28913  0.75853  Biso   1.000  N
  O62      1.0000 0.16737  0.25883  0.77579  Biso   1.000  O
  B10      1.0000 0.11387  0.22873  0.77454  Biso   1.000  B
  O63      1.0000 0.18727  0.37203  0.64872  Biso   1.000  O
  N27      1.0000 0.16957  0.33673  0.66414  Biso   1.000  N
  C237     1.0000 0.14857  0.29413  0.65573  Biso   1.000  C
  H209     1.0000 0.14977  0.29333  0.64053  Biso   1.000  H
  C238     1.0000 0.12327  0.24713  0.66627  Biso   1.000  C
  C239     1.0000 0.12117  0.24333  0.68918  Biso   1.000  C
  C240     1.0000 0.09357  0.19553  0.69841  Biso   1.000  C
  C241     1.0000 0.06587  0.15503  0.68467  Biso   1.000  C
  H210     1.0000 0.04647  0.12353  0.69093  Biso   1.000  H
  C242     1.0000 0.06557  0.15883  0.66252  Biso   1.000  C
  C243     1.0000 0.09507  0.20563  0.65354  Biso   1.000  C
  H211     1.0000 0.09587  0.20923  0.63843  Biso   1.000  H
  C244     1.0000 0.09057  0.18643  0.72130  Biso   1.000  C
  H212     1.0000 0.07217  0.15313  0.72563  Biso   1.000  H
  N28      1.0000 0.10957  0.21773  0.73623  Biso   1.000  N
  O64      1.0000 0.09737  0.19483  0.75603  Biso   1.000  O
  O65      1.0000 0.17837  0.43483  0.66875  Biso   1.000  O
  N29      1.0000 0.15777  0.40813  0.68638  Biso   1.000  N
  C245     1.0000 0.12477  0.41633  0.69392  Biso   1.000  C
  H213     1.0000 0.11897  0.43903  0.68623  Biso   1.000  H
  C246     1.0000 0.09557  0.39463  0.71287  Biso   1.000  C
  C247     1.0000 0.10127  0.36083  0.72634  Biso   1.000  C
  C248     1.0000 0.06897  0.34113  0.74426  Biso   1.000  C
  C249     1.0000 0.03357  0.35423  0.74761  Biso   1.000  C
  H214     1.0000 0.01217  0.34003  0.75953  Biso   1.000  H
  C250     1.0000 0.02727  0.38693  0.73479  Biso   1.000  C
  C251     1.0000 0.05907  0.40633  0.71756  Biso   1.000  C
  H215     1.0000 0.05597  0.42883  0.70843  Biso   1.000  H
  C252     1.0000 0.07067  0.30703  0.75943  Biso   1.000  C
  H216     1.0000 0.04917  0.29783  0.77143  Biso   1.000  H
  N30      1.0000 0.09777  0.28823  0.75822  Biso   1.000  N
  O66      1.0000 0.08917  0.25763  0.77556  Biso   1.000  O
  C253     1.0000 0.09827  0.19573  0.79563  Biso   1.000  C
  C254     1.0000 0.12837  0.18163  0.80549  Biso   1.000  C
  H217     1.0000 0.16037  0.19313  0.79983  Biso   1.000  H
  C255     1.0000 0.11377  0.15123  0.82329  Biso   1.000  C
  H218     1.0000 0.13517  0.14153  0.82943  Biso   1.000  H
  C256     1.0000 0.06777  0.13503  0.83203  Biso   1.000  C
  C257     1.0000 0.03757  0.14993  0.82297  Biso   1.000  C
  H219     1.0000 0.00617  0.13953  0.82903  Biso   1.000  H
  C258     1.0000 0.05257  0.17983  0.80502  Biso   1.000  C
  H220     1.0000 0.03117  0.18973  0.79893  Biso   1.000  H
  O67      1.0000 0.21517  0.34813  0.72244  Biso   1.000  O
  C259     1.0000 0.41127  0.39703  0.73873  Biso   1.000  C
  C260     1.0000 0.44537  0.41693  0.71973  Biso   1.000  C
  H221     1.0000 0.44387  0.44483  0.71363  Biso   1.000  H
  H222     1.0000 0.47897  0.42763  0.72443  Biso   1.000  H
  H223     1.0000 0.43537  0.39123  0.70883  Biso   1.000  H
  C261     1.0000 0.41417  0.35443  0.74773  Biso   1.000  C
  H224     1.0000 0.39227  0.34113  0.76013  Biso   1.000  H
  H225     1.0000 0.40437  0.32903  0.73673  Biso   1.000  H
  H226     1.0000 0.44797  0.36543  0.75223  Biso   1.000  H
  C262     1.0000 0.42827  0.43553  0.75703  Biso   1.000  C
  H227     1.0000 0.42707  0.46443  0.75203  Biso   1.000  H
  H228     1.0000 0.40647  0.42113  0.76943  Biso   1.000  H
  H229     1.0000 0.46187  0.44503  0.76123  Biso   1.000  H
  O68      1.0000 0.14067  0.28183  0.70144  Biso   1.000  O
  C263     1.0000 0.03377  0.11433  0.64803  Biso   1.000  C
  C264     1.0000 0.00307  0.12473  0.63293  Biso   1.000  C
  H230     1.0000 0.02427  0.15473  0.62483  Biso   1.000  H
  H231     1.0000 0.98597  0.09723  0.62303  Biso   1.000  H
  H232     1.0000 0.97907  0.12933  0.64113  Biso   1.000  H
  C265     1.0000 0.07237  0.10773  0.63483  Biso   1.000  C
  H233     1.0000 0.09257  0.10093  0.64463  Biso   1.000  H
  H234     1.0000 0.05537  0.08043  0.62483  Biso   1.000  H
  H235     1.0000 0.09337  0.13793  0.62683  Biso   1.000  H
  C266     1.0000 0.00207  0.06773  0.66113  Biso   1.000  C
  H236     1.0000 0.02297  0.06173  0.67083  Biso   1.000  H
  H237     1.0000 0.97797  0.07173  0.66953  Biso   1.000  H
  H238     1.0000 0.98487  0.03973  0.65133  Biso   1.000  H
  O69      1.0000 0.13367  0.34863  0.72227  Biso   1.000  O
  C267     1.0000 0.98787  0.40023  0.74013  Biso   1.000  C
  C268     1.0000 0.97287  0.42123  0.72233  Biso   1.000  C
  H239     1.0000 0.00207  0.44693  0.71513  Biso   1.000  H
  H240     1.0000 0.95287  0.39533  0.71203  Biso   1.000  H
  H241     1.0000 0.95367  0.43533  0.72813  Biso   1.000  H
  C269     1.0000 0.01057  0.44063  0.75753  Biso   1.000  C
  H242     1.0000 0.02117  0.42853  0.76973  Biso   1.000  H
  H243     1.0000 0.03887  0.46993  0.75163  Biso   1.000  H
  H244     1.0000 0.98597  0.44893  0.76243  Biso   1.000  H
  C270     1.0000 0.94257  0.36043  0.75123  Biso   1.000  C
  H245     1.0000 0.95247  0.34653  0.76293  Biso   1.000  H
  H246     1.0000 0.92337  0.37453  0.75703  Biso   1.000  H
  H247     1.0000 0.92267  0.33463  0.74093  Biso   1.000  H
  C271     1.0000 0.05067  0.10043  0.85090  Biso   1.000  C
  O70      1.0000 0.07987  0.08842  0.85802  Biso   1.000  O
  O71      1.0000 0.00887  0.08842  0.85793  Biso   1.000  O
  C272     1.0000 0.22427  0.45773  0.63597  Biso   1.000  C
  C273     1.0000 0.22527  0.50273  0.63678  Biso   1.000  C
  H248     1.0000 0.21517  0.51143  0.64963  Biso   1.000  H
  C274     1.0000 0.24017  0.53483  0.61978  Biso   1.000  C
  H249     1.0000 0.24047  0.56503  0.62113  Biso   1.000  H
  C275     1.0000 0.25477  0.52323  0.60065  Biso   1.000  C
  C276     1.0000 0.25187  0.47793  0.59896  Biso   1.000  C
  H250     1.0000 0.26037  0.46853  0.58583  Biso   1.000  H
  C277     1.0000 0.23657  0.44643  0.61620  Biso   1.000  C
  H251     1.0000 0.23437  0.41543  0.61453  Biso   1.000  H
  C278     1.0000 0.27127  0.55863  0.58233  Biso   1.000  C
  O72      1.0000 0.27577  0.59933  0.58556  Biso   1.000  O
  O73      1.0000 0.27837  0.54513  0.56453  Biso   1.000  O
  C279     1.0000 0.23317  0.45923  0.63637  Biso   1.000  C
  C280     1.0000 0.27707  0.50433  0.63740  Biso   1.000  C
  H252     1.0000 0.29537  0.51333  0.65033  Biso   1.000  H
  C281     1.0000 0.29457  0.53613  0.62023  Biso   1.000  C
  H253     1.0000 0.32417  0.56663  0.62153  Biso   1.000  H
  C282     1.0000 0.26847  0.52303  0.60091  Biso   1.000  C
  C283     1.0000 0.22677  0.47763  0.59915  Biso   1.000  C
  H254     1.0000 0.21027  0.46743  0.58573  Biso   1.000  H
  C284     1.0000 0.20857  0.44663  0.61679  Biso   1.000  C
  H255     1.0000 0.17877  0.41623  0.61543  Biso   1.000  H
  C285     1.0000 0.28627  0.55923  0.58283  Biso   1.000  C
  O74      1.0000 0.32267  0.59993  0.58621  Biso   1.000  O
  O75      1.0000 0.26567  0.54583  0.56483  Biso   1.000  O
  Co11     1.0000 0.84545  0.69077  0.02956  Biso   1.000  Co
  Co12     1.0000 0.81377  0.62740  0.06791  Biso   1.000  Co
  Zn6      1.0000 0.63291  0.36704  0.21060  Biso   1.000  Zn
  B11      1.0000 0.87953  0.75757  0.99017  Biso   1.000  B
  O76      1.0000 0.92293  0.76857  0.00192  Biso   1.000  O
  N31      1.0000 0.91693  0.74187  0.02012  Biso   1.000  N
  C286     1.0000 0.95833  0.75097  0.02763  Biso   1.000  C
  H256     1.0000 0.98693  0.77467  0.02037  Biso   1.000  H
  C287     1.0000 0.96513  0.72777  0.04637  Biso   1.000  C
  C288     1.0000 0.92593  0.69347  0.05944  Biso   1.000  C
  C289     1.0000 0.93863  0.67547  0.07807  Biso   1.000  C
  C290     1.0000 0.98783  0.68867  0.08182  Biso   1.000  C
  H257     1.0000 0.99563  0.67637  0.09417  Biso   1.000  H
  C291     1.0000 0.02513  0.71897  0.06800  Biso   1.000  C
  C292     1.0000 0.01283  0.73787  0.05068  Biso   1.000  C
  H258     1.0000 0.03823  0.75897  0.04117  Biso   1.000  H
  C293     1.0000 0.90283  0.64337  0.09327  Biso   1.000  C
  H259     1.0000 0.91543  0.63727  0.10607  Biso   1.000  H
  N32      1.0000 0.85683  0.62247  0.09187  Biso   1.000  N
  O77      1.0000 0.83403  0.59217  0.10913  Biso   1.000  O
  B12      1.0000 0.78053  0.56207  0.10788  Biso   1.000  B
  O78      1.0000 0.85393  0.70537  0.98206  Biso   1.000  O
  N33      1.0000 0.83623  0.67007  0.99748  Biso   1.000  N
  C294     1.0000 0.81523  0.62747  0.98907  Biso   1.000  C
  H260     1.0000 0.81643  0.62667  0.97387  Biso   1.000  H
  C295     1.0000 0.78993  0.58047  0.99961  Biso   1.000  C
  C296     1.0000 0.78783  0.57667  0.02252  Biso   1.000  C
  C297     1.0000 0.76023  0.52887  0.03175  Biso   1.000  C
  C298     1.0000 0.73253  0.48837  0.01801  Biso   1.000  C
  H261     1.0000 0.71313  0.45687  0.02427  Biso   1.000  H
  C299     1.0000 0.73223  0.49217  0.99586  Biso   1.000  C
  C300     1.0000 0.76173  0.53897  0.98688  Biso   1.000  C
  H262     1.0000 0.76253  0.54257  0.97177  Biso   1.000  H
  C301     1.0000 0.75723  0.51977  0.05464  Biso   1.000  C
  H263     1.0000 0.73883  0.48647  0.05897  Biso   1.000  H
  N34      1.0000 0.77623  0.55107  0.06957  Biso   1.000  N
  O79      1.0000 0.76403  0.52817  0.08937  Biso   1.000  O
  O80      1.0000 0.84503  0.76817  0.00209  Biso   1.000  O
  N35      1.0000 0.82443  0.74147  0.01972  Biso   1.000  N
  C302     1.0000 0.79143  0.74967  0.02726  Biso   1.000  C
  H264     1.0000 0.78563  0.77237  0.01957  Biso   1.000  H
  C303     1.0000 0.76223  0.72797  0.04621  Biso   1.000  C
  C304     1.0000 0.76793  0.69417  0.05968  Biso   1.000  C
  C305     1.0000 0.73563  0.67447  0.07760  Biso   1.000  C
  C306     1.0000 0.70023  0.68757  0.08095  Biso   1.000  C
  H265     1.0000 0.67883  0.67337  0.09287  Biso   1.000  H
  C307     1.0000 0.69393  0.72027  0.06813  Biso   1.000  C
  C308     1.0000 0.72573  0.73967  0.05090  Biso   1.000  C
  H266     1.0000 0.72263  0.76217  0.04177  Biso   1.000  H
  C309     1.0000 0.73733  0.64037  0.09277  Biso   1.000  C
  H267     1.0000 0.71583  0.63117  0.10477  Biso   1.000  H
  N36      1.0000 0.76443  0.62157  0.09156  Biso   1.000  N
  O81      1.0000 0.75583  0.59097  0.10890  Biso   1.000  O
  C310     1.0000 0.76493  0.52907  0.12897  Biso   1.000  C
  C311     1.0000 0.79503  0.51497  0.13883  Biso   1.000  C
  H268     1.0000 0.82703  0.52647  0.13317  Biso   1.000  H
  C312     1.0000 0.78043  0.48457  0.15663  Biso   1.000  C
  H269     1.0000 0.80183  0.47487  0.16277  Biso   1.000  H
  C313     1.0000 0.73443  0.46837  0.16537  Biso   1.000  C
  C314     1.0000 0.70423  0.48327  0.15631  Biso   1.000  C
  H270     1.0000 0.67283  0.47287  0.16237  Biso   1.000  H
  C315     1.0000 0.71923  0.51317  0.13836  Biso   1.000  C
  H271     1.0000 0.69783  0.52307  0.13227  Biso   1.000  H
  O82      1.0000 0.88183  0.68147  0.05578  Biso   1.000  O
  C316     1.0000 0.07793  0.73037  0.07207  Biso   1.000  C
  C317     1.0000 0.11203  0.75027  0.05307  Biso   1.000  C
  H272     1.0000 0.11053  0.77817  0.04697  Biso   1.000  H
  H273     1.0000 0.14563  0.76097  0.05777  Biso   1.000  H
  H274     1.0000 0.10203  0.72457  0.04217  Biso   1.000  H
  C318     1.0000 0.08083  0.68777  0.08107  Biso   1.000  C
  H275     1.0000 0.05893  0.67447  0.09347  Biso   1.000  H
  H276     1.0000 0.07103  0.66237  0.07007  Biso   1.000  H
  H277     1.0000 0.11463  0.69877  0.08557  Biso   1.000  H
  C319     1.0000 0.09493  0.76887  0.09037  Biso   1.000  C
  H278     1.0000 0.09373  0.79777  0.08537  Biso   1.000  H
  H279     1.0000 0.07313  0.75447  0.10277  Biso   1.000  H
  H280     1.0000 0.12853  0.77837  0.09457  Biso   1.000  H
  O83      1.0000 0.80733  0.61517  0.03478  Biso   1.000  O
  C320     1.0000 0.70043  0.44767  0.98137  Biso   1.000  C
  C321     1.0000 0.66973  0.45807  0.96627  Biso   1.000  C
  H281     1.0000 0.69093  0.48807  0.95817  Biso   1.000  H
  H282     1.0000 0.65263  0.43057  0.95637  Biso   1.000  H
  H283     1.0000 0.64573  0.46267  0.97447  Biso   1.000  H
  C322     1.0000 0.73903  0.44107  0.96817  Biso   1.000  C
  H284     1.0000 0.75923  0.43427  0.97797  Biso   1.000  H
  H285     1.0000 0.72203  0.41377  0.95817  Biso   1.000  H
  H286     1.0000 0.76003  0.47127  0.96017  Biso   1.000  H
  C323     1.0000 0.66873  0.40107  0.99447  Biso   1.000  C
  H287     1.0000 0.68963  0.39507  0.00417  Biso   1.000  H
  H288     1.0000 0.64463  0.40507  0.00287  Biso   1.000  H
  H289     1.0000 0.65153  0.37307  0.98467  Biso   1.000  H
  O84      1.0000 0.80033  0.68197  0.05561  Biso   1.000  O
  C324     1.0000 0.65453  0.73357  0.07347  Biso   1.000  C
  C325     1.0000 0.63953  0.75457  0.05567  Biso   1.000  C
  H290     1.0000 0.66873  0.78027  0.04847  Biso   1.000  H
  H291     1.0000 0.61953  0.72867  0.04537  Biso   1.000  H
  H292     1.0000 0.62033  0.76867  0.06147  Biso   1.000  H
  C326     1.0000 0.67723  0.77397  0.09087  Biso   1.000  C
  H293     1.0000 0.68783  0.76187  0.10307  Biso   1.000  H
  H294     1.0000 0.70553  0.80327  0.08497  Biso   1.000  H
  H295     1.0000 0.65263  0.78227  0.09577  Biso   1.000  H
  C327     1.0000 0.60923  0.69377  0.08457  Biso   1.000  C
  H296     1.0000 0.61913  0.67987  0.09627  Biso   1.000  H
  H297     1.0000 0.59003  0.70787  0.09037  Biso   1.000  H
  H298     1.0000 0.58933  0.66797  0.07427  Biso   1.000  H
  C328     1.0000 0.71733  0.43377  0.18424  Biso   1.000  C
  O85      1.0000 0.74653  0.42176  0.19136  Biso   1.000  O
  O86      1.0000 0.67553  0.42176  0.19127  Biso   1.000  O
  C329     1.0000 0.89093  0.79107  0.96931  Biso   1.000  C
  C330     1.0000 0.89193  0.83607  0.97012  Biso   1.000  C
  H299     1.0000 0.88183  0.84477  0.98297  Biso   1.000  H
  C331     1.0000 0.90683  0.86817  0.95312  Biso   1.000  C
  H300     1.0000 0.90713  0.89837  0.95447  Biso   1.000  H
  C332     1.0000 0.92143  0.85657  0.93399  Biso   1.000  C
  C333     1.0000 0.91853  0.81127  0.93230  Biso   1.000  C
  H301     1.0000 0.92703  0.80187  0.91917  Biso   1.000  H
  C334     1.0000 0.90323  0.77977  0.94954  Biso   1.000  C
  H302     1.0000 0.90103  0.74877  0.94787  Biso   1.000  H
  C335     1.0000 0.93793  0.89197  0.91567  Biso   1.000  C
  O87      1.0000 0.94243  0.93267  0.91890  Biso   1.000  O
  O88      1.0000 0.94503  0.87847  0.89787  Biso   1.000  O
  C336     1.0000 0.89983  0.79257  0.96971  Biso   1.000  C
  C337     1.0000 0.94373  0.83767  0.97074  Biso   1.000  C
  H303     1.0000 0.96203  0.84667  0.98367  Biso   1.000  H
  C338     1.0000 0.96123  0.86947  0.95357  Biso   1.000  C
  H304     1.0000 0.99083  0.89997  0.95487  Biso   1.000  H
  C339     1.0000 0.93513  0.85637  0.93425  Biso   1.000  C
  C340     1.0000 0.89343  0.81097  0.93249  Biso   1.000  C
  H305     1.0000 0.87693  0.80077  0.91907  Biso   1.000  H
  C341     1.0000 0.87523  0.77997  0.95013  Biso   1.000  C
  H306     1.0000 0.84543  0.74957  0.94877  Biso   1.000  H
  C342     1.0000 0.95293  0.89257  0.91617  Biso   1.000  C
  O89      1.0000 0.98933  0.93327  0.91955  Biso   1.000  O
  O90      1.0000 0.93233  0.87917  0.89817  Biso   1.000  O
  Co13     1.0000 0.97590  0.48802  0.36289  Biso   1.000  Co
  Co14     1.0000 0.03927  0.51971  0.40124  Biso   1.000  Co
  Zn7      1.0000 0.29963  0.59921  0.54393  Biso   1.000  Zn
  B13      1.0000 0.90910  0.45530  0.32350  Biso   1.000  B
  O91      1.0000 0.89810  0.48770  0.33525  Biso   1.000  O
  N37      1.0000 0.92480  0.50840  0.35345  Biso   1.000  N
  C343     1.0000 0.91570  0.54070  0.36096  Biso   1.000  C
  H307     1.0000 0.89200  0.54560  0.35370  Biso   1.000  H
  C344     1.0000 0.93890  0.57070  0.37970  Biso   1.000  C
  C345     1.0000 0.97320  0.56580  0.39277  Biso   1.000  C
  C346     1.0000 0.99120  0.59650  0.41140  Biso   1.000  C
  C347     1.0000 0.97800  0.63250  0.41515  Biso   1.000  C
  H308     1.0000 0.99030  0.65260  0.42750  Biso   1.000  H
  C348     1.0000 0.94770  0.63950  0.40133  Biso   1.000  C
  C349     1.0000 0.92880  0.60830  0.38401  Biso   1.000  C
  H309     1.0000 0.90770  0.61260  0.37450  Biso   1.000  H
  C350     1.0000 0.02330  0.59280  0.42660  Biso   1.000  C
  H310     1.0000 0.02940  0.61150  0.43940  Biso   1.000  H
  N38      1.0000 0.04420  0.56770  0.42520  Biso   1.000  N
  O92      1.0000 0.07450  0.57520  0.44246  Biso   1.000  O
  B14      1.0000 0.10460  0.55180  0.44121  Biso   1.000  B
  O93      1.0000 0.96130  0.48190  0.31539  Biso   1.000  O
  N39      1.0000 0.99660  0.49950  0.33081  Biso   1.000  N
  C351     1.0000 0.03920  0.52110  0.32240  Biso   1.000  C
  H311     1.0000 0.04000  0.52310  0.30720  Biso   1.000  H
  C352     1.0000 0.08620  0.54280  0.33294  Biso   1.000  C
  C353     1.0000 0.09000  0.54450  0.35585  Biso   1.000  C
  C354     1.0000 0.13780  0.56470  0.36508  Biso   1.000  C
  C355     1.0000 0.17830  0.57750  0.35134  Biso   1.000  C
  H312     1.0000 0.20980  0.58960  0.35760  Biso   1.000  H
  C356     1.0000 0.17450  0.57340  0.32919  Biso   1.000  C
  C357     1.0000 0.12770  0.55610  0.32021  Biso   1.000  C
  H313     1.0000 0.12410  0.55330  0.30510  Biso   1.000  H
  C358     1.0000 0.14690  0.57080  0.38797  Biso   1.000  C
  H314     1.0000 0.18020  0.58570  0.39230  Biso   1.000  H
  N40      1.0000 0.11560  0.55850  0.40290  Biso   1.000  N
  O94      1.0000 0.13850  0.56920  0.42270  Biso   1.000  O
  O95      1.0000 0.89850  0.41020  0.33542  Biso   1.000  O
  N41      1.0000 0.92520  0.41630  0.35305  Biso   1.000  N
  C359     1.0000 0.91700  0.37510  0.36059  Biso   1.000  C
  H315     1.0000 0.89430  0.34660  0.35290  Biso   1.000  H
  C360     1.0000 0.93870  0.36760  0.37954  Biso   1.000  C
  C361     1.0000 0.97250  0.40710  0.39301  Biso   1.000  C
  C362     1.0000 0.99220  0.39450  0.41093  Biso   1.000  C
  C363     1.0000 0.97910  0.34600  0.41428  Biso   1.000  C
  H316     1.0000 0.99330  0.33880  0.42620  Biso   1.000  H
  C364     1.0000 0.94640  0.30700  0.40146  Biso   1.000  C
  C365     1.0000 0.92700  0.31940  0.38423  Biso   1.000  C
  H317     1.0000 0.90450  0.29380  0.37510  Biso   1.000  H
  C366     1.0000 0.02630  0.43030  0.42610  Biso   1.000  C
  H318     1.0000 0.03550  0.41800  0.43810  Biso   1.000  H
  N42      1.0000 0.04510  0.47620  0.42489  Biso   1.000  N
  O96      1.0000 0.07570  0.49820  0.44223  Biso   1.000  O
  C367     1.0000 0.13760  0.56920  0.46230  Biso   1.000  C
  C368     1.0000 0.15170  0.61340  0.47216  Biso   1.000  C
  H319     1.0000 0.14020  0.63390  0.46650  Biso   1.000  H
  C369     1.0000 0.18210  0.62920  0.48996  Biso   1.000  C
  H320     1.0000 0.19180  0.66030  0.49610  Biso   1.000  H
  C370     1.0000 0.19830  0.59940  0.49870  Biso   1.000  C
  C371     1.0000 0.18340  0.55430  0.48964  Biso   1.000  C
  H321     1.0000 0.19380  0.53330  0.49570  Biso   1.000  H
  C372     1.0000 0.15350  0.53940  0.47169  Biso   1.000  C
  H322     1.0000 0.14360  0.50810  0.46560  Biso   1.000  H
  O97      1.0000 0.98520  0.53370  0.38911  Biso   1.000  O
  C373     1.0000 0.93630  0.68090  0.40540  Biso   1.000  C
  C374     1.0000 0.91640  0.69510  0.38640  Biso   1.000  C
  H323     1.0000 0.88850  0.66570  0.38030  Biso   1.000  H
  H324     1.0000 0.90570  0.71800  0.39110  Biso   1.000  H
  H325     1.0000 0.94210  0.71080  0.37550  Biso   1.000  H
  C375     1.0000 0.97890  0.72640  0.41440  Biso   1.000  C
  H326     1.0000 0.99220  0.71780  0.42680  Biso   1.000  H
  H327     1.0000 0.00430  0.74200  0.40340  Biso   1.000  H
  H328     1.0000 0.96790  0.74920  0.41890  Biso   1.000  H
  C376     1.0000 0.89780  0.65940  0.42370  Biso   1.000  C
  H329     1.0000 0.86890  0.62930  0.41870  Biso   1.000  H
  H330     1.0000 0.91220  0.65200  0.43610  Biso   1.000  H
  H331     1.0000 0.88830  0.68350  0.42790  Biso   1.000  H
  O98      1.0000 0.05150  0.52550  0.36811  Biso   1.000  O
  C377     1.0000 0.21900  0.58610  0.31470  Biso   1.000  C
  C378     1.0000 0.20860  0.54500  0.29960  Biso   1.000  C
  H332     1.0000 0.17860  0.53620  0.29150  Biso   1.000  H
  H333     1.0000 0.23610  0.55540  0.28970  Biso   1.000  H
  H334     1.0000 0.20400  0.51640  0.30780  Biso   1.000  H
  C379     1.0000 0.22560  0.63130  0.30150  Biso   1.000  C
  H335     1.0000 0.23240  0.65830  0.31130  Biso   1.000  H
  H336     1.0000 0.25290  0.64160  0.29150  Biso   1.000  H
  H337     1.0000 0.19540  0.62210  0.29350  Biso   1.000  H
  C380     1.0000 0.26560  0.60100  0.32780  Biso   1.000  C
  H338     1.0000 0.27160  0.62790  0.33750  Biso   1.000  H
  H339     1.0000 0.26160  0.57290  0.33620  Biso   1.000  H
  H340     1.0000 0.29360  0.61180  0.31800  Biso   1.000  H
  O99      1.0000 0.98470  0.45170  0.38894  Biso   1.000  O
  C381     1.0000 0.93310  0.25430  0.40680  Biso   1.000  C
  C382     1.0000 0.91210  0.21830  0.38900  Biso   1.000  C
  H341     1.0000 0.88640  0.22180  0.38180  Biso   1.000  H
  H342     1.0000 0.93800  0.22420  0.37870  Biso   1.000  H
  H343     1.0000 0.89800  0.18500  0.39480  Biso   1.000  H
  C383     1.0000 0.89270  0.23660  0.42420  Biso   1.000  C
  H344     1.0000 0.90480  0.25930  0.43640  Biso   1.000  H
  H345     1.0000 0.86340  0.23560  0.41830  Biso   1.000  H
  H346     1.0000 0.88440  0.20370  0.42910  Biso   1.000  H
  C384     1.0000 0.97290  0.24880  0.41790  Biso   1.000  C
  H347     1.0000 0.98680  0.27260  0.42960  Biso   1.000  H
  H348     1.0000 0.95880  0.21550  0.42370  Biso   1.000  H
  H349     1.0000 0.99870  0.25470  0.40760  Biso   1.000  H
  C385     1.0000 0.23290  0.61690  0.51757  Biso   1.000  C
  O100     1.0000 0.24491  0.65811  0.52469  Biso   1.000  O
  O101     1.0000 0.24491  0.58711  0.52460  Biso   1.000  O
  C386     1.0000 0.87560  0.43320  0.30264  Biso   1.000  C
  C387     1.0000 0.83060  0.38920  0.30345  Biso   1.000  C
  H350     1.0000 0.82190  0.37040  0.31630  Biso   1.000  H
  C388     1.0000 0.79850  0.37200  0.28645  Biso   1.000  C
  H351     1.0000 0.76830  0.34210  0.28780  Biso   1.000  H
  C389     1.0000 0.81010  0.39820  0.26732  Biso   1.000  C
  C390     1.0000 0.85540  0.44060  0.26563  Biso   1.000  C
  H352     1.0000 0.86480  0.45850  0.25250  Biso   1.000  H
  C391     1.0000 0.88690  0.45680  0.28287  Biso   1.000  C
  H353     1.0000 0.91790  0.48560  0.28120  Biso   1.000  H
  C392     1.0000 0.77470  0.37930  0.24900  Biso   1.000  C
  O102     1.0000 0.73400  0.34310  0.25223  Biso   1.000  O
  O103     1.0000 0.78820  0.39990  0.23120  Biso   1.000  O
  C393     1.0000 0.87410  0.44060  0.30304  Biso   1.000  C
  C394     1.0000 0.82900  0.43940  0.30407  Biso   1.000  C
  H354     1.0000 0.82000  0.44870  0.31700  Biso   1.000  H
  C395     1.0000 0.79720  0.42510  0.28690  Biso   1.000  C
  H355     1.0000 0.76670  0.42420  0.28820  Biso   1.000  H
  C396     1.0000 0.81030  0.41210  0.26758  Biso   1.000  C
  C397     1.0000 0.85570  0.41580  0.26582  Biso   1.000  C
  H356     1.0000 0.86590  0.40950  0.25240  Biso   1.000  H
  C398     1.0000 0.88670  0.42860  0.28346  Biso   1.000  C
  H357     1.0000 0.91710  0.42920  0.28210  Biso   1.000  H
  C399     1.0000 0.77410  0.39370  0.24950  Biso   1.000  C
  O104     1.0000 0.73340  0.38940  0.25288  Biso   1.000  O
  O105     1.0000 0.78750  0.38650  0.23150  Biso   1.000  O
  Co15     1.0000 0.64257  0.82135  0.69622  Biso   1.000  Co
  Co16     1.0000 0.70594  0.85304  0.73457  Biso   1.000  Co
  Zn8      1.0000 0.96630  0.93254  0.87726  Biso   1.000  Zn
  B15      1.0000 0.57577  0.78863  0.65683  Biso   1.000  B
  O106     1.0000 0.56477  0.82103  0.66858  Biso   1.000  O
  N43      1.0000 0.59147  0.84173  0.68678  Biso   1.000  N
  C400     1.0000 0.58237  0.87403  0.69429  Biso   1.000  C
  H358     1.0000 0.55867  0.87893  0.68703  Biso   1.000  H
  C401     1.0000 0.60557  0.90403  0.71303  Biso   1.000  C
  C402     1.0000 0.63987  0.89913  0.72610  Biso   1.000  C
  C403     1.0000 0.65787  0.92983  0.74473  Biso   1.000  C
  C404     1.0000 0.64467  0.96583  0.74848  Biso   1.000  C
  H359     1.0000 0.65697  0.98593  0.76083  Biso   1.000  H
  C405     1.0000 0.61437  0.97283  0.73466  Biso   1.000  C
  C406     1.0000 0.59547  0.94163  0.71734  Biso   1.000  C
  H360     1.0000 0.57437  0.94593  0.70783  Biso   1.000  H
  C407     1.0000 0.68997  0.92613  0.75993  Biso   1.000  C
  H361     1.0000 0.69607  0.94483  0.77273  Biso   1.000  H
  N44      1.0000 0.71087  0.90103  0.75853  Biso   1.000  N
  O107     1.0000 0.74117  0.90853  0.77579  Biso   1.000  O
  B16      1.0000 0.77127  0.88513  0.77454  Biso   1.000  B
  O108     1.0000 0.62797  0.81523  0.64872  Biso   1.000  O
  N45      1.0000 0.66327  0.83283  0.66414  Biso   1.000  N
  C408     1.0000 0.70587  0.85443  0.65573  Biso   1.000  C
  H362     1.0000 0.70667  0.85643  0.64053  Biso   1.000  H
  C409     1.0000 0.75287  0.87613  0.66627  Biso   1.000  C
  C410     1.0000 0.75667  0.87783  0.68918  Biso   1.000  C
  C411     1.0000 0.80447  0.89803  0.69841  Biso   1.000  C
  C412     1.0000 0.84497  0.91083  0.68467  Biso   1.000  C
  H363     1.0000 0.87647  0.92293  0.69093  Biso   1.000  H
  C413     1.0000 0.84117  0.90673  0.66252  Biso   1.000  C
  C414     1.0000 0.79437  0.88943  0.65354  Biso   1.000  C
  H364     1.0000 0.79077  0.88663  0.63843  Biso   1.000  H
  C415     1.0000 0.81357  0.90413  0.72130  Biso   1.000  C
  H365     1.0000 0.84687  0.91903  0.72563  Biso   1.000  H
  N46      1.0000 0.78227  0.89183  0.73623  Biso   1.000  N
  O109     1.0000 0.80517  0.90253  0.75603  Biso   1.000  O
  O110     1.0000 0.56517  0.74353  0.66875  Biso   1.000  O
  N47      1.0000 0.59187  0.74963  0.68638  Biso   1.000  N
  C416     1.0000 0.58367  0.70843  0.69392  Biso   1.000  C
  H366     1.0000 0.56097  0.67993  0.68623  Biso   1.000  H
  C417     1.0000 0.60537  0.70093  0.71287  Biso   1.000  C
  C418     1.0000 0.63917  0.74043  0.72634  Biso   1.000  C
  C419     1.0000 0.65887  0.72783  0.74426  Biso   1.000  C
  C420     1.0000 0.64577  0.67933  0.74761  Biso   1.000  C
  H367     1.0000 0.65997  0.67213  0.75953  Biso   1.000  H
  C421     1.0000 0.61307  0.64033  0.73479  Biso   1.000  C
  C422     1.0000 0.59367  0.65273  0.71756  Biso   1.000  C
  H368     1.0000 0.57117  0.62713  0.70843  Biso   1.000  H
  C423     1.0000 0.69297  0.76363  0.75943  Biso   1.000  C
  H369     1.0000 0.70217  0.75133  0.77143  Biso   1.000  H
  N48      1.0000 0.71177  0.80953  0.75822  Biso   1.000  N
  O111     1.0000 0.74237  0.83153  0.77556  Biso   1.000  O
  C424     1.0000 0.80427  0.90253  0.79563  Biso   1.000  C
  C425     1.0000 0.81837  0.94673  0.80549  Biso   1.000  C
  H370     1.0000 0.80687  0.96723  0.79983  Biso   1.000  H
  C426     1.0000 0.84877  0.96253  0.82329  Biso   1.000  C
  H371     1.0000 0.85847  0.99363  0.82943  Biso   1.000  H
  C427     1.0000 0.86497  0.93273  0.83203  Biso   1.000  C
  C428     1.0000 0.85007  0.88763  0.82297  Biso   1.000  C
  H372     1.0000 0.86047  0.86663  0.82903  Biso   1.000  H
  C429     1.0000 0.82017  0.87273  0.80502  Biso   1.000  C
  H373     1.0000 0.81027  0.84143  0.79893  Biso   1.000  H
  O112     1.0000 0.65187  0.86703  0.72244  Biso   1.000  O
  C430     1.0000 0.60297  0.01423  0.73873  Biso   1.000  C
  C431     1.0000 0.58307  0.02843  0.71973  Biso   1.000  C
  H374     1.0000 0.55517  0.99903  0.71363  Biso   1.000  H
  H375     1.0000 0.57237  0.05133  0.72443  Biso   1.000  H
  H376     1.0000 0.60877  0.04413  0.70883  Biso   1.000  H
  C432     1.0000 0.64557  0.05973  0.74773  Biso   1.000  C
  H377     1.0000 0.65887  0.05113  0.76013  Biso   1.000  H
  H378     1.0000 0.67097  0.07533  0.73673  Biso   1.000  H
  H379     1.0000 0.63457  0.08253  0.75223  Biso   1.000  H
  C433     1.0000 0.56447  0.99273  0.75703  Biso   1.000  C
  H380     1.0000 0.53557  0.96263  0.75203  Biso   1.000  H
  H381     1.0000 0.57887  0.98533  0.76943  Biso   1.000  H
  H382     1.0000 0.55497  0.01683  0.76123  Biso   1.000  H
  O113     1.0000 0.71817  0.85883  0.70144  Biso   1.000  O
  C434     1.0000 0.88567  0.91943  0.64803  Biso   1.000  C
  C435     1.0000 0.87527  0.87833  0.63293  Biso   1.000  C
  H383     1.0000 0.84527  0.86953  0.62483  Biso   1.000  H
  H384     1.0000 0.90277  0.88873  0.62303  Biso   1.000  H
  H385     1.0000 0.87067  0.84973  0.64113  Biso   1.000  H
  C436     1.0000 0.89227  0.96463  0.63483  Biso   1.000  C
  H386     1.0000 0.89907  0.99163  0.64463  Biso   1.000  H
  H387     1.0000 0.91957  0.97493  0.62483  Biso   1.000  H
  H388     1.0000 0.86207  0.95543  0.62683  Biso   1.000  H
  C437     1.0000 0.93227  0.93433  0.66113  Biso   1.000  C
  H389     1.0000 0.93827  0.96123  0.67083  Biso   1.000  H
  H390     1.0000 0.92827  0.90623  0.66953  Biso   1.000  H
  H391     1.0000 0.96027  0.94513  0.65133  Biso   1.000  H
  O114     1.0000 0.65137  0.78503  0.72227  Biso   1.000  O
  C438     1.0000 0.59977  0.58763  0.74013  Biso   1.000  C
  C439     1.0000 0.57877  0.55163  0.72233  Biso   1.000  C
  H392     1.0000 0.55307  0.55513  0.71513  Biso   1.000  H
  H393     1.0000 0.60467  0.55753  0.71203  Biso   1.000  H
  H394     1.0000 0.56467  0.51833  0.72813  Biso   1.000  H
  C440     1.0000 0.55937  0.56993  0.75753  Biso   1.000  C
  H395     1.0000 0.57147  0.59263  0.76973  Biso   1.000  H
  H396     1.0000 0.53007  0.56893  0.75163  Biso   1.000  H
  H397     1.0000 0.55107  0.53703  0.76243  Biso   1.000  H
  C441     1.0000 0.63957  0.58213  0.75123  Biso   1.000  C
  H398     1.0000 0.65347  0.60593  0.76293  Biso   1.000  H
  H399     1.0000 0.62547  0.54883  0.75703  Biso   1.000  H
  H400     1.0000 0.66537  0.58803  0.74093  Biso   1.000  H
  C442     1.0000 0.89957  0.95023  0.85090  Biso   1.000  C
  O115     1.0000 0.91158  0.99144  0.85802  Biso   1.000  O
  O116     1.0000 0.91158  0.92044  0.85793  Biso   1.000  O
  C443     1.0000 0.54227  0.76653  0.63597  Biso   1.000  C
  C444     1.0000 0.49727  0.72253  0.63678  Biso   1.000  C
  H401     1.0000 0.48857  0.70373  0.64963  Biso   1.000  H
  C445     1.0000 0.46517  0.70533  0.61978  Biso   1.000  C
  H402     1.0000 0.43497  0.67543  0.62113  Biso   1.000  H
  C446     1.0000 0.47677  0.73153  0.60065  Biso   1.000  C
  C447     1.0000 0.52207  0.77393  0.59896  Biso   1.000  C
  H403     1.0000 0.53147  0.79183  0.58583  Biso   1.000  H
  C448     1.0000 0.55357  0.79013  0.61620  Biso   1.000  C
  H404     1.0000 0.58457  0.81893  0.61453  Biso   1.000  H
  C449     1.0000 0.44137  0.71263  0.58233  Biso   1.000  C
  O117     1.0000 0.40067  0.67643  0.58556  Biso   1.000  O
  O118     1.0000 0.45487  0.73323  0.56453  Biso   1.000  O
  C450     1.0000 0.54077  0.77393  0.63637  Biso   1.000  C
  C451     1.0000 0.49567  0.77273  0.63740  Biso   1.000  C
  H405     1.0000 0.48667  0.78203  0.65033  Biso   1.000  H
  C452     1.0000 0.46387  0.75843  0.62023  Biso   1.000  C
  H406     1.0000 0.43337  0.75753  0.62153  Biso   1.000  H
  C453     1.0000 0.47697  0.74543  0.60091  Biso   1.000  C
  C454     1.0000 0.52237  0.74913  0.59915  Biso   1.000  C
  H407     1.0000 0.53257  0.74283  0.58573  Biso   1.000  H
  C455     1.0000 0.55337  0.76193  0.61679  Biso   1.000  C
  H408     1.0000 0.58377  0.76253  0.61543  Biso   1.000  H
  C456     1.0000 0.44077  0.72703  0.58283  Biso   1.000  C
  O119     1.0000 0.40007  0.72273  0.58621  Biso   1.000  O
  O120     1.0000 0.45417  0.71983  0.56483  Biso   1.000  O
  Co17     1.0000 0.30923  0.15469  0.02956  Biso   1.000  Co
  Co18     1.0000 0.37260  0.18638  0.06791  Biso   1.000  Co
  Zn9      1.0000 0.63296  0.26588  0.21060  Biso   1.000  Zn
  B17      1.0000 0.24243  0.12197  0.99017  Biso   1.000  B
  O121     1.0000 0.23143  0.15437  0.00192  Biso   1.000  O
  N49      1.0000 0.25813  0.17507  0.02012  Biso   1.000  N
  C457     1.0000 0.24903  0.20737  0.02763  Biso   1.000  C
  H409     1.0000 0.22533  0.21227  0.02037  Biso   1.000  H
  C458     1.0000 0.27223  0.23737  0.04637  Biso   1.000  C
  C459     1.0000 0.30653  0.23247  0.05944  Biso   1.000  C
  C460     1.0000 0.32453  0.26317  0.07807  Biso   1.000  C
  C461     1.0000 0.31133  0.29917  0.08182  Biso   1.000  C
  H410     1.0000 0.32363  0.31927  0.09417  Biso   1.000  H
  C462     1.0000 0.28103  0.30617  0.06800  Biso   1.000  C
  C463     1.0000 0.26213  0.27497  0.05068  Biso   1.000  C
  H411     1.0000 0.24103  0.27927  0.04117  Biso   1.000  H
  C464     1.0000 0.35663  0.25947  0.09327  Biso   1.000  C
  H412     1.0000 0.36273  0.27817  0.10607  Biso   1.000  H
  N50      1.0000 0.37753  0.23437  0.09187  Biso   1.000  N
  O122     1.0000 0.40783  0.24187  0.10913  Biso   1.000  O
  B18      1.0000 0.43793  0.21847  0.10788  Biso   1.000  B
  O123     1.0000 0.29463  0.14857  0.98206  Biso   1.000  O
  N51      1.0000 0.32993  0.16617  0.99748  Biso   1.000  N
  C465     1.0000 0.37253  0.18777  0.98907  Biso   1.000  C
  H413     1.0000 0.37333  0.18977  0.97387  Biso   1.000  H
  C466     1.0000 0.41953  0.20947  0.99961  Biso   1.000  C
  C467     1.0000 0.42333  0.21117  0.02252  Biso   1.000  C
  C468     1.0000 0.47113  0.23137  0.03175  Biso   1.000  C
  C469     1.0000 0.51163  0.24417  0.01801  Biso   1.000  C
  H414     1.0000 0.54313  0.25627  0.02427  Biso   1.000  H
  C470     1.0000 0.50783  0.24007  0.99586  Biso   1.000  C
  C471     1.0000 0.46103  0.22277  0.98688  Biso   1.000  C
  H415     1.0000 0.45743  0.21997  0.97177  Biso   1.000  H
  C472     1.0000 0.48023  0.23747  0.05464  Biso   1.000  C
  H416     1.0000 0.51353  0.25237  0.05897  Biso   1.000  H
  N52      1.0000 0.44893  0.22517  0.06957  Biso   1.000  N
  O124     1.0000 0.47183  0.23587  0.08937  Biso   1.000  O
  O125     1.0000 0.23183  0.07687  0.00209  Biso   1.000  O
  N53      1.0000 0.25853  0.08297  0.01972  Biso   1.000  N
  C473     1.0000 0.25033  0.04177  0.02726  Biso   1.000  C
  H417     1.0000 0.22763  0.01327  0.01957  Biso   1.000  H
  C474     1.0000 0.27203  0.03427  0.04621  Biso   1.000  C
  C475     1.0000 0.30583  0.07377  0.05968  Biso   1.000  C
  C476     1.0000 0.32553  0.06117  0.07760  Biso   1.000  C
  C477     1.0000 0.31243  0.01267  0.08095  Biso   1.000  C
  H418     1.0000 0.32663  0.00547  0.09287  Biso   1.000  H
  C478     1.0000 0.27973  0.97367  0.06813  Biso   1.000  C
  C479     1.0000 0.26033  0.98607  0.05090  Biso   1.000  C
  H419     1.0000 0.23783  0.96047  0.04177  Biso   1.000  H
  C480     1.0000 0.35963  0.09697  0.09277  Biso   1.000  C
  H420     1.0000 0.36883  0.08467  0.10477  Biso   1.000  H
  N54      1.0000 0.37843  0.14287  0.09156  Biso   1.000  N
  O126     1.0000 0.40903  0.16487  0.10890  Biso   1.000  O
  C481     1.0000 0.47093  0.23587  0.12897  Biso   1.000  C
  C482     1.0000 0.48503  0.28007  0.13883  Biso   1.000  C
  H421     1.0000 0.47353  0.30057  0.13317  Biso   1.000  H
  C483     1.0000 0.51543  0.29587  0.15663  Biso   1.000  C
  H422     1.0000 0.52513  0.32697  0.16277  Biso   1.000  H
  C484     1.0000 0.53163  0.26607  0.16537  Biso   1.000  C
  C485     1.0000 0.51673  0.22097  0.15631  Biso   1.000  C
  H423     1.0000 0.52713  0.19997  0.16237  Biso   1.000  H
  C486     1.0000 0.48683  0.20607  0.13836  Biso   1.000  C
  H424     1.0000 0.47693  0.17477  0.13227  Biso   1.000  H
  O127     1.0000 0.31853  0.20037  0.05578  Biso   1.000  O
  C487     1.0000 0.26963  0.34757  0.07207  Biso   1.000  C
  C488     1.0000 0.24973  0.36177  0.05307  Biso   1.000  C
  H425     1.0000 0.22183  0.33237  0.04697  Biso   1.000  H
  H426     1.0000 0.23903  0.38467  0.05777  Biso   1.000  H
  H427     1.0000 0.27543  0.37747  0.04217  Biso   1.000  H
  C489     1.0000 0.31223  0.39307  0.08107  Biso   1.000  C
  H428     1.0000 0.32553  0.38447  0.09347  Biso   1.000  H
  H429     1.0000 0.33763  0.40867  0.07007  Biso   1.000  H
  H430     1.0000 0.30123  0.41587  0.08557  Biso   1.000  H
  C490     1.0000 0.23113  0.32607  0.09037  Biso   1.000  C
  H431     1.0000 0.20223  0.29597  0.08537  Biso   1.000  H
  H432     1.0000 0.24553  0.31867  0.10277  Biso   1.000  H
  H433     1.0000 0.22163  0.35017  0.09457  Biso   1.000  H
  O128     1.0000 0.38483  0.19217  0.03478  Biso   1.000  O
  C491     1.0000 0.55233  0.25277  0.98137  Biso   1.000  C
  C492     1.0000 0.54193  0.21167  0.96627  Biso   1.000  C
  H434     1.0000 0.51193  0.20287  0.95817  Biso   1.000  H
  H435     1.0000 0.56943  0.22207  0.95637  Biso   1.000  H
  H436     1.0000 0.53733  0.18307  0.97447  Biso   1.000  H
  C493     1.0000 0.55893  0.29797  0.96817  Biso   1.000  C
  H437     1.0000 0.56573  0.32497  0.97797  Biso   1.000  H
  H438     1.0000 0.58623  0.30827  0.95817  Biso   1.000  H
  H439     1.0000 0.52873  0.28877  0.96017  Biso   1.000  H
  C494     1.0000 0.59893  0.26767  0.99447  Biso   1.000  C
  H440     1.0000 0.60493  0.29457  0.00417  Biso   1.000  H
  H441     1.0000 0.59493  0.23957  0.00287  Biso   1.000  H
  H442     1.0000 0.62693  0.27847  0.98467  Biso   1.000  H
  O129     1.0000 0.31803  0.11837  0.05561  Biso   1.000  O
  C495     1.0000 0.26643  0.92097  0.07347  Biso   1.000  C
  C496     1.0000 0.24543  0.88497  0.05567  Biso   1.000  C
  H443     1.0000 0.21973  0.88847  0.04847  Biso   1.000  H
  H444     1.0000 0.27133  0.89087  0.04537  Biso   1.000  H
  H445     1.0000 0.23133  0.85167  0.06147  Biso   1.000  H
  C497     1.0000 0.22603  0.90327  0.09087  Biso   1.000  C
  H446     1.0000 0.23813  0.92597  0.10307  Biso   1.000  H
  H447     1.0000 0.19673  0.90227  0.08497  Biso   1.000  H
  H448     1.0000 0.21773  0.87037  0.09577  Biso   1.000  H
  C498     1.0000 0.30623  0.91547  0.08457  Biso   1.000  C
  H449     1.0000 0.32013  0.93927  0.09627  Biso   1.000  H
  H450     1.0000 0.29213  0.88217  0.09037  Biso   1.000  H
  H451     1.0000 0.33203  0.92137  0.07427  Biso   1.000  H
  C499     1.0000 0.56623  0.28357  0.18424  Biso   1.000  C
  O130     1.0000 0.57824  0.32478  0.19136  Biso   1.000  O
  O131     1.0000 0.57824  0.25378  0.19127  Biso   1.000  O
  C500     1.0000 0.20893  0.09987  0.96931  Biso   1.000  C
  C501     1.0000 0.16393  0.05587  0.97012  Biso   1.000  C
  H452     1.0000 0.15523  0.03707  0.98297  Biso   1.000  H
  C502     1.0000 0.13183  0.03867  0.95312  Biso   1.000  C
  H453     1.0000 0.10163  0.00877  0.95447  Biso   1.000  H
  C503     1.0000 0.14343  0.06487  0.93399  Biso   1.000  C
  C504     1.0000 0.18873  0.10727  0.93230  Biso   1.000  C
  H454     1.0000 0.19813  0.12517  0.91917  Biso   1.000  H
  C505     1.0000 0.22023  0.12347  0.94954  Biso   1.000  C
  H455     1.0000 0.25123  0.15227  0.94787  Biso   1.000  H
  C506     1.0000 0.10803  0.04597  0.91567  Biso   1.000  C
  O132     1.0000 0.06733  0.00977  0.91890  Biso   1.000  O
  O133     1.0000 0.12153  0.06657  0.89787  Biso   1.000  O
  C507     1.0000 0.20743  0.10727  0.96971  Biso   1.000  C
  C508     1.0000 0.16233  0.10607  0.97074  Biso   1.000  C
  H456     1.0000 0.15333  0.11537  0.98367  Biso   1.000  H
  C509     1.0000 0.13053  0.09177  0.95357  Biso   1.000  C
  H457     1.0000 0.10003  0.09087  0.95487  Biso   1.000  H
  C510     1.0000 0.14363  0.07877  0.93425  Biso   1.000  C
  C511     1.0000 0.18903  0.08247  0.93249  Biso   1.000  C
  H458     1.0000 0.19923  0.07617  0.91907  Biso   1.000  H
  C512     1.0000 0.22003  0.09527  0.95013  Biso   1.000  C
  H459     1.0000 0.25043  0.09587  0.94877  Biso   1.000  H
  C513     1.0000 0.10743  0.06037  0.91617  Biso   1.000  C
  O134     1.0000 0.06673  0.05607  0.91955  Biso   1.000  O
  O135     1.0000 0.12083  0.05317  0.89817  Biso   1.000  O
  Zn10     1.0000 0.66667  0.33333  0.25144  Biso   1.000  Zn
  Zn11     1.0000 0.33333  0.66667  0.58477  Biso   1.000  Zn
  Zn12     1.0000 0.00000  0.00000  0.91811  Biso   1.000  Zn
  O136     1.0000 0.33333  0.66667  0.55282  Biso   1.000  O
  O137     1.0000 0.00000  0.00000  0.88615  Biso   1.000  O
  O138     1.0000 0.66667  0.33333  0.21949  Biso   1.000  O
  Co19     1.0000 0.48802  0.51212  0.63711  Biso   1.000  Co
  Co20     1.0000 0.51971  0.48044  0.59876  Biso   1.000  Co
  Zn13     1.0000 0.59921  0.29958  0.45607  Biso   1.000  Zn
  B19      1.0000 0.45530  0.54620  0.67650  Biso   1.000  B
  O139     1.0000 0.48770  0.58960  0.66475  Biso   1.000  O
  N55      1.0000 0.50840  0.58360  0.64655  Biso   1.000  N
  C514     1.0000 0.54070  0.62500  0.63904  Biso   1.000  C
  H460     1.0000 0.54560  0.65360  0.64630  Biso   1.000  H
  C515     1.0000 0.57070  0.63180  0.62030  Biso   1.000  C
  C516     1.0000 0.56580  0.59260  0.60723  Biso   1.000  C
  C517     1.0000 0.59650  0.60530  0.58860  Biso   1.000  C
  C518     1.0000 0.63250  0.65450  0.58485  Biso   1.000  C
  H461     1.0000 0.65260  0.66230  0.57250  Biso   1.000  H
  C519     1.0000 0.63950  0.69180  0.59867  Biso   1.000  C
  C520     1.0000 0.60830  0.67950  0.61599  Biso   1.000  C
  H462     1.0000 0.61260  0.70490  0.62550  Biso   1.000  H
  C521     1.0000 0.59280  0.56950  0.57340  Biso   1.000  C
  H463     1.0000 0.61150  0.58210  0.56060  Biso   1.000  H
  N56      1.0000 0.56770  0.52350  0.57480  Biso   1.000  N
  O140     1.0000 0.57520  0.50070  0.55754  Biso   1.000  O
  B20      1.0000 0.55180  0.44720  0.55879  Biso   1.000  B
  O141     1.0000 0.48190  0.52060  0.68461  Biso   1.000  O
  N57      1.0000 0.49950  0.50290  0.66919  Biso   1.000  N
  C522     1.0000 0.52110  0.48190  0.67760  Biso   1.000  C
  H464     1.0000 0.52310  0.48310  0.69280  Biso   1.000  H
  C523     1.0000 0.54280  0.45660  0.66706  Biso   1.000  C
  C524     1.0000 0.54450  0.45450  0.64415  Biso   1.000  C
  C525     1.0000 0.56470  0.42690  0.63492  Biso   1.000  C
  C526     1.0000 0.57750  0.39920  0.64866  Biso   1.000  C
  H465     1.0000 0.58960  0.37980  0.64240  Biso   1.000  H
  C527     1.0000 0.57340  0.39890  0.67081  Biso   1.000  C
  C528     1.0000 0.55610  0.42840  0.67979  Biso   1.000  C
  H466     1.0000 0.55330  0.42920  0.69490  Biso   1.000  H
  C529     1.0000 0.57080  0.42390  0.61203  Biso   1.000  C
  H467     1.0000 0.58570  0.40550  0.60770  Biso   1.000  H
  N58      1.0000 0.55850  0.44290  0.59710  Biso   1.000  N
  O142     1.0000 0.56920  0.43070  0.57730  Biso   1.000  O
  O143     1.0000 0.41020  0.51170  0.66458  Biso   1.000  O
  N59      1.0000 0.41630  0.49110  0.64695  Biso   1.000  N
  C530     1.0000 0.37510  0.45810  0.63941  Biso   1.000  C
  H468     1.0000 0.34660  0.45230  0.64710  Biso   1.000  H
  C531     1.0000 0.36760  0.42890  0.62046  Biso   1.000  C
  C532     1.0000 0.40710  0.43460  0.60699  Biso   1.000  C
  C533     1.0000 0.39450  0.40230  0.58907  Biso   1.000  C
  C534     1.0000 0.34600  0.36690  0.58572  Biso   1.000  C
  H469     1.0000 0.33880  0.34550  0.57380  Biso   1.000  H
  C535     1.0000 0.30700  0.36060  0.59854  Biso   1.000  C
  C536     1.0000 0.31940  0.39240  0.61577  Biso   1.000  C
  H470     1.0000 0.29380  0.38930  0.62490  Biso   1.000  H
  C537     1.0000 0.43030  0.40400  0.57390  Biso   1.000  C
  H471     1.0000 0.41800  0.38250  0.56190  Biso   1.000  H
  N60      1.0000 0.47620  0.43110  0.57511  Biso   1.000  N
  O144     1.0000 0.49820  0.42250  0.55777  Biso   1.000  O
  C538     1.0000 0.56920  0.43160  0.53770  Biso   1.000  C
  C539     1.0000 0.61340  0.46170  0.52784  Biso   1.000  C
  H472     1.0000 0.63390  0.49370  0.53350  Biso   1.000  H
  C540     1.0000 0.62920  0.44710  0.51004  Biso   1.000  C
  H473     1.0000 0.66030  0.46850  0.50390  Biso   1.000  H
  C541     1.0000 0.59940  0.40110  0.50130  Biso   1.000  C
  C542     1.0000 0.55430  0.37090  0.51036  Biso   1.000  C
  H474     1.0000 0.53330  0.33950  0.50430  Biso   1.000  H
  C543     1.0000 0.53940  0.38590  0.52831  Biso   1.000  C
  H475     1.0000 0.50810  0.36450  0.53440  Biso   1.000  H
  O145     1.0000 0.53370  0.54850  0.61089  Biso   1.000  O
  C544     1.0000 0.68090  0.74460  0.59460  Biso   1.000  C
  C545     1.0000 0.69510  0.77870  0.61360  Biso   1.000  C
  H476     1.0000 0.66570  0.77720  0.61970  Biso   1.000  H
  H477     1.0000 0.71800  0.81230  0.60890  Biso   1.000  H
  H478     1.0000 0.71080  0.76870  0.62450  Biso   1.000  H
  C546     1.0000 0.72640  0.74750  0.58560  Biso   1.000  C
  H479     1.0000 0.71780  0.72560  0.57320  Biso   1.000  H
  H480     1.0000 0.74200  0.73770  0.59660  Biso   1.000  H
  H481     1.0000 0.74920  0.78130  0.58110  Biso   1.000  H
  C547     1.0000 0.65940  0.76160  0.57630  Biso   1.000  C
  H482     1.0000 0.62930  0.76040  0.58130  Biso   1.000  H
  H483     1.0000 0.65200  0.73980  0.56390  Biso   1.000  H
  H484     1.0000 0.68350  0.79520  0.57210  Biso   1.000  H
  O146     1.0000 0.52550  0.47400  0.63189  Biso   1.000  O
  C548     1.0000 0.58610  0.36710  0.68530  Biso   1.000  C
  C549     1.0000 0.54500  0.33640  0.70040  Biso   1.000  C
  H485     1.0000 0.53620  0.35760  0.70850  Biso   1.000  H
  H486     1.0000 0.55540  0.31930  0.71030  Biso   1.000  H
  H487     1.0000 0.51640  0.31240  0.69220  Biso   1.000  H
  C550     1.0000 0.63130  0.40570  0.69850  Biso   1.000  C
  H488     1.0000 0.65830  0.42590  0.68870  Biso   1.000  H
  H489     1.0000 0.64160  0.38870  0.70850  Biso   1.000  H
  H490     1.0000 0.62210  0.42670  0.70650  Biso   1.000  H
  C551     1.0000 0.60100  0.33540  0.67220  Biso   1.000  C
  H491     1.0000 0.62790  0.35630  0.66250  Biso   1.000  H
  H492     1.0000 0.57290  0.31130  0.66380  Biso   1.000  H
  H493     1.0000 0.61180  0.31820  0.68200  Biso   1.000  H
  O147     1.0000 0.45170  0.46700  0.61106  Biso   1.000  O
  C552     1.0000 0.25430  0.32120  0.59320  Biso   1.000  C
  C553     1.0000 0.21830  0.30620  0.61100  Biso   1.000  C
  H494     1.0000 0.22180  0.33540  0.61820  Biso   1.000  H
  H495     1.0000 0.22420  0.28620  0.62130  Biso   1.000  H
  H496     1.0000 0.18500  0.28700  0.60520  Biso   1.000  H
  C554     1.0000 0.23660  0.34390  0.57580  Biso   1.000  C
  H497     1.0000 0.25930  0.35450  0.56360  Biso   1.000  H
  H498     1.0000 0.23560  0.37220  0.58170  Biso   1.000  H
  H499     1.0000 0.20370  0.31930  0.57090  Biso   1.000  H
  C555     1.0000 0.24880  0.27590  0.58210  Biso   1.000  C
  H500     1.0000 0.27260  0.28580  0.57040  Biso   1.000  H
  H501     1.0000 0.21550  0.25670  0.57630  Biso   1.000  H
  H502     1.0000 0.25470  0.25600  0.59240  Biso   1.000  H
  C556     1.0000 0.61690  0.38400  0.48243  Biso   1.000  C
  O148     1.0000 0.65811  0.41320  0.47531  Biso   1.000  O
  O149     1.0000 0.58711  0.34220  0.47540  Biso   1.000  O
  C557     1.0000 0.43320  0.55760  0.69736  Biso   1.000  C
  C558     1.0000 0.38920  0.55860  0.69655  Biso   1.000  C
  H503     1.0000 0.37040  0.54850  0.68370  Biso   1.000  H
  C559     1.0000 0.37200  0.57350  0.71355  Biso   1.000  C
  H504     1.0000 0.34210  0.57380  0.71220  Biso   1.000  H
  C560     1.0000 0.39820  0.58810  0.73268  Biso   1.000  C
  C561     1.0000 0.44060  0.58520  0.73437  Biso   1.000  C
  H505     1.0000 0.45850  0.59370  0.74750  Biso   1.000  H
  C562     1.0000 0.45680  0.56990  0.71713  Biso   1.000  C
  H506     1.0000 0.48560  0.56770  0.71880  Biso   1.000  H
  C563     1.0000 0.37930  0.60460  0.75100  Biso   1.000  C
  O150     1.0000 0.34310  0.60910  0.74777  Biso   1.000  O
  O151     1.0000 0.39990  0.61170  0.76880  Biso   1.000  O
  C564     1.0000 0.44060  0.56650  0.69696  Biso   1.000  C
  C565     1.0000 0.43940  0.61040  0.69593  Biso   1.000  C
  H507     1.0000 0.44870  0.62870  0.68300  Biso   1.000  H
  C566     1.0000 0.42510  0.62790  0.71310  Biso   1.000  C
  H508     1.0000 0.42420  0.65750  0.71180  Biso   1.000  H
  C567     1.0000 0.41210  0.60180  0.73242  Biso   1.000  C
  C568     1.0000 0.41580  0.56010  0.73418  Biso   1.000  C
  H509     1.0000 0.40950  0.54360  0.74760  Biso   1.000  H
  C569     1.0000 0.42860  0.54190  0.71654  Biso   1.000  C
  H510     1.0000 0.42920  0.51210  0.71790  Biso   1.000  H
  C570     1.0000 0.39370  0.61960  0.75050  Biso   1.000  C
  O152     1.0000 0.38940  0.65600  0.74712  Biso   1.000  O
  O153     1.0000 0.38650  0.59900  0.76850  Biso   1.000  O
  Co21     1.0000 0.15469  0.84545  0.97044  Biso   1.000  Co
  Co22     1.0000 0.18638  0.81377  0.93209  Biso   1.000  Co
  Zn14     1.0000 0.26588  0.63291  0.78940  Biso   1.000  Zn
  B21      1.0000 0.12197  0.87953  0.00983  Biso   1.000  B
  O154     1.0000 0.15437  0.92293  0.99808  Biso   1.000  O
  N61      1.0000 0.17507  0.91693  0.97988  Biso   1.000  N
  C571     1.0000 0.20737  0.95833  0.97237  Biso   1.000  C
  H511     1.0000 0.21227  0.98693  0.97963  Biso   1.000  H
  C572     1.0000 0.23737  0.96513  0.95363  Biso   1.000  C
  C573     1.0000 0.23247  0.92593  0.94056  Biso   1.000  C
  C574     1.0000 0.26317  0.93863  0.92193  Biso   1.000  C
  C575     1.0000 0.29917  0.98783  0.91818  Biso   1.000  C
  H512     1.0000 0.31927  0.99563  0.90583  Biso   1.000  H
  C576     1.0000 0.30617  0.02513  0.93200  Biso   1.000  C
  C577     1.0000 0.27497  0.01283  0.94932  Biso   1.000  C
  H513     1.0000 0.27927  0.03823  0.95883  Biso   1.000  H
  C578     1.0000 0.25947  0.90283  0.90673  Biso   1.000  C
  H514     1.0000 0.27817  0.91543  0.89393  Biso   1.000  H
  N62      1.0000 0.23437  0.85683  0.90813  Biso   1.000  N
  O155     1.0000 0.24187  0.83403  0.89087  Biso   1.000  O
  B22      1.0000 0.21847  0.78053  0.89212  Biso   1.000  B
  O156     1.0000 0.14857  0.85393  0.01794  Biso   1.000  O
  N63      1.0000 0.16617  0.83623  0.00252  Biso   1.000  N
  C579     1.0000 0.18777  0.81523  0.01093  Biso   1.000  C
  H515     1.0000 0.18977  0.81643  0.02613  Biso   1.000  H
  C580     1.0000 0.20947  0.78993  0.00039  Biso   1.000  C
  C581     1.0000 0.21117  0.78783  0.97748  Biso   1.000  C
  C582     1.0000 0.23137  0.76023  0.96825  Biso   1.000  C
  C583     1.0000 0.24417  0.73253  0.98199  Biso   1.000  C
  H516     1.0000 0.25627  0.71313  0.97573  Biso   1.000  H
  C584     1.0000 0.24007  0.73223  0.00414  Biso   1.000  C
  C585     1.0000 0.22277  0.76173  0.01312  Biso   1.000  C
  H517     1.0000 0.21997  0.76253  0.02823  Biso   1.000  H
  C586     1.0000 0.23747  0.75723  0.94536  Biso   1.000  C
  H518     1.0000 0.25237  0.73883  0.94103  Biso   1.000  H
  N64      1.0000 0.22517  0.77623  0.93043  Biso   1.000  N
  O157     1.0000 0.23587  0.76403  0.91063  Biso   1.000  O
  O158     1.0000 0.07687  0.84503  0.99791  Biso   1.000  O
  N65      1.0000 0.08297  0.82443  0.98028  Biso   1.000  N
  C587     1.0000 0.04177  0.79143  0.97274  Biso   1.000  C
  H519     1.0000 0.01327  0.78563  0.98043  Biso   1.000  H
  C588     1.0000 0.03427  0.76223  0.95379  Biso   1.000  C
  C589     1.0000 0.07377  0.76793  0.94032  Biso   1.000  C
  C590     1.0000 0.06117  0.73563  0.92240  Biso   1.000  C
  C591     1.0000 0.01267  0.70023  0.91905  Biso   1.000  C
  H520     1.0000 0.00547  0.67883  0.90713  Biso   1.000  H
  C592     1.0000 0.97367  0.69393  0.93187  Biso   1.000  C
  C593     1.0000 0.98607  0.72573  0.94910  Biso   1.000  C
  H521     1.0000 0.96047  0.72263  0.95823  Biso   1.000  H
  C594     1.0000 0.09697  0.73733  0.90723  Biso   1.000  C
  H522     1.0000 0.08467  0.71583  0.89523  Biso   1.000  H
  N66      1.0000 0.14287  0.76443  0.90844  Biso   1.000  N
  O159     1.0000 0.16487  0.75583  0.89110  Biso   1.000  O
  C595     1.0000 0.23587  0.76493  0.87103  Biso   1.000  C
  C596     1.0000 0.28007  0.79503  0.86117  Biso   1.000  C
  H523     1.0000 0.30057  0.82703  0.86683  Biso   1.000  H
  C597     1.0000 0.29587  0.78043  0.84337  Biso   1.000  C
  H524     1.0000 0.32697  0.80183  0.83723  Biso   1.000  H
  C598     1.0000 0.26607  0.73443  0.83463  Biso   1.000  C
  C599     1.0000 0.22097  0.70423  0.84369  Biso   1.000  C
  H525     1.0000 0.19997  0.67283  0.83763  Biso   1.000  H
  C600     1.0000 0.20607  0.71923  0.86164  Biso   1.000  C
  H526     1.0000 0.17477  0.69783  0.86773  Biso   1.000  H
  O160     1.0000 0.20037  0.88183  0.94422  Biso   1.000  O
  C601     1.0000 0.34757  0.07793  0.92793  Biso   1.000  C
  C602     1.0000 0.36177  0.11203  0.94693  Biso   1.000  C
  H527     1.0000 0.33237  0.11053  0.95303  Biso   1.000  H
  H528     1.0000 0.38467  0.14563  0.94223  Biso   1.000  H
  H529     1.0000 0.37747  0.10203  0.95783  Biso   1.000  H
  C603     1.0000 0.39307  0.08083  0.91893  Biso   1.000  C
  H530     1.0000 0.38447  0.05893  0.90653  Biso   1.000  H
  H531     1.0000 0.40867  0.07103  0.92993  Biso   1.000  H
  H532     1.0000 0.41587  0.11463  0.91443  Biso   1.000  H
  C604     1.0000 0.32607  0.09493  0.90963  Biso   1.000  C
  H533     1.0000 0.29597  0.09373  0.91463  Biso   1.000  H
  H534     1.0000 0.31867  0.07313  0.89723  Biso   1.000  H
  H535     1.0000 0.35017  0.12853  0.90543  Biso   1.000  H
  O161     1.0000 0.19217  0.80733  0.96522  Biso   1.000  O
  C605     1.0000 0.25277  0.70043  0.01863  Biso   1.000  C
  C606     1.0000 0.21167  0.66973  0.03373  Biso   1.000  C
  H536     1.0000 0.20287  0.69093  0.04183  Biso   1.000  H
  H537     1.0000 0.22207  0.65263  0.04363  Biso   1.000  H
  H538     1.0000 0.18307  0.64573  0.02553  Biso   1.000  H
  C607     1.0000 0.29797  0.73903  0.03183  Biso   1.000  C
  H539     1.0000 0.32497  0.75923  0.02203  Biso   1.000  H
  H540     1.0000 0.30827  0.72203  0.04183  Biso   1.000  H
  H541     1.0000 0.28877  0.76003  0.03983  Biso   1.000  H
  C608     1.0000 0.26767  0.66873  0.00553  Biso   1.000  C
  H542     1.0000 0.29457  0.68963  0.99583  Biso   1.000  H
  H543     1.0000 0.23957  0.64463  0.99713  Biso   1.000  H
  H544     1.0000 0.27847  0.65153  0.01533  Biso   1.000  H
  O162     1.0000 0.11837  0.80033  0.94439  Biso   1.000  O
  C609     1.0000 0.92097  0.65453  0.92653  Biso   1.000  C
  C610     1.0000 0.88497  0.63953  0.94433  Biso   1.000  C
  H545     1.0000 0.88847  0.66873  0.95153  Biso   1.000  H
  H546     1.0000 0.89087  0.61953  0.95463  Biso   1.000  H
  H547     1.0000 0.85167  0.62033  0.93853  Biso   1.000  H
  C611     1.0000 0.90327  0.67723  0.90913  Biso   1.000  C
  H548     1.0000 0.92597  0.68783  0.89693  Biso   1.000  H
  H549     1.0000 0.90227  0.70553  0.91503  Biso   1.000  H
  H550     1.0000 0.87037  0.65263  0.90423  Biso   1.000  H
  C612     1.0000 0.91547  0.60923  0.91543  Biso   1.000  C
  H551     1.0000 0.93927  0.61913  0.90373  Biso   1.000  H
  H552     1.0000 0.88217  0.59003  0.90963  Biso   1.000  H
  H553     1.0000 0.92137  0.58933  0.92573  Biso   1.000  H
  C613     1.0000 0.28357  0.71733  0.81576  Biso   1.000  C
  O163     1.0000 0.32478  0.74653  0.80864  Biso   1.000  O
  O164     1.0000 0.25378  0.67553  0.80873  Biso   1.000  O
  C614     1.0000 0.09987  0.89093  0.03069  Biso   1.000  C
  C615     1.0000 0.05587  0.89193  0.02988  Biso   1.000  C
  H554     1.0000 0.03707  0.88183  0.01703  Biso   1.000  H
  C616     1.0000 0.03867  0.90683  0.04688  Biso   1.000  C
  H555     1.0000 0.00877  0.90713  0.04553  Biso   1.000  H
  C617     1.0000 0.06487  0.92143  0.06601  Biso   1.000  C
  C618     1.0000 0.10727  0.91853  0.06770  Biso   1.000  C
  H556     1.0000 0.12517  0.92703  0.08083  Biso   1.000  H
  C619     1.0000 0.12347  0.90323  0.05046  Biso   1.000  C
  H557     1.0000 0.15227  0.90103  0.05213  Biso   1.000  H
  C620     1.0000 0.04597  0.93793  0.08433  Biso   1.000  C
  O165     1.0000 0.00977  0.94243  0.08110  Biso   1.000  O
  O166     1.0000 0.06657  0.94503  0.10213  Biso   1.000  O
  C621     1.0000 0.10727  0.89983  0.03029  Biso   1.000  C
  C622     1.0000 0.10607  0.94373  0.02926  Biso   1.000  C
  H558     1.0000 0.11537  0.96203  0.01633  Biso   1.000  H
  C623     1.0000 0.09177  0.96123  0.04643  Biso   1.000  C
  H559     1.0000 0.09087  0.99083  0.04513  Biso   1.000  H
  C624     1.0000 0.07877  0.93513  0.06575  Biso   1.000  C
  C625     1.0000 0.08247  0.89343  0.06751  Biso   1.000  C
  H560     1.0000 0.07617  0.87693  0.08093  Biso   1.000  H
  C626     1.0000 0.09527  0.87523  0.04987  Biso   1.000  C
  H561     1.0000 0.09587  0.84543  0.05123  Biso   1.000  H
  C627     1.0000 0.06037  0.95293  0.08383  Biso   1.000  C
  O167     1.0000 0.05607  0.98933  0.08045  Biso   1.000  O
  O168     1.0000 0.05317  0.93233  0.10183  Biso   1.000  O
  Co23     1.0000 0.82135  0.17879  0.30378  Biso   1.000  Co
  Co24     1.0000 0.85304  0.14711  0.26543  Biso   1.000  Co
  Zn15     1.0000 0.93254  0.96625  0.12274  Biso   1.000  Zn
  B23      1.0000 0.78863  0.21287  0.34317  Biso   1.000  B
  O169     1.0000 0.82103  0.25627  0.33142  Biso   1.000  O
  N67      1.0000 0.84173  0.25027  0.31322  Biso   1.000  N
  C628     1.0000 0.87403  0.29167  0.30571  Biso   1.000  C
  H562     1.0000 0.87893  0.32027  0.31297  Biso   1.000  H
  C629     1.0000 0.90403  0.29847  0.28697  Biso   1.000  C
  C630     1.0000 0.89913  0.25927  0.27390  Biso   1.000  C
  C631     1.0000 0.92983  0.27197  0.25527  Biso   1.000  C
  C632     1.0000 0.96583  0.32117  0.25152  Biso   1.000  C
  H563     1.0000 0.98593  0.32897  0.23917  Biso   1.000  H
  C633     1.0000 0.97283  0.35847  0.26534  Biso   1.000  C
  C634     1.0000 0.94163  0.34617  0.28266  Biso   1.000  C
  H564     1.0000 0.94593  0.37157  0.29217  Biso   1.000  H
  C635     1.0000 0.92613  0.23617  0.24007  Biso   1.000  C
  H565     1.0000 0.94483  0.24877  0.22727  Biso   1.000  H
  N68      1.0000 0.90103  0.19017  0.24147  Biso   1.000  N
  O170     1.0000 0.90853  0.16737  0.22421  Biso   1.000  O
  B24      1.0000 0.88513  0.11387  0.22546  Biso   1.000  B
  O171     1.0000 0.81523  0.18727  0.35128  Biso   1.000  O
  N69      1.0000 0.83283  0.16957  0.33586  Biso   1.000  N
  C636     1.0000 0.85443  0.14857  0.34427  Biso   1.000  C
  H566     1.0000 0.85643  0.14977  0.35947  Biso   1.000  H
  C637     1.0000 0.87613  0.12327  0.33373  Biso   1.000  C
  C638     1.0000 0.87783  0.12117  0.31082  Biso   1.000  C
  C639     1.0000 0.89803  0.09357  0.30159  Biso   1.000  C
  C640     1.0000 0.91083  0.06587  0.31533  Biso   1.000  C
  H567     1.0000 0.92293  0.04647  0.30907  Biso   1.000  H
  C641     1.0000 0.90673  0.06557  0.33748  Biso   1.000  C
  C642     1.0000 0.88943  0.09507  0.34646  Biso   1.000  C
  H568     1.0000 0.88663  0.09587  0.36157  Biso   1.000  H
  C643     1.0000 0.90413  0.09057  0.27870  Biso   1.000  C
  H569     1.0000 0.91903  0.07217  0.27437  Biso   1.000  H
  N70      1.0000 0.89183  0.10957  0.26377  Biso   1.000  N
  O172     1.0000 0.90253  0.09737  0.24397  Biso   1.000  O
  O173     1.0000 0.74353  0.17837  0.33125  Biso   1.000  O
  N71      1.0000 0.74963  0.15777  0.31362  Biso   1.000  N
  C644     1.0000 0.70843  0.12477  0.30608  Biso   1.000  C
  H570     1.0000 0.67993  0.11897  0.31377  Biso   1.000  H
  C645     1.0000 0.70093  0.09557  0.28713  Biso   1.000  C
  C646     1.0000 0.74043  0.10127  0.27366  Biso   1.000  C
  C647     1.0000 0.72783  0.06897  0.25574  Biso   1.000  C
  C648     1.0000 0.67933  0.03357  0.25239  Biso   1.000  C
  H571     1.0000 0.67213  0.01217  0.24047  Biso   1.000  H
  C649     1.0000 0.64033  0.02727  0.26521  Biso   1.000  C
  C650     1.0000 0.65273  0.05907  0.28244  Biso   1.000  C
  H572     1.0000 0.62713  0.05597  0.29157  Biso   1.000  H
  C651     1.0000 0.76363  0.07067  0.24057  Biso   1.000  C
  H573     1.0000 0.75133  0.04917  0.22857  Biso   1.000  H
  N72      1.0000 0.80953  0.09777  0.24178  Biso   1.000  N
  O174     1.0000 0.83153  0.08917  0.22444  Biso   1.000  O
  C652     1.0000 0.90253  0.09827  0.20437  Biso   1.000  C
  C653     1.0000 0.94673  0.12837  0.19451  Biso   1.000  C
  H574     1.0000 0.96723  0.16037  0.20017  Biso   1.000  H
  C654     1.0000 0.96253  0.11377  0.17671  Biso   1.000  C
  H575     1.0000 0.99363  0.13517  0.17057  Biso   1.000  H
  C655     1.0000 0.93273  0.06777  0.16797  Biso   1.000  C
  C656     1.0000 0.88763  0.03757  0.17703  Biso   1.000  C
  H576     1.0000 0.86663  0.00617  0.17097  Biso   1.000  H
  C657     1.0000 0.87273  0.05257  0.19498  Biso   1.000  C
  H577     1.0000 0.84143  0.03117  0.20107  Biso   1.000  H
  O175     1.0000 0.86703  0.21517  0.27756  Biso   1.000  O
  C658     1.0000 0.01423  0.41127  0.26127  Biso   1.000  C
  C659     1.0000 0.02843  0.44537  0.28027  Biso   1.000  C
  H578     1.0000 0.99903  0.44387  0.28637  Biso   1.000  H
  H579     1.0000 0.05133  0.47897  0.27557  Biso   1.000  H
  H580     1.0000 0.04413  0.43537  0.29117  Biso   1.000  H
  C660     1.0000 0.05973  0.41417  0.25227  Biso   1.000  C
  H581     1.0000 0.05113  0.39227  0.23987  Biso   1.000  H
  H582     1.0000 0.07533  0.40437  0.26327  Biso   1.000  H
  H583     1.0000 0.08253  0.44797  0.24777  Biso   1.000  H
  C661     1.0000 0.99273  0.42827  0.24297  Biso   1.000  C
  H584     1.0000 0.96263  0.42707  0.24797  Biso   1.000  H
  H585     1.0000 0.98533  0.40647  0.23057  Biso   1.000  H
  H586     1.0000 0.01683  0.46187  0.23877  Biso   1.000  H
  O176     1.0000 0.85883  0.14067  0.29856  Biso   1.000  O
  C662     1.0000 0.91943  0.03377  0.35197  Biso   1.000  C
  C663     1.0000 0.87833  0.00307  0.36707  Biso   1.000  C
  H587     1.0000 0.86953  0.02427  0.37517  Biso   1.000  H
  H588     1.0000 0.88873  0.98597  0.37697  Biso   1.000  H
  H589     1.0000 0.84973  0.97907  0.35887  Biso   1.000  H
  C664     1.0000 0.96463  0.07237  0.36517  Biso   1.000  C
  H590     1.0000 0.99163  0.09257  0.35537  Biso   1.000  H
  H591     1.0000 0.97493  0.05537  0.37517  Biso   1.000  H
  H592     1.0000 0.95543  0.09337  0.37317  Biso   1.000  H
  C665     1.0000 0.93433  0.00207  0.33887  Biso   1.000  C
  H593     1.0000 0.96123  0.02297  0.32917  Biso   1.000  H
  H594     1.0000 0.90623  0.97797  0.33047  Biso   1.000  H
  H595     1.0000 0.94513  0.98487  0.34867  Biso   1.000  H
  O177     1.0000 0.78503  0.13367  0.27773  Biso   1.000  O
  C666     1.0000 0.58763  0.98787  0.25987  Biso   1.000  C
  C667     1.0000 0.55163  0.97287  0.27767  Biso   1.000  C
  H596     1.0000 0.55513  0.00207  0.28487  Biso   1.000  H
  H597     1.0000 0.55753  0.95287  0.28797  Biso   1.000  H
  H598     1.0000 0.51833  0.95367  0.27187  Biso   1.000  H
  C668     1.0000 0.56993  0.01057  0.24247  Biso   1.000  C
  H599     1.0000 0.59263  0.02117  0.23027  Biso   1.000  H
  H600     1.0000 0.56893  0.03887  0.24837  Biso   1.000  H
  H601     1.0000 0.53703  0.98597  0.23757  Biso   1.000  H
  C669     1.0000 0.58213  0.94257  0.24877  Biso   1.000  C
  H602     1.0000 0.60593  0.95247  0.23707  Biso   1.000  H
  H603     1.0000 0.54883  0.92337  0.24297  Biso   1.000  H
  H604     1.0000 0.58803  0.92267  0.25907  Biso   1.000  H
  C670     1.0000 0.95023  0.05067  0.14910  Biso   1.000  C
  O178     1.0000 0.99144  0.07987  0.14198  Biso   1.000  O
  O179     1.0000 0.92044  0.00887  0.14207  Biso   1.000  O
  C671     1.0000 0.76653  0.22427  0.36403  Biso   1.000  C
  C672     1.0000 0.72253  0.22527  0.36322  Biso   1.000  C
  H605     1.0000 0.70373  0.21517  0.35037  Biso   1.000  H
  C673     1.0000 0.70533  0.24017  0.38022  Biso   1.000  C
  H606     1.0000 0.67543  0.24047  0.37887  Biso   1.000  H
  C674     1.0000 0.73153  0.25477  0.39935  Biso   1.000  C
  C675     1.0000 0.77393  0.25187  0.40104  Biso   1.000  C
  H607     1.0000 0.79183  0.26037  0.41417  Biso   1.000  H
  C676     1.0000 0.79013  0.23657  0.38380  Biso   1.000  C
  H608     1.0000 0.81893  0.23437  0.38547  Biso   1.000  H
  C677     1.0000 0.71263  0.27127  0.41767  Biso   1.000  C
  O180     1.0000 0.67643  0.27577  0.41444  Biso   1.000  O
  O181     1.0000 0.73323  0.27837  0.43547  Biso   1.000  O
  C678     1.0000 0.77393  0.23317  0.36363  Biso   1.000  C
  C679     1.0000 0.77273  0.27707  0.36260  Biso   1.000  C
  H609     1.0000 0.78203  0.29537  0.34967  Biso   1.000  H
  C680     1.0000 0.75843  0.29457  0.37977  Biso   1.000  C
  H610     1.0000 0.75753  0.32417  0.37847  Biso   1.000  H
  C681     1.0000 0.74543  0.26847  0.39909  Biso   1.000  C
  C682     1.0000 0.74913  0.22677  0.40085  Biso   1.000  C
  H611     1.0000 0.74283  0.21027  0.41427  Biso   1.000  H
  C683     1.0000 0.76193  0.20857  0.38321  Biso   1.000  C
  H612     1.0000 0.76253  0.17877  0.38457  Biso   1.000  H
  C684     1.0000 0.72703  0.28627  0.41717  Biso   1.000  C
  O182     1.0000 0.72273  0.32267  0.41379  Biso   1.000  O
  O183     1.0000 0.71983  0.26567  0.43517  Biso   1.000  O
  Co25     1.0000 0.48788  0.97590  0.63711  Biso   1.000  Co
  Co26     1.0000 0.51956  0.03927  0.59876  Biso   1.000  Co
  Zn16     1.0000 0.70042  0.29963  0.45607  Biso   1.000  Zn
  B25      1.0000 0.45380  0.90910  0.67650  Biso   1.000  B
  O184     1.0000 0.41040  0.89810  0.66475  Biso   1.000  O
  N73      1.0000 0.41640  0.92480  0.64655  Biso   1.000  N
  C685     1.0000 0.37500  0.91570  0.63904  Biso   1.000  C
  H613     1.0000 0.34640  0.89200  0.64630  Biso   1.000  H
  C686     1.0000 0.36820  0.93890  0.62030  Biso   1.000  C
  C687     1.0000 0.40740  0.97320  0.60723  Biso   1.000  C
  C688     1.0000 0.39470  0.99120  0.58860  Biso   1.000  C
  C689     1.0000 0.34550  0.97800  0.58485  Biso   1.000  C
  H614     1.0000 0.33770  0.99030  0.57250  Biso   1.000  H
  C690     1.0000 0.30820  0.94770  0.59867  Biso   1.000  C
  C691     1.0000 0.32050  0.92880  0.61599  Biso   1.000  C
  H615     1.0000 0.29510  0.90770  0.62550  Biso   1.000  H
  C692     1.0000 0.43050  0.02330  0.57340  Biso   1.000  C
  H616     1.0000 0.41790  0.02940  0.56060  Biso   1.000  H
  N74      1.0000 0.47650  0.04420  0.57480  Biso   1.000  N
  O185     1.0000 0.49930  0.07450  0.55754  Biso   1.000  O
  B26      1.0000 0.55280  0.10460  0.55879  Biso   1.000  B
  O186     1.0000 0.47940  0.96130  0.68461  Biso   1.000  O
  N75      1.0000 0.49710  0.99660  0.66919  Biso   1.000  N
  C693     1.0000 0.51810  0.03920  0.67760  Biso   1.000  C
  H617     1.0000 0.51690  0.04000  0.69280  Biso   1.000  H
  C694     1.0000 0.54340  0.08620  0.66706  Biso   1.000  C
  C695     1.0000 0.54550  0.09000  0.64415  Biso   1.000  C
  C696     1.0000 0.57310  0.13780  0.63492  Biso   1.000  C
  C697     1.0000 0.60080  0.17830  0.64866  Biso   1.000  C
  H618     1.0000 0.62020  0.20980  0.64240  Biso   1.000  H
  C698     1.0000 0.60110  0.17450  0.67081  Biso   1.000  C
  C699     1.0000 0.57160  0.12770  0.67979  Biso   1.000  C
  H619     1.0000 0.57080  0.12410  0.69490  Biso   1.000  H
  C700     1.0000 0.57610  0.14690  0.61203  Biso   1.000  C
  H620     1.0000 0.59450  0.18020  0.60770  Biso   1.000  H
  N76      1.0000 0.55710  0.11560  0.59710  Biso   1.000  N
  O187     1.0000 0.56930  0.13850  0.57730  Biso   1.000  O
  O188     1.0000 0.48830  0.89850  0.66458  Biso   1.000  O
  N77      1.0000 0.50890  0.92520  0.64695  Biso   1.000  N
  C701     1.0000 0.54190  0.91700  0.63941  Biso   1.000  C
  H621     1.0000 0.54770  0.89430  0.64710  Biso   1.000  H
  C702     1.0000 0.57110  0.93870  0.62046  Biso   1.000  C
  C703     1.0000 0.56540  0.97250  0.60699  Biso   1.000  C
  C704     1.0000 0.59770  0.99220  0.58907  Biso   1.000  C
  C705     1.0000 0.63310  0.97910  0.58572  Biso   1.000  C
  H622     1.0000 0.65450  0.99330  0.57380  Biso   1.000  H
  C706     1.0000 0.63940  0.94640  0.59854  Biso   1.000  C
  C707     1.0000 0.60760  0.92700  0.61577  Biso   1.000  C
  H623     1.0000 0.61070  0.90450  0.62490  Biso   1.000  H
  C708     1.0000 0.59600  0.02630  0.57390  Biso   1.000  C
  H624     1.0000 0.61750  0.03550  0.56190  Biso   1.000  H
  N78      1.0000 0.56890  0.04510  0.57511  Biso   1.000  N
  O189     1.0000 0.57750  0.07570  0.55777  Biso   1.000  O
  C709     1.0000 0.56840  0.13760  0.53770  Biso   1.000  C
  C710     1.0000 0.53830  0.15170  0.52784  Biso   1.000  C
  H625     1.0000 0.50630  0.14020  0.53350  Biso   1.000  H
  C711     1.0000 0.55290  0.18210  0.51004  Biso   1.000  C
  H626     1.0000 0.53150  0.19180  0.50390  Biso   1.000  H
  C712     1.0000 0.59890  0.19830  0.50130  Biso   1.000  C
  C713     1.0000 0.62910  0.18340  0.51036  Biso   1.000  C
  H627     1.0000 0.66050  0.19380  0.50430  Biso   1.000  H
  C714     1.0000 0.61410  0.15350  0.52831  Biso   1.000  C
  H628     1.0000 0.63550  0.14360  0.53440  Biso   1.000  H
  O190     1.0000 0.45150  0.98520  0.61089  Biso   1.000  O
  C715     1.0000 0.25540  0.93630  0.59460  Biso   1.000  C
  C716     1.0000 0.22130  0.91640  0.61360  Biso   1.000  C
  H629     1.0000 0.22280  0.88850  0.61970  Biso   1.000  H
  H630     1.0000 0.18770  0.90570  0.60890  Biso   1.000  H
  H631     1.0000 0.23130  0.94210  0.62450  Biso   1.000  H
  C717     1.0000 0.25250  0.97890  0.58560  Biso   1.000  C
  H632     1.0000 0.27440  0.99220  0.57320  Biso   1.000  H
  H633     1.0000 0.26230  0.00430  0.59660  Biso   1.000  H
  H634     1.0000 0.21870  0.96790  0.58110  Biso   1.000  H
  C718     1.0000 0.23840  0.89780  0.57630  Biso   1.000  C
  H635     1.0000 0.23960  0.86890  0.58130  Biso   1.000  H
  H636     1.0000 0.26020  0.91220  0.56390  Biso   1.000  H
  H637     1.0000 0.20480  0.88830  0.57210  Biso   1.000  H
  O191     1.0000 0.52600  0.05150  0.63189  Biso   1.000  O
  C719     1.0000 0.63290  0.21900  0.68530  Biso   1.000  C
  C720     1.0000 0.66360  0.20860  0.70040  Biso   1.000  C
  H638     1.0000 0.64240  0.17860  0.70850  Biso   1.000  H
  H639     1.0000 0.68070  0.23610  0.71030  Biso   1.000  H
  H640     1.0000 0.68760  0.20400  0.69220  Biso   1.000  H
  C721     1.0000 0.59430  0.22560  0.69850  Biso   1.000  C
  H641     1.0000 0.57410  0.23240  0.68870  Biso   1.000  H
  H642     1.0000 0.61130  0.25290  0.70850  Biso   1.000  H
  H643     1.0000 0.57330  0.19540  0.70650  Biso   1.000  H
  C722     1.0000 0.66460  0.26560  0.67220  Biso   1.000  C
  H644     1.0000 0.64370  0.27160  0.66250  Biso   1.000  H
  H645     1.0000 0.68870  0.26160  0.66380  Biso   1.000  H
  H646     1.0000 0.68180  0.29360  0.68200  Biso   1.000  H
  O192     1.0000 0.53300  0.98470  0.61106  Biso   1.000  O
  C723     1.0000 0.67880  0.93310  0.59320  Biso   1.000  C
  C724     1.0000 0.69380  0.91210  0.61100  Biso   1.000  C
  H647     1.0000 0.66460  0.88640  0.61820  Biso   1.000  H
  H648     1.0000 0.71380  0.93800  0.62130  Biso   1.000  H
  H649     1.0000 0.71300  0.89800  0.60520  Biso   1.000  H
  C725     1.0000 0.65610  0.89270  0.57580  Biso   1.000  C
  H650     1.0000 0.64550  0.90480  0.56360  Biso   1.000  H
  H651     1.0000 0.62780  0.86340  0.58170  Biso   1.000  H
  H652     1.0000 0.68070  0.88440  0.57090  Biso   1.000  H
  C726     1.0000 0.72410  0.97290  0.58210  Biso   1.000  C
  H653     1.0000 0.71420  0.98680  0.57040  Biso   1.000  H
  H654     1.0000 0.74330  0.95880  0.57630  Biso   1.000  H
  H655     1.0000 0.74400  0.99870  0.59240  Biso   1.000  H
  C727     1.0000 0.61600  0.23290  0.48243  Biso   1.000  C
  O193     1.0000 0.58680  0.24491  0.47531  Biso   1.000  O
  O194     1.0000 0.65780  0.24491  0.47540  Biso   1.000  O
  C728     1.0000 0.44240  0.87560  0.69736  Biso   1.000  C
  C729     1.0000 0.44140  0.83060  0.69655  Biso   1.000  C
  H656     1.0000 0.45150  0.82190  0.68370  Biso   1.000  H
  C730     1.0000 0.42650  0.79850  0.71355  Biso   1.000  C
  H657     1.0000 0.42620  0.76830  0.71220  Biso   1.000  H
  C731     1.0000 0.41190  0.81010  0.73268  Biso   1.000  C
  C732     1.0000 0.41480  0.85540  0.73437  Biso   1.000  C
  H658     1.0000 0.40630  0.86480  0.74750  Biso   1.000  H
  C733     1.0000 0.43010  0.88690  0.71713  Biso   1.000  C
  H659     1.0000 0.43230  0.91790  0.71880  Biso   1.000  H
  C734     1.0000 0.39540  0.77470  0.75100  Biso   1.000  C
  O195     1.0000 0.39090  0.73400  0.74777  Biso   1.000  O
  O196     1.0000 0.38830  0.78820  0.76880  Biso   1.000  O
  C735     1.0000 0.43350  0.87410  0.69696  Biso   1.000  C
  C736     1.0000 0.38960  0.82900  0.69593  Biso   1.000  C
  H660     1.0000 0.37130  0.82000  0.68300  Biso   1.000  H
  C737     1.0000 0.37210  0.79720  0.71310  Biso   1.000  C
  H661     1.0000 0.34250  0.76670  0.71180  Biso   1.000  H
  C738     1.0000 0.39820  0.81030  0.73242  Biso   1.000  C
  C739     1.0000 0.43990  0.85570  0.73418  Biso   1.000  C
  H662     1.0000 0.45640  0.86590  0.74760  Biso   1.000  H
  C740     1.0000 0.45810  0.88670  0.71654  Biso   1.000  C
  H663     1.0000 0.48790  0.91710  0.71790  Biso   1.000  H
  C741     1.0000 0.38040  0.77410  0.75050  Biso   1.000  C
  O197     1.0000 0.34400  0.73340  0.74712  Biso   1.000  O
  O198     1.0000 0.40100  0.78750  0.76850  Biso   1.000  O
  Co27     1.0000 0.15455  0.30923  0.97044  Biso   1.000  Co
  Co28     1.0000 0.18623  0.37260  0.93209  Biso   1.000  Co
  Zn17     1.0000 0.36709  0.63296  0.78940  Biso   1.000  Zn
  B27      1.0000 0.12047  0.24243  0.00983  Biso   1.000  B
  O199     1.0000 0.07707  0.23143  0.99808  Biso   1.000  O
  N79      1.0000 0.08307  0.25813  0.97988  Biso   1.000  N
  C742     1.0000 0.04167  0.24903  0.97237  Biso   1.000  C
  H664     1.0000 0.01307  0.22533  0.97963  Biso   1.000  H
  C743     1.0000 0.03487  0.27223  0.95363  Biso   1.000  C
  C744     1.0000 0.07407  0.30653  0.94056  Biso   1.000  C
  C745     1.0000 0.06137  0.32453  0.92193  Biso   1.000  C
  C746     1.0000 0.01217  0.31133  0.91818  Biso   1.000  C
  H665     1.0000 0.00437  0.32363  0.90583  Biso   1.000  H
  C747     1.0000 0.97487  0.28103  0.93200  Biso   1.000  C
  C748     1.0000 0.98717  0.26213  0.94932  Biso   1.000  C
  H666     1.0000 0.96177  0.24103  0.95883  Biso   1.000  H
  C749     1.0000 0.09717  0.35663  0.90673  Biso   1.000  C
  H667     1.0000 0.08457  0.36273  0.89393  Biso   1.000  H
  N80      1.0000 0.14317  0.37753  0.90813  Biso   1.000  N
  O200     1.0000 0.16597  0.40783  0.89087  Biso   1.000  O
  B28      1.0000 0.21947  0.43793  0.89212  Biso   1.000  B
  O201     1.0000 0.14607  0.29463  0.01794  Biso   1.000  O
  N81      1.0000 0.16377  0.32993  0.00252  Biso   1.000  N
  C750     1.0000 0.18477  0.37253  0.01093  Biso   1.000  C
  H668     1.0000 0.18357  0.37333  0.02613  Biso   1.000  H
  C751     1.0000 0.21007  0.41953  0.00039  Biso   1.000  C
  C752     1.0000 0.21217  0.42333  0.97748  Biso   1.000  C
  C753     1.0000 0.23977  0.47113  0.96825  Biso   1.000  C
  C754     1.0000 0.26747  0.51163  0.98199  Biso   1.000  C
  H669     1.0000 0.28687  0.54313  0.97573  Biso   1.000  H
  C755     1.0000 0.26777  0.50783  0.00414  Biso   1.000  C
  C756     1.0000 0.23827  0.46103  0.01312  Biso   1.000  C
  H670     1.0000 0.23747  0.45743  0.02823  Biso   1.000  H
  C757     1.0000 0.24277  0.48023  0.94536  Biso   1.000  C
  H671     1.0000 0.26117  0.51353  0.94103  Biso   1.000  H
  N82      1.0000 0.22377  0.44893  0.93043  Biso   1.000  N
  O202     1.0000 0.23597  0.47183  0.91063  Biso   1.000  O
  O203     1.0000 0.15497  0.23183  0.99791  Biso   1.000  O
  N83      1.0000 0.17557  0.25853  0.98028  Biso   1.000  N
  C758     1.0000 0.20857  0.25033  0.97274  Biso   1.000  C
  H672     1.0000 0.21437  0.22763  0.98043  Biso   1.000  H
  C759     1.0000 0.23777  0.27203  0.95379  Biso   1.000  C
  C760     1.0000 0.23207  0.30583  0.94032  Biso   1.000  C
  C761     1.0000 0.26437  0.32553  0.92240  Biso   1.000  C
  C762     1.0000 0.29977  0.31243  0.91905  Biso   1.000  C
  H673     1.0000 0.32117  0.32663  0.90713  Biso   1.000  H
  C763     1.0000 0.30607  0.27973  0.93187  Biso   1.000  C
  C764     1.0000 0.27427  0.26033  0.94910  Biso   1.000  C
  H674     1.0000 0.27737  0.23783  0.95823  Biso   1.000  H
  C765     1.0000 0.26267  0.35963  0.90723  Biso   1.000  C
  H675     1.0000 0.28417  0.36883  0.89523  Biso   1.000  H
  N84      1.0000 0.23557  0.37843  0.90844  Biso   1.000  N
  O204     1.0000 0.24417  0.40903  0.89110  Biso   1.000  O
  C766     1.0000 0.23507  0.47093  0.87103  Biso   1.000  C
  C767     1.0000 0.20497  0.48503  0.86117  Biso   1.000  C
  H676     1.0000 0.17297  0.47353  0.86683  Biso   1.000  H
  C768     1.0000 0.21957  0.51543  0.84337  Biso   1.000  C
  H677     1.0000 0.19817  0.52513  0.83723  Biso   1.000  H
  C769     1.0000 0.26557  0.53163  0.83463  Biso   1.000  C
  C770     1.0000 0.29577  0.51673  0.84369  Biso   1.000  C
  H678     1.0000 0.32717  0.52713  0.83763  Biso   1.000  H
  C771     1.0000 0.28077  0.48683  0.86164  Biso   1.000  C
  H679     1.0000 0.30217  0.47693  0.86773  Biso   1.000  H
  O205     1.0000 0.11817  0.31853  0.94422  Biso   1.000  O
  C772     1.0000 0.92207  0.26963  0.92793  Biso   1.000  C
  C773     1.0000 0.88797  0.24973  0.94693  Biso   1.000  C
  H680     1.0000 0.88947  0.22183  0.95303  Biso   1.000  H
  H681     1.0000 0.85437  0.23903  0.94223  Biso   1.000  H
  H682     1.0000 0.89797  0.27543  0.95783  Biso   1.000  H
  C774     1.0000 0.91917  0.31223  0.91893  Biso   1.000  C
  H683     1.0000 0.94107  0.32553  0.90653  Biso   1.000  H
  H684     1.0000 0.92897  0.33763  0.92993  Biso   1.000  H
  H685     1.0000 0.88537  0.30123  0.91443  Biso   1.000  H
  C775     1.0000 0.90507  0.23113  0.90963  Biso   1.000  C
  H686     1.0000 0.90627  0.20223  0.91463  Biso   1.000  H
  H687     1.0000 0.92687  0.24553  0.89723  Biso   1.000  H
  H688     1.0000 0.87147  0.22163  0.90543  Biso   1.000  H
  O206     1.0000 0.19267  0.38483  0.96522  Biso   1.000  O
  C776     1.0000 0.29957  0.55233  0.01863  Biso   1.000  C
  C777     1.0000 0.33027  0.54193  0.03373  Biso   1.000  C
  H689     1.0000 0.30907  0.51193  0.04183  Biso   1.000  H
  H690     1.0000 0.34737  0.56943  0.04363  Biso   1.000  H
  H691     1.0000 0.35427  0.53733  0.02553  Biso   1.000  H
  C778     1.0000 0.26097  0.55893  0.03183  Biso   1.000  C
  H692     1.0000 0.24077  0.56573  0.02203  Biso   1.000  H
  H693     1.0000 0.27797  0.58623  0.04183  Biso   1.000  H
  H694     1.0000 0.23997  0.52873  0.03983  Biso   1.000  H
  C779     1.0000 0.33127  0.59893  0.00553  Biso   1.000  C
  H695     1.0000 0.31037  0.60493  0.99583  Biso   1.000  H
  H696     1.0000 0.35537  0.59493  0.99713  Biso   1.000  H
  H697     1.0000 0.34847  0.62693  0.01533  Biso   1.000  H
  O207     1.0000 0.19967  0.31803  0.94439  Biso   1.000  O
  C780     1.0000 0.34547  0.26643  0.92653  Biso   1.000  C
  C781     1.0000 0.36047  0.24543  0.94433  Biso   1.000  C
  H698     1.0000 0.33127  0.21973  0.95153  Biso   1.000  H
  H699     1.0000 0.38047  0.27133  0.95463  Biso   1.000  H
  H700     1.0000 0.37967  0.23133  0.93853  Biso   1.000  H
  C782     1.0000 0.32277  0.22603  0.90913  Biso   1.000  C
  H701     1.0000 0.31217  0.23813  0.89693  Biso   1.000  H
  H702     1.0000 0.29447  0.19673  0.91503  Biso   1.000  H
  H703     1.0000 0.34737  0.21773  0.90423  Biso   1.000  H
  C783     1.0000 0.39077  0.30623  0.91543  Biso   1.000  C
  H704     1.0000 0.38087  0.32013  0.90373  Biso   1.000  H
  H705     1.0000 0.40997  0.29213  0.90963  Biso   1.000  H
  H706     1.0000 0.41067  0.33203  0.92573  Biso   1.000  H
  C784     1.0000 0.28267  0.56623  0.81576  Biso   1.000  C
  O208     1.0000 0.25347  0.57824  0.80864  Biso   1.000  O
  O209     1.0000 0.32447  0.57824  0.80873  Biso   1.000  O
  C785     1.0000 0.10907  0.20893  0.03069  Biso   1.000  C
  C786     1.0000 0.10807  0.16393  0.02988  Biso   1.000  C
  H707     1.0000 0.11817  0.15523  0.01703  Biso   1.000  H
  C787     1.0000 0.09317  0.13183  0.04688  Biso   1.000  C
  H708     1.0000 0.09287  0.10163  0.04553  Biso   1.000  H
  C788     1.0000 0.07857  0.14343  0.06601  Biso   1.000  C
  C789     1.0000 0.08147  0.18873  0.06770  Biso   1.000  C
  H709     1.0000 0.07297  0.19813  0.08083  Biso   1.000  H
  C790     1.0000 0.09677  0.22023  0.05046  Biso   1.000  C
  H710     1.0000 0.09897  0.25123  0.05213  Biso   1.000  H
  C791     1.0000 0.06207  0.10803  0.08433  Biso   1.000  C
  O210     1.0000 0.05757  0.06733  0.08110  Biso   1.000  O
  O211     1.0000 0.05497  0.12153  0.10213  Biso   1.000  O
  C792     1.0000 0.10017  0.20743  0.03029  Biso   1.000  C
  C793     1.0000 0.05627  0.16233  0.02926  Biso   1.000  C
  H711     1.0000 0.03797  0.15333  0.01633  Biso   1.000  H
  C794     1.0000 0.03877  0.13053  0.04643  Biso   1.000  C
  H712     1.0000 0.00917  0.10003  0.04513  Biso   1.000  H
  C795     1.0000 0.06487  0.14363  0.06575  Biso   1.000  C
  C796     1.0000 0.10657  0.18903  0.06751  Biso   1.000  C
  H713     1.0000 0.12307  0.19923  0.08093  Biso   1.000  H
  C797     1.0000 0.12477  0.22003  0.04987  Biso   1.000  C
  H714     1.0000 0.15457  0.25043  0.05123  Biso   1.000  H
  C798     1.0000 0.04707  0.10743  0.08383  Biso   1.000  C
  O212     1.0000 0.01067  0.06673  0.08045  Biso   1.000  O
  O213     1.0000 0.06767  0.12083  0.10183  Biso   1.000  O
  Co29     1.0000 0.82121  0.64257  0.30378  Biso   1.000  Co
  Co30     1.0000 0.85289  0.70594  0.26543  Biso   1.000  Co
  Zn18     1.0000 0.03375  0.96630  0.12274  Biso   1.000  Zn
  B29      1.0000 0.78713  0.57577  0.34317  Biso   1.000  B
  O214     1.0000 0.74373  0.56477  0.33142  Biso   1.000  O
  N85      1.0000 0.74973  0.59147  0.31322  Biso   1.000  N
  C799     1.0000 0.70833  0.58237  0.30571  Biso   1.000  C
  H715     1.0000 0.67973  0.55867  0.31297  Biso   1.000  H
  C800     1.0000 0.70153  0.60557  0.28697  Biso   1.000  C
  C801     1.0000 0.74073  0.63987  0.27390  Biso   1.000  C
  C802     1.0000 0.72803  0.65787  0.25527  Biso   1.000  C
  C803     1.0000 0.67883  0.64467  0.25152  Biso   1.000  C
  H716     1.0000 0.67103  0.65697  0.23917  Biso   1.000  H
  C804     1.0000 0.64153  0.61437  0.26534  Biso   1.000  C
  C805     1.0000 0.65383  0.59547  0.28266  Biso   1.000  C
  H717     1.0000 0.62843  0.57437  0.29217  Biso   1.000  H
  C806     1.0000 0.76383  0.68997  0.24007  Biso   1.000  C
  H718     1.0000 0.75123  0.69607  0.22727  Biso   1.000  H
  N86      1.0000 0.80983  0.71087  0.24147  Biso   1.000  N
  O215     1.0000 0.83263  0.74117  0.22421  Biso   1.000  O
  B30      1.0000 0.88613  0.77127  0.22546  Biso   1.000  B
  O216     1.0000 0.81273  0.62797  0.35128  Biso   1.000  O
  N87      1.0000 0.83043  0.66327  0.33586  Biso   1.000  N
  C807     1.0000 0.85143  0.70587  0.34427  Biso   1.000  C
  H719     1.0000 0.85023  0.70667  0.35947  Biso   1.000  H
  C808     1.0000 0.87673  0.75287  0.33373  Biso   1.000  C
  C809     1.0000 0.87883  0.75667  0.31082  Biso   1.000  C
  C810     1.0000 0.90643  0.80447  0.30159  Biso   1.000  C
  C811     1.0000 0.93413  0.84497  0.31533  Biso   1.000  C
  H720     1.0000 0.95353  0.87647  0.30907  Biso   1.000  H
  C812     1.0000 0.93443  0.84117  0.33748  Biso   1.000  C
  C813     1.0000 0.90493  0.79437  0.34646  Biso   1.000  C
  H721     1.0000 0.90413  0.79077  0.36157  Biso   1.000  H
  C814     1.0000 0.90943  0.81357  0.27870  Biso   1.000  C
  H722     1.0000 0.92783  0.84687  0.27437  Biso   1.000  H
  N88      1.0000 0.89043  0.78227  0.26377  Biso   1.000  N
  O217     1.0000 0.90263  0.80517  0.24397  Biso   1.000  O
  O218     1.0000 0.82163  0.56517  0.33125  Biso   1.000  O
  N89      1.0000 0.84223  0.59187  0.31362  Biso   1.000  N
  C815     1.0000 0.87523  0.58367  0.30608  Biso   1.000  C
  H723     1.0000 0.88103  0.56097  0.31377  Biso   1.000  H
  C816     1.0000 0.90443  0.60537  0.28713  Biso   1.000  C
  C817     1.0000 0.89873  0.63917  0.27366  Biso   1.000  C
  C818     1.0000 0.93103  0.65887  0.25574  Biso   1.000  C
  C819     1.0000 0.96643  0.64577  0.25239  Biso   1.000  C
  H724     1.0000 0.98783  0.65997  0.24047  Biso   1.000  H
  C820     1.0000 0.97273  0.61307  0.26521  Biso   1.000  C
  C821     1.0000 0.94093  0.59367  0.28244  Biso   1.000  C
  H725     1.0000 0.94403  0.57117  0.29157  Biso   1.000  H
  C822     1.0000 0.92933  0.69297  0.24057  Biso   1.000  C
  H726     1.0000 0.95083  0.70217  0.22857  Biso   1.000  H
  N90      1.0000 0.90223  0.71177  0.24178  Biso   1.000  N
  O219     1.0000 0.91083  0.74237  0.22444  Biso   1.000  O
  C823     1.0000 0.90173  0.80427  0.20437  Biso   1.000  C
  C824     1.0000 0.87163  0.81837  0.19451  Biso   1.000  C
  H727     1.0000 0.83963  0.80687  0.20017  Biso   1.000  H
  C825     1.0000 0.88623  0.84877  0.17671  Biso   1.000  C
  H728     1.0000 0.86483  0.85847  0.17057  Biso   1.000  H
  C826     1.0000 0.93223  0.86497  0.16797  Biso   1.000  C
  C827     1.0000 0.96243  0.85007  0.17703  Biso   1.000  C
  H729     1.0000 0.99383  0.86047  0.17097  Biso   1.000  H
  C828     1.0000 0.94743  0.82017  0.19498  Biso   1.000  C
  H730     1.0000 0.96883  0.81027  0.20107  Biso   1.000  H
  O220     1.0000 0.78483  0.65187  0.27756  Biso   1.000  O
  C829     1.0000 0.58873  0.60297  0.26127  Biso   1.000  C
  C830     1.0000 0.55463  0.58307  0.28027  Biso   1.000  C
  H731     1.0000 0.55613  0.55517  0.28637  Biso   1.000  H
  H732     1.0000 0.52103  0.57237  0.27557  Biso   1.000  H
  H733     1.0000 0.56463  0.60877  0.29117  Biso   1.000  H
  C831     1.0000 0.58583  0.64557  0.25227  Biso   1.000  C
  H734     1.0000 0.60773  0.65887  0.23987  Biso   1.000  H
  H735     1.0000 0.59563  0.67097  0.26327  Biso   1.000  H
  H736     1.0000 0.55203  0.63457  0.24777  Biso   1.000  H
  C832     1.0000 0.57173  0.56447  0.24297  Biso   1.000  C
  H737     1.0000 0.57293  0.53557  0.24797  Biso   1.000  H
  H738     1.0000 0.59353  0.57887  0.23057  Biso   1.000  H
  H739     1.0000 0.53813  0.55497  0.23877  Biso   1.000  H
  O221     1.0000 0.85933  0.71817  0.29856  Biso   1.000  O
  C833     1.0000 0.96623  0.88567  0.35197  Biso   1.000  C
  C834     1.0000 0.99693  0.87527  0.36707  Biso   1.000  C
  H740     1.0000 0.97573  0.84527  0.37517  Biso   1.000  H
  H741     1.0000 0.01403  0.90277  0.37697  Biso   1.000  H
  H742     1.0000 0.02093  0.87067  0.35887  Biso   1.000  H
  C835     1.0000 0.92763  0.89227  0.36517  Biso   1.000  C
  H743     1.0000 0.90743  0.89907  0.35537  Biso   1.000  H
  H744     1.0000 0.94463  0.91957  0.37517  Biso   1.000  H
  H745     1.0000 0.90663  0.86207  0.37317  Biso   1.000  H
  C836     1.0000 0.99793  0.93227  0.33887  Biso   1.000  C
  H746     1.0000 0.97703  0.93827  0.32917  Biso   1.000  H
  H747     1.0000 0.02203  0.92827  0.33047  Biso   1.000  H
  H748     1.0000 0.01513  0.96027  0.34867  Biso   1.000  H
  O222     1.0000 0.86633  0.65137  0.27773  Biso   1.000  O
  C837     1.0000 0.01213  0.59977  0.25987  Biso   1.000  C
  C838     1.0000 0.02713  0.57877  0.27767  Biso   1.000  C
  H749     1.0000 0.99793  0.55307  0.28487  Biso   1.000  H
  H750     1.0000 0.04713  0.60467  0.28797  Biso   1.000  H
  H751     1.0000 0.04633  0.56467  0.27187  Biso   1.000  H
  C839     1.0000 0.98943  0.55937  0.24247  Biso   1.000  C
  H752     1.0000 0.97883  0.57147  0.23027  Biso   1.000  H
  H753     1.0000 0.96113  0.53007  0.24837  Biso   1.000  H
  H754     1.0000 0.01403  0.55107  0.23757  Biso   1.000  H
  C840     1.0000 0.05743  0.63957  0.24877  Biso   1.000  C
  H755     1.0000 0.04753  0.65347  0.23707  Biso   1.000  H
  H756     1.0000 0.07663  0.62547  0.24297  Biso   1.000  H
  H757     1.0000 0.07733  0.66537  0.25907  Biso   1.000  H
  C841     1.0000 0.94933  0.89957  0.14910  Biso   1.000  C
  O223     1.0000 0.92013  0.91158  0.14198  Biso   1.000  O
  O224     1.0000 0.99113  0.91158  0.14207  Biso   1.000  O
  C842     1.0000 0.77573  0.54227  0.36403  Biso   1.000  C
  C843     1.0000 0.77473  0.49727  0.36322  Biso   1.000  C
  H758     1.0000 0.78483  0.48857  0.35037  Biso   1.000  H
  C844     1.0000 0.75983  0.46517  0.38022  Biso   1.000  C
  H759     1.0000 0.75953  0.43497  0.37887  Biso   1.000  H
  C845     1.0000 0.74523  0.47677  0.39935  Biso   1.000  C
  C846     1.0000 0.74813  0.52207  0.40104  Biso   1.000  C
  H760     1.0000 0.73963  0.53147  0.41417  Biso   1.000  H
  C847     1.0000 0.76343  0.55357  0.38380  Biso   1.000  C
  H761     1.0000 0.76563  0.58457  0.38547  Biso   1.000  H
  C848     1.0000 0.72873  0.44137  0.41767  Biso   1.000  C
  O225     1.0000 0.72423  0.40067  0.41444  Biso   1.000  O
  O226     1.0000 0.72163  0.45487  0.43547  Biso   1.000  O
  C849     1.0000 0.76683  0.54077  0.36363  Biso   1.000  C
  C850     1.0000 0.72293  0.49567  0.36260  Biso   1.000  C
  H762     1.0000 0.70463  0.48667  0.34967  Biso   1.000  H
  C851     1.0000 0.70543  0.46387  0.37977  Biso   1.000  C
  H763     1.0000 0.67583  0.43337  0.37847  Biso   1.000  H
  C852     1.0000 0.73153  0.47697  0.39909  Biso   1.000  C
  C853     1.0000 0.77323  0.52237  0.40085  Biso   1.000  C
  H764     1.0000 0.78973  0.53257  0.41427  Biso   1.000  H
  C854     1.0000 0.79143  0.55337  0.38321  Biso   1.000  C
  H765     1.0000 0.82123  0.58377  0.38457  Biso   1.000  H
  C855     1.0000 0.71373  0.44077  0.41717  Biso   1.000  C
  O227     1.0000 0.67733  0.40007  0.41379  Biso   1.000  O
  O228     1.0000 0.73433  0.45417  0.43517  Biso   1.000  O
  Co31     1.0000 0.02410  0.51198  0.63711  Biso   1.000  Co
  Co32     1.0000 0.96073  0.48029  0.59876  Biso   1.000  Co
  Zn19     1.0000 0.70037  0.40079  0.45607  Biso   1.000  Zn
  B31      1.0000 0.09090  0.54470  0.67650  Biso   1.000  B
  O229     1.0000 0.10190  0.51230  0.66475  Biso   1.000  O
  N91      1.0000 0.07520  0.49160  0.64655  Biso   1.000  N
  C856     1.0000 0.08430  0.45930  0.63904  Biso   1.000  C
  H766     1.0000 0.10800  0.45440  0.64630  Biso   1.000  H
  C857     1.0000 0.06110  0.42930  0.62030  Biso   1.000  C
  C858     1.0000 0.02680  0.43420  0.60723  Biso   1.000  C
  C859     1.0000 0.00880  0.40350  0.58860  Biso   1.000  C
  C860     1.0000 0.02200  0.36750  0.58485  Biso   1.000  C
  H767     1.0000 0.00970  0.34740  0.57250  Biso   1.000  H
  C861     1.0000 0.05230  0.36050  0.59867  Biso   1.000  C
  C862     1.0000 0.07120  0.39170  0.61599  Biso   1.000  C
  H768     1.0000 0.09230  0.38740  0.62550  Biso   1.000  H
  C863     1.0000 0.97670  0.40720  0.57340  Biso   1.000  C
  H769     1.0000 0.97060  0.38850  0.56060  Biso   1.000  H
  N92      1.0000 0.95580  0.43230  0.57480  Biso   1.000  N
  O230     1.0000 0.92550  0.42480  0.55754  Biso   1.000  O
  B32      1.0000 0.89540  0.44820  0.55879  Biso   1.000  B
  O231     1.0000 0.03870  0.51810  0.68461  Biso   1.000  O
  N93      1.0000 0.00340  0.50050  0.66919  Biso   1.000  N
  C864     1.0000 0.96080  0.47890  0.67760  Biso   1.000  C
  H770     1.0000 0.96000  0.47690  0.69280  Biso   1.000  H
  C865     1.0000 0.91380  0.45720  0.66706  Biso   1.000  C
  C866     1.0000 0.91000  0.45550  0.64415  Biso   1.000  C
  C867     1.0000 0.86220  0.43530  0.63492  Biso   1.000  C
  C868     1.0000 0.82170  0.42250  0.64866  Biso   1.000  C
  H771     1.0000 0.79020  0.41040  0.64240  Biso   1.000  H
  C869     1.0000 0.82550  0.42660  0.67081  Biso   1.000  C
  C870     1.0000 0.87230  0.44390  0.67979  Biso   1.000  C
  H772     1.0000 0.87590  0.44670  0.69490  Biso   1.000  H
  C871     1.0000 0.85310  0.42920  0.61203  Biso   1.000  C
  H773     1.0000 0.81980  0.41430  0.60770  Biso   1.000  H
  N94      1.0000 0.88440  0.44150  0.59710  Biso   1.000  N
  O232     1.0000 0.86150  0.43080  0.57730  Biso   1.000  O
  O233     1.0000 0.10150  0.58980  0.66458  Biso   1.000  O
  N95      1.0000 0.07480  0.58370  0.64695  Biso   1.000  N
  C872     1.0000 0.08300  0.62490  0.63941  Biso   1.000  C
  H774     1.0000 0.10570  0.65340  0.64710  Biso   1.000  H
  C873     1.0000 0.06130  0.63240  0.62046  Biso   1.000  C
  C874     1.0000 0.02750  0.59290  0.60699  Biso   1.000  C
  C875     1.0000 0.00780  0.60550  0.58907  Biso   1.000  C
  C876     1.0000 0.02090  0.65400  0.58572  Biso   1.000  C
  H775     1.0000 0.00670  0.66120  0.57380  Biso   1.000  H
  C877     1.0000 0.05360  0.69300  0.59854  Biso   1.000  C
  C878     1.0000 0.07300  0.68060  0.61577  Biso   1.000  C
  H776     1.0000 0.09550  0.70620  0.62490  Biso   1.000  H
  C879     1.0000 0.97370  0.56970  0.57390  Biso   1.000  C
  H777     1.0000 0.96450  0.58200  0.56190  Biso   1.000  H
  N96      1.0000 0.95490  0.52380  0.57511  Biso   1.000  N
  O234     1.0000 0.92430  0.50180  0.55777  Biso   1.000  O
  C880     1.0000 0.86240  0.43080  0.53770  Biso   1.000  C
  C881     1.0000 0.84830  0.38660  0.52784  Biso   1.000  C
  H778     1.0000 0.85980  0.36610  0.53350  Biso   1.000  H
  C882     1.0000 0.81790  0.37080  0.51004  Biso   1.000  C
  H779     1.0000 0.80820  0.33970  0.50390  Biso   1.000  H
  C883     1.0000 0.80170  0.40060  0.50130  Biso   1.000  C
  C884     1.0000 0.81660  0.44570  0.51036  Biso   1.000  C
  H780     1.0000 0.80620  0.46670  0.50430  Biso   1.000  H
  C885     1.0000 0.84650  0.46060  0.52831  Biso   1.000  C
  H781     1.0000 0.85640  0.49190  0.53440  Biso   1.000  H
  O235     1.0000 0.01480  0.46630  0.61089  Biso   1.000  O
  C886     1.0000 0.06370  0.31910  0.59460  Biso   1.000  C
  C887     1.0000 0.08360  0.30490  0.61360  Biso   1.000  C
  H782     1.0000 0.11150  0.33430  0.61970  Biso   1.000  H
  H783     1.0000 0.09430  0.28200  0.60890  Biso   1.000  H
  H784     1.0000 0.05790  0.28920  0.62450  Biso   1.000  H
  C888     1.0000 0.02110  0.27360  0.58560  Biso   1.000  C
  H785     1.0000 0.00780  0.28220  0.57320  Biso   1.000  H
  H786     1.0000 0.99570  0.25800  0.59660  Biso   1.000  H
  H787     1.0000 0.03210  0.25080  0.58110  Biso   1.000  H
  C889     1.0000 0.10220  0.34060  0.57630  Biso   1.000  C
  H788     1.0000 0.13110  0.37070  0.58130  Biso   1.000  H
  H789     1.0000 0.08780  0.34800  0.56390  Biso   1.000  H
  H790     1.0000 0.11170  0.31650  0.57210  Biso   1.000  H
  O236     1.0000 0.94850  0.47450  0.63189  Biso   1.000  O
  C890     1.0000 0.78100  0.41390  0.68530  Biso   1.000  C
  C891     1.0000 0.79140  0.45500  0.70040  Biso   1.000  C
  H791     1.0000 0.82140  0.46380  0.70850  Biso   1.000  H
  H792     1.0000 0.76390  0.44460  0.71030  Biso   1.000  H
  H793     1.0000 0.79600  0.48360  0.69220  Biso   1.000  H
  C892     1.0000 0.77440  0.36870  0.69850  Biso   1.000  C
  H794     1.0000 0.76760  0.34170  0.68870  Biso   1.000  H
  H795     1.0000 0.74710  0.35840  0.70850  Biso   1.000  H
  H796     1.0000 0.80460  0.37790  0.70650  Biso   1.000  H
  C893     1.0000 0.73440  0.39900  0.67220  Biso   1.000  C
  H797     1.0000 0.72840  0.37210  0.66250  Biso   1.000  H
  H798     1.0000 0.73840  0.42710  0.66380  Biso   1.000  H
  H799     1.0000 0.70640  0.38820  0.68200  Biso   1.000  H
  O237     1.0000 0.01530  0.54830  0.61106  Biso   1.000  O
  C894     1.0000 0.06690  0.74570  0.59320  Biso   1.000  C
  C895     1.0000 0.08790  0.78170  0.61100  Biso   1.000  C
  H800     1.0000 0.11360  0.77820  0.61820  Biso   1.000  H
  H801     1.0000 0.06200  0.77580  0.62130  Biso   1.000  H
  H802     1.0000 0.10200  0.81500  0.60520  Biso   1.000  H
  C896     1.0000 0.10730  0.76340  0.57580  Biso   1.000  C
  H803     1.0000 0.09520  0.74070  0.56360  Biso   1.000  H
  H804     1.0000 0.13660  0.76440  0.58170  Biso   1.000  H
  H805     1.0000 0.11560  0.79630  0.57090  Biso   1.000  H
  C897     1.0000 0.02710  0.75120  0.58210  Biso   1.000  C
  H806     1.0000 0.01320  0.72740  0.57040  Biso   1.000  H
  H807     1.0000 0.04120  0.78450  0.57630  Biso   1.000  H
  H808     1.0000 0.00130  0.74530  0.59240  Biso   1.000  H
  C898     1.0000 0.76710  0.38310  0.48243  Biso   1.000  C
  O238     1.0000 0.75509  0.34189  0.47531  Biso   1.000  O
  O239     1.0000 0.75509  0.41289  0.47540  Biso   1.000  O
  C899     1.0000 0.12440  0.56680  0.69736  Biso   1.000  C
  C900     1.0000 0.16940  0.61080  0.69655  Biso   1.000  C
  H809     1.0000 0.17810  0.62960  0.68370  Biso   1.000  H
  C901     1.0000 0.20150  0.62800  0.71355  Biso   1.000  C
  H810     1.0000 0.23170  0.65790  0.71220  Biso   1.000  H
  C902     1.0000 0.18990  0.60180  0.73268  Biso   1.000  C
  C903     1.0000 0.14460  0.55940  0.73437  Biso   1.000  C
  H811     1.0000 0.13520  0.54150  0.74750  Biso   1.000  H
  C904     1.0000 0.11310  0.54320  0.71713  Biso   1.000  C
  H812     1.0000 0.08210  0.51440  0.71880  Biso   1.000  H
  C905     1.0000 0.22530  0.62070  0.75100  Biso   1.000  C
  O240     1.0000 0.26600  0.65690  0.74777  Biso   1.000  O
  O241     1.0000 0.21180  0.60010  0.76880  Biso   1.000  O
  C906     1.0000 0.12590  0.55940  0.69696  Biso   1.000  C
  C907     1.0000 0.17100  0.56060  0.69593  Biso   1.000  C
  H813     1.0000 0.18000  0.55130  0.68300  Biso   1.000  H
  C908     1.0000 0.20280  0.57490  0.71310  Biso   1.000  C
  H814     1.0000 0.23330  0.57580  0.71180  Biso   1.000  H
  C909     1.0000 0.18970  0.58790  0.73242  Biso   1.000  C
  C910     1.0000 0.14430  0.58420  0.73418  Biso   1.000  C
  H815     1.0000 0.13410  0.59050  0.74760  Biso   1.000  H
  C911     1.0000 0.11330  0.57140  0.71654  Biso   1.000  C
  H816     1.0000 0.08290  0.57080  0.71790  Biso   1.000  H
  C912     1.0000 0.22590  0.60630  0.75050  Biso   1.000  C
  O242     1.0000 0.26660  0.61060  0.74712  Biso   1.000  O
  O243     1.0000 0.21250  0.61350  0.76850  Biso   1.000  O
  Co33     1.0000 0.69077  0.84531  0.97044  Biso   1.000  Co
  Co34     1.0000 0.62740  0.81362  0.93209  Biso   1.000  Co
  Zn20     1.0000 0.36704  0.73412  0.78940  Biso   1.000  Zn
  B33      1.0000 0.75757  0.87803  0.00983  Biso   1.000  B
  O244     1.0000 0.76857  0.84563  0.99808  Biso   1.000  O
  N97      1.0000 0.74187  0.82493  0.97988  Biso   1.000  N
  C913     1.0000 0.75097  0.79263  0.97237  Biso   1.000  C
  H817     1.0000 0.77467  0.78773  0.97963  Biso   1.000  H
  C914     1.0000 0.72777  0.76263  0.95363  Biso   1.000  C
  C915     1.0000 0.69347  0.76753  0.94056  Biso   1.000  C
  C916     1.0000 0.67547  0.73683  0.92193  Biso   1.000  C
  C917     1.0000 0.68867  0.70083  0.91818  Biso   1.000  C
  H818     1.0000 0.67637  0.68073  0.90583  Biso   1.000  H
  C918     1.0000 0.71897  0.69383  0.93200  Biso   1.000  C
  C919     1.0000 0.73787  0.72503  0.94932  Biso   1.000  C
  H819     1.0000 0.75897  0.72073  0.95883  Biso   1.000  H
  C920     1.0000 0.64337  0.74053  0.90673  Biso   1.000  C
  H820     1.0000 0.63727  0.72183  0.89393  Biso   1.000  H
  N98      1.0000 0.62247  0.76563  0.90813  Biso   1.000  N
  O245     1.0000 0.59217  0.75813  0.89087  Biso   1.000  O
  B34      1.0000 0.56207  0.78153  0.89212  Biso   1.000  B
  O246     1.0000 0.70537  0.85143  0.01794  Biso   1.000  O
  N99      1.0000 0.67007  0.83383  0.00252  Biso   1.000  N
  C921     1.0000 0.62747  0.81223  0.01093  Biso   1.000  C
  H821     1.0000 0.62667  0.81023  0.02613  Biso   1.000  H
  C922     1.0000 0.58047  0.79053  0.00039  Biso   1.000  C
  C923     1.0000 0.57667  0.78883  0.97748  Biso   1.000  C
  C924     1.0000 0.52887  0.76863  0.96825  Biso   1.000  C
  C925     1.0000 0.48837  0.75583  0.98199  Biso   1.000  C
  H822     1.0000 0.45687  0.74373  0.97573  Biso   1.000  H
  C926     1.0000 0.49217  0.75993  0.00414  Biso   1.000  C
  C927     1.0000 0.53897  0.77723  0.01312  Biso   1.000  C
  H823     1.0000 0.54257  0.78003  0.02823  Biso   1.000  H
  C928     1.0000 0.51977  0.76253  0.94536  Biso   1.000  C
  H824     1.0000 0.48647  0.74763  0.94103  Biso   1.000  H
  N100     1.0000 0.55107  0.77483  0.93043  Biso   1.000  N
  O247     1.0000 0.52817  0.76413  0.91063  Biso   1.000  O
  O248     1.0000 0.76817  0.92313  0.99791  Biso   1.000  O
  N101     1.0000 0.74147  0.91703  0.98028  Biso   1.000  N
  C929     1.0000 0.74967  0.95823  0.97274  Biso   1.000  C
  H825     1.0000 0.77237  0.98673  0.98043  Biso   1.000  H
  C930     1.0000 0.72797  0.96573  0.95379  Biso   1.000  C
  C931     1.0000 0.69417  0.92623  0.94032  Biso   1.000  C
  C932     1.0000 0.67447  0.93883  0.92240  Biso   1.000  C
  C933     1.0000 0.68757  0.98733  0.91905  Biso   1.000  C
  H826     1.0000 0.67337  0.99453  0.90713  Biso   1.000  H
  C934     1.0000 0.72027  0.02633  0.93187  Biso   1.000  C
  C935     1.0000 0.73967  0.01393  0.94910  Biso   1.000  C
  H827     1.0000 0.76217  0.03953  0.95823  Biso   1.000  H
  C936     1.0000 0.64037  0.90303  0.90723  Biso   1.000  C
  H828     1.0000 0.63117  0.91533  0.89523  Biso   1.000  H
  N102     1.0000 0.62157  0.85713  0.90844  Biso   1.000  N
  O249     1.0000 0.59097  0.83513  0.89110  Biso   1.000  O
  C937     1.0000 0.52907  0.76413  0.87103  Biso   1.000  C
  C938     1.0000 0.51497  0.71993  0.86117  Biso   1.000  C
  H829     1.0000 0.52647  0.69943  0.86683  Biso   1.000  H
  C939     1.0000 0.48457  0.70413  0.84337  Biso   1.000  C
  H830     1.0000 0.47487  0.67303  0.83723  Biso   1.000  H
  C940     1.0000 0.46837  0.73393  0.83463  Biso   1.000  C
  C941     1.0000 0.48327  0.77903  0.84369  Biso   1.000  C
  H831     1.0000 0.47287  0.80003  0.83763  Biso   1.000  H
  C942     1.0000 0.51317  0.79393  0.86164  Biso   1.000  C
  H832     1.0000 0.52307  0.82523  0.86773  Biso   1.000  H
  O250     1.0000 0.68147  0.79963  0.94422  Biso   1.000  O
  C943     1.0000 0.73037  0.65243  0.92793  Biso   1.000  C
  C944     1.0000 0.75027  0.63823  0.94693  Biso   1.000  C
  H833     1.0000 0.77817  0.66763  0.95303  Biso   1.000  H
  H834     1.0000 0.76097  0.61533  0.94223  Biso   1.000  H
  H835     1.0000 0.72457  0.62253  0.95783  Biso   1.000  H
  C945     1.0000 0.68777  0.60693  0.91893  Biso   1.000  C
  H836     1.0000 0.67447  0.61553  0.90653  Biso   1.000  H
  H837     1.0000 0.66237  0.59133  0.92993  Biso   1.000  H
  H838     1.0000 0.69877  0.58413  0.91443  Biso   1.000  H
  C946     1.0000 0.76887  0.67393  0.90963  Biso   1.000  C
  H839     1.0000 0.79777  0.70403  0.91463  Biso   1.000  H
  H840     1.0000 0.75447  0.68133  0.89723  Biso   1.000  H
  H841     1.0000 0.77837  0.64983  0.90543  Biso   1.000  H
  O251     1.0000 0.61517  0.80783  0.96522  Biso   1.000  O
  C947     1.0000 0.44767  0.74723  0.01863  Biso   1.000  C
  C948     1.0000 0.45807  0.78833  0.03373  Biso   1.000  C
  H842     1.0000 0.48807  0.79713  0.04183  Biso   1.000  H
  H843     1.0000 0.43057  0.77793  0.04363  Biso   1.000  H
  H844     1.0000 0.46267  0.81693  0.02553  Biso   1.000  H
  C949     1.0000 0.44107  0.70203  0.03183  Biso   1.000  C
  H845     1.0000 0.43427  0.67503  0.02203  Biso   1.000  H
  H846     1.0000 0.41377  0.69173  0.04183  Biso   1.000  H
  H847     1.0000 0.47127  0.71123  0.03983  Biso   1.000  H
  C950     1.0000 0.40107  0.73233  0.00553  Biso   1.000  C
  H848     1.0000 0.39507  0.70543  0.99583  Biso   1.000  H
  H849     1.0000 0.40507  0.76043  0.99713  Biso   1.000  H
  H850     1.0000 0.37307  0.72153  0.01533  Biso   1.000  H
  O252     1.0000 0.68197  0.88163  0.94439  Biso   1.000  O
  C951     1.0000 0.73357  0.07903  0.92653  Biso   1.000  C
  C952     1.0000 0.75457  0.11503  0.94433  Biso   1.000  C
  H851     1.0000 0.78027  0.11153  0.95153  Biso   1.000  H
  H852     1.0000 0.72867  0.10913  0.95463  Biso   1.000  H
  H853     1.0000 0.76867  0.14833  0.93853  Biso   1.000  H
  C953     1.0000 0.77397  0.09673  0.90913  Biso   1.000  C
  H854     1.0000 0.76187  0.07403  0.89693  Biso   1.000  H
  H855     1.0000 0.80327  0.09773  0.91503  Biso   1.000  H
  H856     1.0000 0.78227  0.12963  0.90423  Biso   1.000  H
  C954     1.0000 0.69377  0.08453  0.91543  Biso   1.000  C
  H857     1.0000 0.67987  0.06073  0.90373  Biso   1.000  H
  H858     1.0000 0.70787  0.11783  0.90963  Biso   1.000  H
  H859     1.0000 0.66797  0.07863  0.92573  Biso   1.000  H
  C955     1.0000 0.43377  0.71643  0.81576  Biso   1.000  C
  O253     1.0000 0.42176  0.67522  0.80864  Biso   1.000  O
  O254     1.0000 0.42176  0.74622  0.80873  Biso   1.000  O
  C956     1.0000 0.79107  0.90013  0.03069  Biso   1.000  C
  C957     1.0000 0.83607  0.94413  0.02988  Biso   1.000  C
  H860     1.0000 0.84477  0.96293  0.01703  Biso   1.000  H
  C958     1.0000 0.86817  0.96133  0.04688  Biso   1.000  C
  H861     1.0000 0.89837  0.99123  0.04553  Biso   1.000  H
  C959     1.0000 0.85657  0.93513  0.06601  Biso   1.000  C
  C960     1.0000 0.81127  0.89273  0.06770  Biso   1.000  C
  H862     1.0000 0.80187  0.87483  0.08083  Biso   1.000  H
  C961     1.0000 0.77977  0.87653  0.05046  Biso   1.000  C
  H863     1.0000 0.74877  0.84773  0.05213  Biso   1.000  H
  C962     1.0000 0.89197  0.95403  0.08433  Biso   1.000  C
  O255     1.0000 0.93267  0.99023  0.08110  Biso   1.000  O
  O256     1.0000 0.87847  0.93343  0.10213  Biso   1.000  O
  C963     1.0000 0.79257  0.89273  0.03029  Biso   1.000  C
  C964     1.0000 0.83767  0.89393  0.02926  Biso   1.000  C
  H864     1.0000 0.84667  0.88463  0.01633  Biso   1.000  H
  C965     1.0000 0.86947  0.90823  0.04643  Biso   1.000  C
  H865     1.0000 0.89997  0.90913  0.04513  Biso   1.000  H
  C966     1.0000 0.85637  0.92123  0.06575  Biso   1.000  C
  C967     1.0000 0.81097  0.91753  0.06751  Biso   1.000  C
  H866     1.0000 0.80077  0.92383  0.08093  Biso   1.000  H
  C968     1.0000 0.77997  0.90473  0.04987  Biso   1.000  C
  H867     1.0000 0.74957  0.90413  0.05123  Biso   1.000  H
  C969     1.0000 0.89257  0.93963  0.08383  Biso   1.000  C
  O257     1.0000 0.93327  0.94393  0.08045  Biso   1.000  O
  O258     1.0000 0.87917  0.94683  0.10183  Biso   1.000  O
  Co35     1.0000 0.35743  0.17865  0.30378  Biso   1.000  Co
  Co36     1.0000 0.29406  0.14696  0.26543  Biso   1.000  Co
  Zn21     1.0000 0.03370  0.06746  0.12274  Biso   1.000  Zn
  B35      1.0000 0.42423  0.21137  0.34317  Biso   1.000  B
  O259     1.0000 0.43523  0.17897  0.33142  Biso   1.000  O
  N103     1.0000 0.40853  0.15827  0.31322  Biso   1.000  N
  C970     1.0000 0.41763  0.12597  0.30571  Biso   1.000  C
  H868     1.0000 0.44133  0.12107  0.31297  Biso   1.000  H
  C971     1.0000 0.39443  0.09597  0.28697  Biso   1.000  C
  C972     1.0000 0.36013  0.10087  0.27390  Biso   1.000  C
  C973     1.0000 0.34213  0.07017  0.25527  Biso   1.000  C
  C974     1.0000 0.35533  0.03417  0.25152  Biso   1.000  C
  H869     1.0000 0.34303  0.01407  0.23917  Biso   1.000  H
  C975     1.0000 0.38563  0.02717  0.26534  Biso   1.000  C
  C976     1.0000 0.40453  0.05837  0.28266  Biso   1.000  C
  H870     1.0000 0.42563  0.05407  0.29217  Biso   1.000  H
  C977     1.0000 0.31003  0.07387  0.24007  Biso   1.000  C
  H871     1.0000 0.30393  0.05517  0.22727  Biso   1.000  H
  N104     1.0000 0.28913  0.09897  0.24147  Biso   1.000  N
  O260     1.0000 0.25883  0.09147  0.22421  Biso   1.000  O
  B36      1.0000 0.22873  0.11487  0.22546  Biso   1.000  B
  O261     1.0000 0.37203  0.18477  0.35128  Biso   1.000  O
  N105     1.0000 0.33673  0.16717  0.33586  Biso   1.000  N
  C978     1.0000 0.29413  0.14557  0.34427  Biso   1.000  C
  H872     1.0000 0.29333  0.14357  0.35947  Biso   1.000  H
  C979     1.0000 0.24713  0.12387  0.33373  Biso   1.000  C
  C980     1.0000 0.24333  0.12217  0.31082  Biso   1.000  C
  C981     1.0000 0.19553  0.10197  0.30159  Biso   1.000  C
  C982     1.0000 0.15503  0.08917  0.31533  Biso   1.000  C
  H873     1.0000 0.12353  0.07707  0.30907  Biso   1.000  H
  C983     1.0000 0.15883  0.09327  0.33748  Biso   1.000  C
  C984     1.0000 0.20563  0.11057  0.34646  Biso   1.000  C
  H874     1.0000 0.20923  0.11337  0.36157  Biso   1.000  H
  C985     1.0000 0.18643  0.09587  0.27870  Biso   1.000  C
  H875     1.0000 0.15313  0.08097  0.27437  Biso   1.000  H
  N106     1.0000 0.21773  0.10817  0.26377  Biso   1.000  N
  O262     1.0000 0.19483  0.09747  0.24397  Biso   1.000  O
  O263     1.0000 0.43483  0.25647  0.33125  Biso   1.000  O
  N107     1.0000 0.40813  0.25037  0.31362  Biso   1.000  N
  C986     1.0000 0.41633  0.29157  0.30608  Biso   1.000  C
  H876     1.0000 0.43903  0.32007  0.31377  Biso   1.000  H
  C987     1.0000 0.39463  0.29907  0.28713  Biso   1.000  C
  C988     1.0000 0.36083  0.25957  0.27366  Biso   1.000  C
  C989     1.0000 0.34113  0.27217  0.25574  Biso   1.000  C
  C990     1.0000 0.35423  0.32067  0.25239  Biso   1.000  C
  H877     1.0000 0.34003  0.32787  0.24047  Biso   1.000  H
  C991     1.0000 0.38693  0.35967  0.26521  Biso   1.000  C
  C992     1.0000 0.40633  0.34727  0.28244  Biso   1.000  C
  H878     1.0000 0.42883  0.37287  0.29157  Biso   1.000  H
  C993     1.0000 0.30703  0.23637  0.24057  Biso   1.000  C
  H879     1.0000 0.29783  0.24867  0.22857  Biso   1.000  H
  N108     1.0000 0.28823  0.19047  0.24178  Biso   1.000  N
  O264     1.0000 0.25763  0.16847  0.22444  Biso   1.000  O
  C994     1.0000 0.19573  0.09747  0.20437  Biso   1.000  C
  C995     1.0000 0.18163  0.05327  0.19451  Biso   1.000  C
  H880     1.0000 0.19313  0.03277  0.20017  Biso   1.000  H
  C996     1.0000 0.15123  0.03747  0.17671  Biso   1.000  C
  H881     1.0000 0.14153  0.00637  0.17057  Biso   1.000  H
  C997     1.0000 0.13503  0.06727  0.16797  Biso   1.000  C
  C998     1.0000 0.14993  0.11237  0.17703  Biso   1.000  C
  H882     1.0000 0.13953  0.13337  0.17097  Biso   1.000  H
  C999     1.0000 0.17983  0.12727  0.19498  Biso   1.000  C
  H883     1.0000 0.18973  0.15857  0.20107  Biso   1.000  H
  O265     1.0000 0.34813  0.13297  0.27756  Biso   1.000  O
  C1000    1.0000 0.39703  0.98577  0.26127  Biso   1.000  C
  C1001    1.0000 0.41693  0.97157  0.28027  Biso   1.000  C
  H884     1.0000 0.44483  0.00097  0.28637  Biso   1.000  H
  H885     1.0000 0.42763  0.94867  0.27557  Biso   1.000  H
  H886     1.0000 0.39123  0.95587  0.29117  Biso   1.000  H
  C1002    1.0000 0.35443  0.94027  0.25227  Biso   1.000  C
  H887     1.0000 0.34113  0.94887  0.23987  Biso   1.000  H
  H888     1.0000 0.32903  0.92467  0.26327  Biso   1.000  H
  H889     1.0000 0.36543  0.91747  0.24777  Biso   1.000  H
  C1003    1.0000 0.43553  0.00727  0.24297  Biso   1.000  C
  H890     1.0000 0.46443  0.03737  0.24797  Biso   1.000  H
  H891     1.0000 0.42113  0.01467  0.23057  Biso   1.000  H
  H892     1.0000 0.44503  0.98317  0.23877  Biso   1.000  H
  O266     1.0000 0.28183  0.14117  0.29856  Biso   1.000  O
  C1004    1.0000 0.11433  0.08057  0.35197  Biso   1.000  C
  C1005    1.0000 0.12473  0.12167  0.36707  Biso   1.000  C
  H893     1.0000 0.15473  0.13047  0.37517  Biso   1.000  H
  H894     1.0000 0.09723  0.11127  0.37697  Biso   1.000  H
  H895     1.0000 0.12933  0.15027  0.35887  Biso   1.000  H
  C1006    1.0000 0.10773  0.03537  0.36517  Biso   1.000  C
  H896     1.0000 0.10093  0.00837  0.35537  Biso   1.000  H
  H897     1.0000 0.08043  0.02507  0.37517  Biso   1.000  H
  H898     1.0000 0.13793  0.04457  0.37317  Biso   1.000  H
  C1007    1.0000 0.06773  0.06567  0.33887  Biso   1.000  C
  H899     1.0000 0.06173  0.03877  0.32917  Biso   1.000  H
  H900     1.0000 0.07173  0.09377  0.33047  Biso   1.000  H
  H901     1.0000 0.03973  0.05487  0.34867  Biso   1.000  H
  O267     1.0000 0.34863  0.21497  0.27773  Biso   1.000  O
  C1008    1.0000 0.40023  0.41237  0.25987  Biso   1.000  C
  C1009    1.0000 0.42123  0.44837  0.27767  Biso   1.000  C
  H902     1.0000 0.44693  0.44487  0.28487  Biso   1.000  H
  H903     1.0000 0.39533  0.44247  0.28797  Biso   1.000  H
  H904     1.0000 0.43533  0.48167  0.27187  Biso   1.000  H
  C1010    1.0000 0.44063  0.43007  0.24247  Biso   1.000  C
  H905     1.0000 0.42853  0.40737  0.23027  Biso   1.000  H
  H906     1.0000 0.46993  0.43107  0.24837  Biso   1.000  H
  H907     1.0000 0.44893  0.46297  0.23757  Biso   1.000  H
  C1011    1.0000 0.36043  0.41787  0.24877  Biso   1.000  C
  H908     1.0000 0.34653  0.39407  0.23707  Biso   1.000  H
  H909     1.0000 0.37453  0.45117  0.24297  Biso   1.000  H
  H910     1.0000 0.33463  0.41197  0.25907  Biso   1.000  H
  C1012    1.0000 0.10043  0.04977  0.14910  Biso   1.000  C
  O268     1.0000 0.08842  0.00856  0.14198  Biso   1.000  O
  O269     1.0000 0.08842  0.07956  0.14207  Biso   1.000  O
  C1013    1.0000 0.45773  0.23347  0.36403  Biso   1.000  C
  C1014    1.0000 0.50273  0.27747  0.36322  Biso   1.000  C
  H911     1.0000 0.51143  0.29627  0.35037  Biso   1.000  H
  C1015    1.0000 0.53483  0.29467  0.38022  Biso   1.000  C
  H912     1.0000 0.56503  0.32457  0.37887  Biso   1.000  H
  C1016    1.0000 0.52323  0.26847  0.39935  Biso   1.000  C
  C1017    1.0000 0.47793  0.22607  0.40104  Biso   1.000  C
  H913     1.0000 0.46853  0.20817  0.41417  Biso   1.000  H
  C1018    1.0000 0.44643  0.20987  0.38380  Biso   1.000  C
  H914     1.0000 0.41543  0.18107  0.38547  Biso   1.000  H
  C1019    1.0000 0.55863  0.28737  0.41767  Biso   1.000  C
  O270     1.0000 0.59933  0.32357  0.41444  Biso   1.000  O
  O271     1.0000 0.54513  0.26677  0.43547  Biso   1.000  O
  C1020    1.0000 0.45923  0.22607  0.36363  Biso   1.000  C
  C1021    1.0000 0.50433  0.22727  0.36260  Biso   1.000  C
  H915     1.0000 0.51333  0.21797  0.34967  Biso   1.000  H
  C1022    1.0000 0.53613  0.24157  0.37977  Biso   1.000  C
  H916     1.0000 0.56663  0.24247  0.37847  Biso   1.000  H
  C1023    1.0000 0.52303  0.25457  0.39909  Biso   1.000  C
  C1024    1.0000 0.47763  0.25087  0.40085  Biso   1.000  C
  H917     1.0000 0.46743  0.25717  0.41427  Biso   1.000  H
  C1025    1.0000 0.44663  0.23807  0.38321  Biso   1.000  C
  H918     1.0000 0.41623  0.23747  0.38457  Biso   1.000  H
  C1026    1.0000 0.55923  0.27297  0.41717  Biso   1.000  C
  O272     1.0000 0.59993  0.27727  0.41379  Biso   1.000  O
  O273     1.0000 0.54583  0.28017  0.43517  Biso   1.000  O
  Zn22     1.0000 0.33333  0.66667  0.74856  Biso   1.000  Zn
  Zn23     1.0000 0.00000  0.00000  0.08189  Biso   1.000  Zn
  Zn24     1.0000 0.66667  0.33333  0.41523  Biso   1.000  Zn
  O274     1.0000 0.66667  0.33333  0.44718  Biso   1.000  O
  O275     1.0000 0.33333  0.66667  0.78051  Biso   1.000  O
  O276     1.0000 0.00000  0.00000  0.11385  Biso   1.000  O
