data_image0
_cell_length_a       23.9063
_cell_length_b       27.4059
_cell_length_c       30.321
_cell_angle_alpha    90
_cell_angle_beta     90
_cell_angle_gamma    90

_symmetry_space_group_name_H-M    "P 1"
_symmetry_int_tables_number       1

loop_
  _symmetry_equiv_pos_as_xyz
  'x, y, z'

loop_
  _atom_site_label
  _atom_site_occupancy
  _atom_site_fract_x
  _atom_site_fract_y
  _atom_site_fract_z
  _atom_site_thermal_displace_type
  _atom_site_B_iso_or_equiv
  _atom_site_type_symbol
  Yb1      1.0000 0.25664  0.24127  0.63826  Biso   1.000  Yb
  O1       1.0000 0.25860  0.23340  0.71470  Biso   1.000  O
  O2       1.0000 0.38670  0.67220  0.30410  Biso   1.000  O
  O3       1.0000 0.26470  0.18540  0.58510  Biso   1.000  O
  O4       1.0000 0.18300  0.29740  0.65730  Biso   1.000  O
  O5       1.0000 0.19310  0.27650  0.58900  Biso   1.000  O
  O6       1.0000 0.81400  0.68850  0.65220  Biso   1.000  O
  O7       1.0000 0.30550  0.31620  0.65020  Biso   1.000  O
  O8       1.0000 0.88670  0.35610  0.30510  Biso   1.000  O
  C1       1.0000 0.85020  0.60870  0.64330  Biso   1.000  C
  C2       1.0000 0.16840  0.30130  0.61800  Biso   1.000  C
  C3       1.0000 0.41810  0.57550  0.44180  Biso   1.000  C
  C4       1.0000 0.38710  0.41050  0.53330  Biso   1.000  C
  H1       1.0000 0.39490  0.41320  0.50330  Biso   1.000  H
  C5       1.0000 0.88020  0.40560  0.36850  Biso   1.000  C
  C6       1.0000 0.48890  0.56220  0.55320  Biso   1.000  C
  C7       1.0000 0.39840  0.44900  0.56000  Biso   1.000  C
  O9       1.0000 0.18060  0.74190  0.70340  Biso   1.000  O
  C8       1.0000 0.89170  0.58220  0.57500  Biso   1.000  C
  H2       1.0000 0.90170  0.58880  0.54600  Biso   1.000  H
  C9       1.0000 0.26260  0.08690  0.56990  Biso   1.000  C
  H3       1.0000 0.27030  0.09840  0.59810  Biso   1.000  H
  C10      1.0000 0.46300  0.52080  0.56880  Biso   1.000  C
  H4       1.0000 0.47150  0.50970  0.59700  Biso   1.000  H
  C11      1.0000 0.92850  0.49780  0.56500  Biso   1.000  C
  C12      1.0000 0.97560  0.42330  0.51610  Biso   1.000  C
  H5       1.0000 0.99170  0.39820  0.49980  Biso   1.000  H
  C13      1.0000 0.21650  0.93590  0.54370  Biso   1.000  C
  H6       1.0000 0.19830  0.95020  0.56760  Biso   1.000  H
  C14      1.0000 0.25690  0.17350  0.54560  Biso   1.000  C
  C15      1.0000 0.24710  0.01950  0.52020  Biso   1.000  C
  C16      1.0000 0.86690  0.61820  0.60030  Biso   1.000  C
  H7       1.0000 0.86130  0.64900  0.58830  Biso   1.000  H
  O10      1.0000 0.39520  0.79250  0.30640  Biso   1.000  O
  C17      1.0000 0.90180  0.53690  0.59230  Biso   1.000  C
  C18      1.0000 0.25980  0.03780  0.56270  Biso   1.000  C
  H8       1.0000 0.26630  0.01620  0.58580  Biso   1.000  H
  C19      1.0000 0.37970  0.62050  0.36370  Biso   1.000  C
  C20      1.0000 0.32250  0.31780  0.61050  Biso   1.000  C
  C21      1.0000 0.91540  0.43890  0.45170  Biso   1.000  C
  C22      1.0000 0.24200  0.10250  0.49450  Biso   1.000  C
  H9       1.0000 0.23610  0.12440  0.47150  Biso   1.000  H
  C23      1.0000 0.47340  0.57950  0.51090  Biso   1.000  C
  H10      1.0000 0.49000  0.60770  0.50000  Biso   1.000  H
  C24      1.0000 0.21560  0.88590  0.53970  Biso   1.000  C
  C25      1.0000 0.91190  0.48950  0.52170  Biso   1.000  C
  H11      1.0000 0.88470  0.50940  0.50930  Biso   1.000  H
  O11      1.0000 0.65850  0.70840  0.65290  Biso   1.000  O
  C26      1.0000 0.24330  0.96590  0.51370  Biso   1.000  C
  C27      1.0000 0.12210  0.33500  0.60500  Biso   1.000  C
  C28      1.0000 0.03890  0.39830  0.57680  Biso   1.000  C
  C29      1.0000 0.97060  0.46780  0.58340  Biso   1.000  C
  H12      1.0000 0.98300  0.47360  0.61200  Biso   1.000  H
  C30      1.0000 0.40970  0.51250  0.50160  Biso   1.000  C
  H13      1.0000 0.38380  0.49560  0.48460  Biso   1.000  H
  O12      1.0000 0.09300  0.76340  0.69780  Biso   1.000  O
  C31      1.0000 0.42420  0.49480  0.54330  Biso   1.000  C
  O13      1.0000 0.31360  0.28240  0.58470  Biso   1.000  O
  C32      1.0000 0.08340  0.35250  0.63370  Biso   1.000  C
  H14      1.0000 0.08490  0.34320  0.66320  Biso   1.000  H
  O14      1.0000 0.25320  0.20200  0.51450  Biso   1.000  O
  C33      1.0000 0.34770  0.79370  0.31630  Biso   1.000  C
  C34      1.0000 0.53110  0.58830  0.57970  Biso   1.000  C
  C35      1.0000 0.99350  0.43010  0.55970  Biso   1.000  C
  C36      1.0000 0.19330  0.85510  0.57590  Biso   1.000  C
  C37      1.0000 0.88620  0.52770  0.63470  Biso   1.000  C
  H15      1.0000 0.89330  0.49720  0.64690  Biso   1.000  H
  O15      1.0000 0.31200  0.76990  0.29660  Biso   1.000  O
  C38      1.0000 0.23870  0.05250  0.48770  Biso   1.000  C
  H16      1.0000 0.23020  0.04120  0.45960  Biso   1.000  H
  C39      1.0000 0.24160  0.86530  0.50320  Biso   1.000  C
  H17      1.0000 0.24240  0.83150  0.50050  Biso   1.000  H
  C40      1.0000 0.35120  0.36250  0.59390  Biso   1.000  C
  O16      1.0000 0.79820  0.63410  0.70530  Biso   1.000  O
  C41      1.0000 0.36430  0.36730  0.54890  Biso   1.000  C
  H18      1.0000 0.35770  0.34150  0.52960  Biso   1.000  H
  C42      1.0000 0.81860  0.64600  0.66870  Biso   1.000  C
  C43      1.0000 0.14250  0.76520  0.68400  Biso   1.000  C
  C44      1.0000 0.35470  0.64650  0.32400  Biso   1.000  C
  C45      1.0000 0.26900  0.94490  0.47590  Biso   1.000  C
  H19      1.0000 0.28710  0.96470  0.45540  Biso   1.000  H
  C46      1.0000 0.25450  0.11880  0.53690  Biso   1.000  C
  C47      1.0000 0.43380  0.55530  0.48540  Biso   1.000  C
  C48      1.0000 0.34390  0.59310  0.38910  Biso   1.000  C
  H20      1.0000 0.30700  0.58890  0.38020  Biso   1.000  H
  O17      1.0000 0.30490  0.63570  0.31510  Biso   1.000  O
  C49      1.0000 0.85990  0.56350  0.66030  Biso   1.000  C
  H21      1.0000 0.84900  0.55630  0.68900  Biso   1.000  H
  C50      1.0000 0.15880  0.79750  0.64670  Biso   1.000  C
  C51      1.0000 0.38660  0.44370  0.60540  Biso   1.000  C
  H22      1.0000 0.39560  0.46870  0.62490  Biso   1.000  H
  C52      1.0000 0.58190  0.65980  0.60030  Biso   1.000  C
  H23      1.0000 0.58900  0.69270  0.59510  Biso   1.000  H
  C53      1.0000 0.93540  0.45170  0.49600  Biso   1.000  C
  C54      1.0000 0.43530  0.62280  0.37660  Biso   1.000  C
  H24      1.0000 0.46040  0.63980  0.35880  Biso   1.000  H
  C55      1.0000 0.36160  0.40130  0.62090  Biso   1.000  C
  H25      1.0000 0.35160  0.39930  0.65050  Biso   1.000  H
  O18      1.0000 0.68260  0.63890  0.68370  Biso   1.000  O
  C56      1.0000 0.14250  0.86160  0.59360  Biso   1.000  C
  H26      1.0000 0.12060  0.88760  0.58410  Biso   1.000  H
  C57      1.0000 0.61070  0.63750  0.63140  Biso   1.000  C
  C58      1.0000 0.12170  0.83040  0.62610  Biso   1.000  C
  H27      1.0000 0.08420  0.83120  0.63390  Biso   1.000  H
  C59      1.0000 0.56510  0.56170  0.60860  Biso   1.000  C
  H28      1.0000 0.56200  0.52790  0.61030  Biso   1.000  H
  C60      1.0000 0.54210  0.63700  0.57520  Biso   1.000  C
  H29      1.0000 0.52210  0.65510  0.55470  Biso   1.000  H
  C61      1.0000 0.26690  0.89420  0.46970  Biso   1.000  C
  C62      1.0000 0.36290  0.57140  0.42830  Biso   1.000  C
  H30      1.0000 0.33780  0.55390  0.44560  Biso   1.000  H
  C63      1.0000 0.45540  0.60060  0.41490  Biso   1.000  C
  H31      1.0000 0.49310  0.60260  0.42230  Biso   1.000  H
  C64      1.0000 0.04290  0.38300  0.62010  Biso   1.000  C
  H32      1.0000 0.01670  0.39410  0.64050  Biso   1.000  H
  O19      1.0000 0.81070  0.39830  0.31330  Biso   1.000  O
  C65      1.0000 0.85900  0.38590  0.32460  Biso   1.000  C
  C66      1.0000 0.32870  0.82280  0.35690  Biso   1.000  C
  C67      1.0000 0.92910  0.39440  0.38270  Biso   1.000  C
  H33      1.0000 0.95140  0.37380  0.36580  Biso   1.000  H
  C68      1.0000 0.87250  0.45490  0.43290  Biso   1.000  C
  H34      1.0000 0.85380  0.48080  0.44610  Biso   1.000  H
  C69      1.0000 0.95040  0.41240  0.42330  Biso   1.000  C
  H35      1.0000 0.98750  0.40660  0.43110  Biso   1.000  H
  C70      1.0000 0.85030  0.43610  0.39230  Biso   1.000  C
  H36      1.0000 0.81480  0.44550  0.38290  Biso   1.000  H
  C71      1.0000 0.60430  0.58710  0.63510  Biso   1.000  C
  H37      1.0000 0.62590  0.56990  0.65530  Biso   1.000  H
  C72      1.0000 0.36830  0.85410  0.38050  Biso   1.000  C
  H38      1.0000 0.40560  0.85710  0.37200  Biso   1.000  H
  C73      1.0000 0.25660  0.84250  0.40520  Biso   1.000  C
  H39      1.0000 0.21940  0.83860  0.41350  Biso   1.000  H
  C74      1.0000 0.29180  0.87120  0.43120  Biso   1.000  C
  C75      1.0000 0.27510  0.82020  0.36800  Biso   1.000  C
  H40      1.0000 0.25020  0.80310  0.35020  Biso   1.000  H
  C76      1.0000 0.65250  0.66400  0.65820  Biso   1.000  C
  C77      1.0000 0.22830  0.82230  0.59460  Biso   1.000  C
  H41      1.0000 0.26450  0.81900  0.58370  Biso   1.000  H
  C78      1.0000 0.21110  0.79310  0.63020  Biso   1.000  C
  H42      1.0000 0.23580  0.77060  0.64240  Biso   1.000  H
  C79      1.0000 0.34560  0.87980  0.41770  Biso   1.000  C
  H43      1.0000 0.36750  0.90240  0.43270  Biso   1.000  H
  C80      1.0000 0.11940  0.35100  0.56270  Biso   1.000  C
  H44      1.0000 0.14430  0.33900  0.54180  Biso   1.000  H
  C81      1.0000 0.08040  0.38470  0.55090  Biso   1.000  C
  H45      1.0000 0.08310  0.39890  0.52310  Biso   1.000  H
  H46      1.0000 0.24370  0.31990  0.77980  Biso   1.000  H
  H47      1.0000 0.21420  0.31650  0.73380  Biso   1.000  H
  H48      1.0000 0.27910  0.32400  0.73640  Biso   1.000  H
  H49      1.0000 0.26710  0.70950  0.23000  Biso   1.000  H
  H50      1.0000 0.27010  0.70050  0.27490  Biso   1.000  H
  H51      1.0000 0.48920  0.73090  0.27290  Biso   1.000  H
  H52      1.0000 0.26520  0.70760  0.22990  Biso   1.000  H
  H53      1.0000 0.22840  0.67840  0.76950  Biso   1.000  H
  H54      1.0000 0.22340  0.66840  0.72480  Biso   1.000  H
  H55      1.0000 0.26940  0.69910  0.27490  Biso   1.000  H
  H56      1.0000 0.48940  0.72830  0.27290  Biso   1.000  H
  Yb2      1.0000 0.74336  0.75873  0.13827  Biso   1.000  Yb
  O20      1.0000 0.74140  0.76660  0.21470  Biso   1.000  O
  O21      1.0000 0.61330  0.32780  0.80410  Biso   1.000  O
  O22      1.0000 0.73530  0.81460  0.08510  Biso   1.000  O
  O23      1.0000 0.81700  0.70260  0.15730  Biso   1.000  O
  O24      1.0000 0.80690  0.72350  0.08900  Biso   1.000  O
  O25      1.0000 0.18600  0.31150  0.15220  Biso   1.000  O
  O26      1.0000 0.69450  0.68380  0.15020  Biso   1.000  O
  O27      1.0000 0.11330  0.64390  0.80510  Biso   1.000  O
  C82      1.0000 0.14980  0.39130  0.14330  Biso   1.000  C
  C83      1.0000 0.83160  0.69870  0.11800  Biso   1.000  C
  C84      1.0000 0.58190  0.42450  0.94180  Biso   1.000  C
  C85      1.0000 0.61290  0.58950  0.03330  Biso   1.000  C
  H57      1.0000 0.60510  0.58680  0.00330  Biso   1.000  H
  C86      1.0000 0.11980  0.59440  0.86850  Biso   1.000  C
  C87      1.0000 0.51110  0.43780  0.05320  Biso   1.000  C
  C88      1.0000 0.60160  0.55100  0.06000  Biso   1.000  C
  O28      1.0000 0.81940  0.25810  0.20340  Biso   1.000  O
  C89      1.0000 0.10830  0.41780  0.07500  Biso   1.000  C
  H58      1.0000 0.09830  0.41120  0.04600  Biso   1.000  H
  C90      1.0000 0.73740  0.91310  0.06990  Biso   1.000  C
  H59      1.0000 0.72970  0.90160  0.09810  Biso   1.000  H
  C91      1.0000 0.53700  0.47920  0.06880  Biso   1.000  C
  H60      1.0000 0.52850  0.49030  0.09700  Biso   1.000  H
  C92      1.0000 0.07150  0.50220  0.06500  Biso   1.000  C
  C93      1.0000 0.02440  0.57670  0.01610  Biso   1.000  C
  H61      1.0000 0.00830  0.60180  0.99980  Biso   1.000  H
  C94      1.0000 0.78350  0.06410  0.04370  Biso   1.000  C
  H62      1.0000 0.80170  0.04980  0.06760  Biso   1.000  H
  C95      1.0000 0.74310  0.82650  0.04560  Biso   1.000  C
  C96      1.0000 0.75290  0.98050  0.02020  Biso   1.000  C
  C97      1.0000 0.13310  0.38180  0.10030  Biso   1.000  C
  H63      1.0000 0.13870  0.35100  0.08830  Biso   1.000  H
  O29      1.0000 0.60480  0.20750  0.80640  Biso   1.000  O
  C98      1.0000 0.09820  0.46310  0.09230  Biso   1.000  C
  C99      1.0000 0.74020  0.96220  0.06270  Biso   1.000  C
  H64      1.0000 0.73370  0.98380  0.08580  Biso   1.000  H
  C100     1.0000 0.62030  0.37950  0.86370  Biso   1.000  C
  C101     1.0000 0.67750  0.68220  0.11050  Biso   1.000  C
  C102     1.0000 0.08460  0.56110  0.95170  Biso   1.000  C
  C103     1.0000 0.75800  0.89750  0.99450  Biso   1.000  C
  H65      1.0000 0.76390  0.87560  0.97150  Biso   1.000  H
  C104     1.0000 0.52660  0.42050  0.01090  Biso   1.000  C
  H66      1.0000 0.51000  0.39230  0.00000  Biso   1.000  H
  C105     1.0000 0.78440  0.11410  0.03970  Biso   1.000  C
  C106     1.0000 0.08810  0.51050  0.02170  Biso   1.000  C
  H67      1.0000 0.11530  0.49060  0.00930  Biso   1.000  H
  O30      1.0000 0.34150  0.29160  0.15290  Biso   1.000  O
  C107     1.0000 0.75670  0.03410  0.01370  Biso   1.000  C
  C108     1.0000 0.87790  0.66500  0.10500  Biso   1.000  C
  C109     1.0000 0.96110  0.60170  0.07680  Biso   1.000  C
  C110     1.0000 0.02940  0.53220  0.08340  Biso   1.000  C
  H68      1.0000 0.01700  0.52640  0.11200  Biso   1.000  H
  C111     1.0000 0.59030  0.48750  0.00160  Biso   1.000  C
  H69      1.0000 0.61620  0.50440  0.98460  Biso   1.000  H
  O31      1.0000 0.90700  0.23660  0.19780  Biso   1.000  O
  C112     1.0000 0.57580  0.50520  0.04330  Biso   1.000  C
  O32      1.0000 0.68640  0.71760  0.08470  Biso   1.000  O
  C113     1.0000 0.91660  0.64750  0.13370  Biso   1.000  C
  H70      1.0000 0.91510  0.65680  0.16320  Biso   1.000  H
  O33      1.0000 0.74680  0.79800  0.01450  Biso   1.000  O
  C114     1.0000 0.65230  0.20630  0.81630  Biso   1.000  C
  C115     1.0000 0.46890  0.41170  0.07970  Biso   1.000  C
  C116     1.0000 0.00650  0.56990  0.05970  Biso   1.000  C
  C117     1.0000 0.80670  0.14490  0.07590  Biso   1.000  C
  C118     1.0000 0.11380  0.47230  0.13470  Biso   1.000  C
  H71      1.0000 0.10670  0.50280  0.14690  Biso   1.000  H
  O34      1.0000 0.68800  0.23010  0.79660  Biso   1.000  O
  C119     1.0000 0.76130  0.94750  0.98770  Biso   1.000  C
  H72      1.0000 0.76980  0.95880  0.95960  Biso   1.000  H
  C120     1.0000 0.75840  0.13470  0.00320  Biso   1.000  C
  H73      1.0000 0.75760  0.16850  0.00050  Biso   1.000  H
  C121     1.0000 0.64880  0.63750  0.09390  Biso   1.000  C
  O35      1.0000 0.20180  0.36590  0.20530  Biso   1.000  O
  C122     1.0000 0.63570  0.63270  0.04890  Biso   1.000  C
  H74      1.0000 0.64230  0.65850  0.02960  Biso   1.000  H
  C123     1.0000 0.18140  0.35400  0.16870  Biso   1.000  C
  C124     1.0000 0.85750  0.23480  0.18400  Biso   1.000  C
  C125     1.0000 0.64530  0.35350  0.82400  Biso   1.000  C
  C126     1.0000 0.73100  0.05510  0.97590  Biso   1.000  C
  H75      1.0000 0.71290  0.03530  0.95540  Biso   1.000  H
  C127     1.0000 0.74550  0.88120  0.03690  Biso   1.000  C
  C128     1.0000 0.56620  0.44470  0.98540  Biso   1.000  C
  C129     1.0000 0.65610  0.40690  0.88910  Biso   1.000  C
  H76      1.0000 0.69300  0.41110  0.88020  Biso   1.000  H
  O36      1.0000 0.69510  0.36430  0.81510  Biso   1.000  O
  C130     1.0000 0.14010  0.43650  0.16030  Biso   1.000  C
  H77      1.0000 0.15100  0.44370  0.18900  Biso   1.000  H
  C131     1.0000 0.84120  0.20250  0.14670  Biso   1.000  C
  C132     1.0000 0.61340  0.55630  0.10540  Biso   1.000  C
  H78      1.0000 0.60440  0.53130  0.12490  Biso   1.000  H
  C133     1.0000 0.41810  0.34020  0.10030  Biso   1.000  C
  H79      1.0000 0.41100  0.30730  0.09510  Biso   1.000  H
  C134     1.0000 0.06460  0.54830  0.99600  Biso   1.000  C
  C135     1.0000 0.56470  0.37720  0.87660  Biso   1.000  C
  H80      1.0000 0.53960  0.36020  0.85880  Biso   1.000  H
  C136     1.0000 0.63840  0.59870  0.12090  Biso   1.000  C
  H81      1.0000 0.64840  0.60070  0.15050  Biso   1.000  H
  O37      1.0000 0.31740  0.36110  0.18370  Biso   1.000  O
  C137     1.0000 0.85750  0.13840  0.09360  Biso   1.000  C
  H82      1.0000 0.87940  0.11240  0.08410  Biso   1.000  H
  C138     1.0000 0.38930  0.36250  0.13140  Biso   1.000  C
  C139     1.0000 0.87830  0.16960  0.12610  Biso   1.000  C
  H83      1.0000 0.91580  0.16880  0.13390  Biso   1.000  H
  C140     1.0000 0.43490  0.43830  0.10860  Biso   1.000  C
  H84      1.0000 0.43800  0.47210  0.11030  Biso   1.000  H
  C141     1.0000 0.45790  0.36300  0.07520  Biso   1.000  C
  H85      1.0000 0.47790  0.34490  0.05470  Biso   1.000  H
  C142     1.0000 0.73310  0.10580  0.96970  Biso   1.000  C
  C143     1.0000 0.63710  0.42860  0.92830  Biso   1.000  C
  H86      1.0000 0.66220  0.44610  0.94560  Biso   1.000  H
  C144     1.0000 0.54460  0.39940  0.91490  Biso   1.000  C
  H87      1.0000 0.50690  0.39740  0.92230  Biso   1.000  H
  C145     1.0000 0.95710  0.61700  0.12010  Biso   1.000  C
  H88      1.0000 0.98330  0.60590  0.14050  Biso   1.000  H
  O38      1.0000 0.18930  0.60170  0.81330  Biso   1.000  O
  C146     1.0000 0.14100  0.61410  0.82460  Biso   1.000  C
  C147     1.0000 0.67130  0.17720  0.85690  Biso   1.000  C
  C148     1.0000 0.07090  0.60560  0.88270  Biso   1.000  C
  H89      1.0000 0.04860  0.62620  0.86580  Biso   1.000  H
  C149     1.0000 0.12750  0.54510  0.93290  Biso   1.000  C
  H90      1.0000 0.14620  0.51920  0.94610  Biso   1.000  H
  C150     1.0000 0.04960  0.58760  0.92330  Biso   1.000  C
  H91      1.0000 0.01250  0.59340  0.93110  Biso   1.000  H
  C151     1.0000 0.14970  0.56390  0.89230  Biso   1.000  C
  H92      1.0000 0.18520  0.55450  0.88290  Biso   1.000  H
  C152     1.0000 0.39570  0.41290  0.13510  Biso   1.000  C
  H93      1.0000 0.37410  0.43010  0.15530  Biso   1.000  H
  C153     1.0000 0.63170  0.14590  0.88050  Biso   1.000  C
  H94      1.0000 0.59440  0.14290  0.87200  Biso   1.000  H
  C154     1.0000 0.74340  0.15750  0.90520  Biso   1.000  C
  H95      1.0000 0.78060  0.16140  0.91350  Biso   1.000  H
  C155     1.0000 0.70820  0.12880  0.93120  Biso   1.000  C
  C156     1.0000 0.72490  0.17980  0.86800  Biso   1.000  C
  H96      1.0000 0.74980  0.19690  0.85020  Biso   1.000  H
  C157     1.0000 0.34750  0.33600  0.15820  Biso   1.000  C
  C158     1.0000 0.77170  0.17770  0.09460  Biso   1.000  C
  H97      1.0000 0.73550  0.18100  0.08370  Biso   1.000  H
  C159     1.0000 0.78890  0.20690  0.13020  Biso   1.000  C
  H98      1.0000 0.76420  0.22940  0.14240  Biso   1.000  H
  C160     1.0000 0.65440  0.12020  0.91770  Biso   1.000  C
  H99      1.0000 0.63250  0.09760  0.93270  Biso   1.000  H
  C161     1.0000 0.88060  0.64900  0.06270  Biso   1.000  C
  H100     1.0000 0.85570  0.66100  0.04180  Biso   1.000  H
  C162     1.0000 0.91960  0.61530  0.05090  Biso   1.000  C
  H101     1.0000 0.91690  0.60110  0.02310  Biso   1.000  H
  H102     1.0000 0.75630  0.68010  0.27980  Biso   1.000  H
  H103     1.0000 0.78580  0.68350  0.23380  Biso   1.000  H
  H104     1.0000 0.72090  0.67600  0.23640  Biso   1.000  H
  H105     1.0000 0.73290  0.29050  0.73000  Biso   1.000  H
  H106     1.0000 0.72990  0.29950  0.77490  Biso   1.000  H
  H107     1.0000 0.51080  0.26910  0.77290  Biso   1.000  H
  H108     1.0000 0.73480  0.29240  0.72990  Biso   1.000  H
  H109     1.0000 0.77160  0.32160  0.26950  Biso   1.000  H
  H110     1.0000 0.77660  0.33160  0.22480  Biso   1.000  H
  H111     1.0000 0.73060  0.30090  0.77490  Biso   1.000  H
  H112     1.0000 0.51060  0.27170  0.77290  Biso   1.000  H
  Yb3      1.0000 0.74336  0.74127  0.86173  Biso   1.000  Yb
  O39      1.0000 0.74140  0.73340  0.78530  Biso   1.000  O
  O40      1.0000 0.61330  0.17220  0.19590  Biso   1.000  O
  O41      1.0000 0.73530  0.68540  0.91490  Biso   1.000  O
  O42      1.0000 0.81700  0.79740  0.84270  Biso   1.000  O
  O43      1.0000 0.80690  0.77650  0.91100  Biso   1.000  O
  O44      1.0000 0.18600  0.18850  0.84780  Biso   1.000  O
  O45      1.0000 0.69450  0.81620  0.84980  Biso   1.000  O
  O46      1.0000 0.11330  0.85610  0.19490  Biso   1.000  O
  C163     1.0000 0.14980  0.10870  0.85670  Biso   1.000  C
  C164     1.0000 0.83160  0.80130  0.88200  Biso   1.000  C
  C165     1.0000 0.58190  0.07550  0.05820  Biso   1.000  C
  C166     1.0000 0.61290  0.91050  0.96670  Biso   1.000  C
  H113     1.0000 0.60510  0.91320  0.99670  Biso   1.000  H
  C167     1.0000 0.11980  0.90560  0.13150  Biso   1.000  C
  C168     1.0000 0.51110  0.06220  0.94680  Biso   1.000  C
  C169     1.0000 0.60160  0.94900  0.94000  Biso   1.000  C
  O47      1.0000 0.81940  0.24190  0.79660  Biso   1.000  O
  C170     1.0000 0.10830  0.08220  0.92500  Biso   1.000  C
  H114     1.0000 0.09830  0.08880  0.95400  Biso   1.000  H
  C171     1.0000 0.73740  0.58690  0.93010  Biso   1.000  C
  H115     1.0000 0.72970  0.59840  0.90190  Biso   1.000  H
  C172     1.0000 0.53700  0.02080  0.93120  Biso   1.000  C
  H116     1.0000 0.52850  0.00970  0.90300  Biso   1.000  H
  C173     1.0000 0.07150  0.99780  0.93500  Biso   1.000  C
  C174     1.0000 0.02440  0.92330  0.98390  Biso   1.000  C
  H117     1.0000 0.00830  0.89820  0.00020  Biso   1.000  H
  C175     1.0000 0.78350  0.43590  0.95630  Biso   1.000  C
  H118     1.0000 0.80170  0.45020  0.93240  Biso   1.000  H
  C176     1.0000 0.74310  0.67350  0.95440  Biso   1.000  C
  C177     1.0000 0.75290  0.51950  0.97980  Biso   1.000  C
  C178     1.0000 0.13310  0.11820  0.89970  Biso   1.000  C
  H119     1.0000 0.13870  0.14900  0.91170  Biso   1.000  H
  O48      1.0000 0.60480  0.29250  0.19360  Biso   1.000  O
  C179     1.0000 0.09820  0.03690  0.90770  Biso   1.000  C
  C180     1.0000 0.74020  0.53780  0.93730  Biso   1.000  C
  H120     1.0000 0.73370  0.51620  0.91420  Biso   1.000  H
  C181     1.0000 0.62030  0.12050  0.13630  Biso   1.000  C
  C182     1.0000 0.67750  0.81780  0.88950  Biso   1.000  C
  C183     1.0000 0.08460  0.93890  0.04830  Biso   1.000  C
  C184     1.0000 0.75800  0.60250  0.00550  Biso   1.000  C
  H121     1.0000 0.76390  0.62440  0.02850  Biso   1.000  H
  C185     1.0000 0.52660  0.07950  0.98910  Biso   1.000  C
  H122     1.0000 0.51000  0.10770  0.00000  Biso   1.000  H
  C186     1.0000 0.78440  0.38590  0.96030  Biso   1.000  C
  C187     1.0000 0.08810  0.98950  0.97830  Biso   1.000  C
  H123     1.0000 0.11530  0.00940  0.99070  Biso   1.000  H
  O49      1.0000 0.34150  0.20840  0.84710  Biso   1.000  O
  C188     1.0000 0.75670  0.46590  0.98630  Biso   1.000  C
  C189     1.0000 0.87790  0.83500  0.89500  Biso   1.000  C
  C190     1.0000 0.96110  0.89830  0.92320  Biso   1.000  C
  C191     1.0000 0.02940  0.96780  0.91660  Biso   1.000  C
  H124     1.0000 0.01700  0.97360  0.88800  Biso   1.000  H
  C192     1.0000 0.59030  0.01250  0.99840  Biso   1.000  C
  H125     1.0000 0.61620  0.99560  0.01540  Biso   1.000  H
  O50      1.0000 0.90700  0.26340  0.80220  Biso   1.000  O
  C193     1.0000 0.57580  0.99480  0.95670  Biso   1.000  C
  O51      1.0000 0.68640  0.78240  0.91530  Biso   1.000  O
  C194     1.0000 0.91660  0.85250  0.86630  Biso   1.000  C
  H126     1.0000 0.91510  0.84320  0.83680  Biso   1.000  H
  O52      1.0000 0.74680  0.70200  0.98550  Biso   1.000  O
  C195     1.0000 0.65230  0.29370  0.18370  Biso   1.000  C
  C196     1.0000 0.46890  0.08830  0.92030  Biso   1.000  C
  C197     1.0000 0.00650  0.93010  0.94030  Biso   1.000  C
  C198     1.0000 0.80670  0.35510  0.92410  Biso   1.000  C
  C199     1.0000 0.11380  0.02770  0.86530  Biso   1.000  C
  H127     1.0000 0.10670  0.99720  0.85310  Biso   1.000  H
  O53      1.0000 0.68800  0.26990  0.20340  Biso   1.000  O
  C200     1.0000 0.76130  0.55250  0.01230  Biso   1.000  C
  H128     1.0000 0.76980  0.54120  0.04040  Biso   1.000  H
  C201     1.0000 0.75840  0.36530  0.99680  Biso   1.000  C
  H129     1.0000 0.75760  0.33150  0.99950  Biso   1.000  H
  C202     1.0000 0.64880  0.86250  0.90610  Biso   1.000  C
  O54      1.0000 0.20180  0.13410  0.79470  Biso   1.000  O
  C203     1.0000 0.63570  0.86730  0.95110  Biso   1.000  C
  H130     1.0000 0.64230  0.84150  0.97040  Biso   1.000  H
  C204     1.0000 0.18140  0.14600  0.83130  Biso   1.000  C
  C205     1.0000 0.85750  0.26520  0.81600  Biso   1.000  C
  C206     1.0000 0.64530  0.14650  0.17600  Biso   1.000  C
  C207     1.0000 0.73100  0.44490  0.02410  Biso   1.000  C
  H131     1.0000 0.71290  0.46470  0.04460  Biso   1.000  H
  C208     1.0000 0.74550  0.61880  0.96310  Biso   1.000  C
  C209     1.0000 0.56620  0.05530  0.01460  Biso   1.000  C
  C210     1.0000 0.65610  0.09310  0.11090  Biso   1.000  C
  H132     1.0000 0.69300  0.08890  0.11980  Biso   1.000  H
  O55      1.0000 0.69510  0.13570  0.18490  Biso   1.000  O
  C211     1.0000 0.14010  0.06350  0.83970  Biso   1.000  C
  H133     1.0000 0.15100  0.05630  0.81100  Biso   1.000  H
  C212     1.0000 0.84120  0.29750  0.85330  Biso   1.000  C
  C213     1.0000 0.61340  0.94370  0.89460  Biso   1.000  C
  H134     1.0000 0.60440  0.96870  0.87510  Biso   1.000  H
  C214     1.0000 0.41810  0.15980  0.89970  Biso   1.000  C
  H135     1.0000 0.41100  0.19270  0.90490  Biso   1.000  H
  C215     1.0000 0.06460  0.95170  0.00400  Biso   1.000  C
  C216     1.0000 0.56470  0.12280  0.12340  Biso   1.000  C
  H136     1.0000 0.53960  0.13980  0.14120  Biso   1.000  H
  C217     1.0000 0.63840  0.90130  0.87910  Biso   1.000  C
  H137     1.0000 0.64840  0.89930  0.84950  Biso   1.000  H
  O56      1.0000 0.31740  0.13890  0.81630  Biso   1.000  O
  C218     1.0000 0.85750  0.36160  0.90640  Biso   1.000  C
  H138     1.0000 0.87940  0.38760  0.91590  Biso   1.000  H
  C219     1.0000 0.38930  0.13750  0.86860  Biso   1.000  C
  C220     1.0000 0.87830  0.33040  0.87390  Biso   1.000  C
  H139     1.0000 0.91580  0.33120  0.86610  Biso   1.000  H
  C221     1.0000 0.43490  0.06170  0.89140  Biso   1.000  C
  H140     1.0000 0.43800  0.02790  0.88970  Biso   1.000  H
  C222     1.0000 0.45790  0.13700  0.92480  Biso   1.000  C
  H141     1.0000 0.47790  0.15510  0.94530  Biso   1.000  H
  C223     1.0000 0.73310  0.39420  0.03030  Biso   1.000  C
  C224     1.0000 0.63710  0.07140  0.07170  Biso   1.000  C
  H142     1.0000 0.66220  0.05390  0.05440  Biso   1.000  H
  C225     1.0000 0.54460  0.10060  0.08510  Biso   1.000  C
  H143     1.0000 0.50690  0.10260  0.07770  Biso   1.000  H
  C226     1.0000 0.95710  0.88300  0.87990  Biso   1.000  C
  H144     1.0000 0.98330  0.89410  0.85950  Biso   1.000  H
  O57      1.0000 0.18930  0.89830  0.18670  Biso   1.000  O
  C227     1.0000 0.14100  0.88590  0.17540  Biso   1.000  C
  C228     1.0000 0.67130  0.32280  0.14310  Biso   1.000  C
  C229     1.0000 0.07090  0.89440  0.11730  Biso   1.000  C
  H145     1.0000 0.04860  0.87380  0.13420  Biso   1.000  H
  C230     1.0000 0.12750  0.95490  0.06710  Biso   1.000  C
  H146     1.0000 0.14620  0.98080  0.05390  Biso   1.000  H
  C231     1.0000 0.04960  0.91240  0.07670  Biso   1.000  C
  H147     1.0000 0.01250  0.90660  0.06890  Biso   1.000  H
  C232     1.0000 0.14970  0.93610  0.10770  Biso   1.000  C
  H148     1.0000 0.18520  0.94550  0.11710  Biso   1.000  H
  C233     1.0000 0.39570  0.08710  0.86490  Biso   1.000  C
  H149     1.0000 0.37410  0.06990  0.84470  Biso   1.000  H
  C234     1.0000 0.63170  0.35410  0.11950  Biso   1.000  C
  H150     1.0000 0.59440  0.35710  0.12800  Biso   1.000  H
  C235     1.0000 0.74340  0.34250  0.09480  Biso   1.000  C
  H151     1.0000 0.78060  0.33860  0.08650  Biso   1.000  H
  C236     1.0000 0.70820  0.37120  0.06880  Biso   1.000  C
  C237     1.0000 0.72490  0.32020  0.13200  Biso   1.000  C
  H152     1.0000 0.74980  0.30310  0.14980  Biso   1.000  H
  C238     1.0000 0.34750  0.16400  0.84180  Biso   1.000  C
  C239     1.0000 0.77170  0.32230  0.90540  Biso   1.000  C
  H153     1.0000 0.73550  0.31900  0.91630  Biso   1.000  H
  C240     1.0000 0.78890  0.29310  0.86980  Biso   1.000  C
  H154     1.0000 0.76420  0.27060  0.85760  Biso   1.000  H
  C241     1.0000 0.65440  0.37980  0.08230  Biso   1.000  C
  H155     1.0000 0.63250  0.40240  0.06730  Biso   1.000  H
  C242     1.0000 0.88060  0.85100  0.93730  Biso   1.000  C
  H156     1.0000 0.85570  0.83900  0.95820  Biso   1.000  H
  C243     1.0000 0.91960  0.88470  0.94910  Biso   1.000  C
  H157     1.0000 0.91690  0.89890  0.97690  Biso   1.000  H
  H158     1.0000 0.75630  0.81990  0.72020  Biso   1.000  H
  H159     1.0000 0.78580  0.81650  0.76620  Biso   1.000  H
  H160     1.0000 0.72090  0.82400  0.76360  Biso   1.000  H
  H161     1.0000 0.73290  0.20950  0.27000  Biso   1.000  H
  H162     1.0000 0.72990  0.20050  0.22510  Biso   1.000  H
  H163     1.0000 0.51080  0.23090  0.22710  Biso   1.000  H
  H164     1.0000 0.73480  0.20760  0.27010  Biso   1.000  H
  H165     1.0000 0.77160  0.17840  0.73050  Biso   1.000  H
  H166     1.0000 0.77660  0.16840  0.77520  Biso   1.000  H
  H167     1.0000 0.73060  0.19910  0.22510  Biso   1.000  H
  H168     1.0000 0.51060  0.22830  0.22710  Biso   1.000  H
  Yb4      1.0000 0.25664  0.25873  0.36173  Biso   1.000  Yb
  O58      1.0000 0.25860  0.26660  0.28530  Biso   1.000  O
  O59      1.0000 0.38670  0.82780  0.69590  Biso   1.000  O
  O60      1.0000 0.26470  0.31460  0.41490  Biso   1.000  O
  O61      1.0000 0.18300  0.20260  0.34270  Biso   1.000  O
  O62      1.0000 0.19310  0.22350  0.41100  Biso   1.000  O
  O63      1.0000 0.81400  0.81150  0.34780  Biso   1.000  O
  O64      1.0000 0.30550  0.18380  0.34980  Biso   1.000  O
  O65      1.0000 0.88670  0.14390  0.69490  Biso   1.000  O
  C244     1.0000 0.85020  0.89130  0.35670  Biso   1.000  C
  C245     1.0000 0.16840  0.19870  0.38200  Biso   1.000  C
  C246     1.0000 0.41810  0.92450  0.55820  Biso   1.000  C
  C247     1.0000 0.38710  0.08950  0.46670  Biso   1.000  C
  H169     1.0000 0.39490  0.08680  0.49670  Biso   1.000  H
  C248     1.0000 0.88020  0.09440  0.63150  Biso   1.000  C
  C249     1.0000 0.48890  0.93780  0.44680  Biso   1.000  C
  C250     1.0000 0.39840  0.05100  0.44000  Biso   1.000  C
  O66      1.0000 0.18060  0.75810  0.29660  Biso   1.000  O
  C251     1.0000 0.89170  0.91780  0.42500  Biso   1.000  C
  H170     1.0000 0.90170  0.91120  0.45400  Biso   1.000  H
  C252     1.0000 0.26260  0.41310  0.43010  Biso   1.000  C
  H171     1.0000 0.27030  0.40160  0.40190  Biso   1.000  H
  C253     1.0000 0.46300  0.97920  0.43120  Biso   1.000  C
  H172     1.0000 0.47150  0.99030  0.40300  Biso   1.000  H
  C254     1.0000 0.92850  0.00220  0.43500  Biso   1.000  C
  C255     1.0000 0.97560  0.07670  0.48390  Biso   1.000  C
  H173     1.0000 0.99170  0.10180  0.50020  Biso   1.000  H
  C256     1.0000 0.21650  0.56410  0.45630  Biso   1.000  C
  H174     1.0000 0.19830  0.54980  0.43240  Biso   1.000  H
  C257     1.0000 0.25690  0.32650  0.45440  Biso   1.000  C
  C258     1.0000 0.24710  0.48050  0.47980  Biso   1.000  C
  C259     1.0000 0.86690  0.88180  0.39970  Biso   1.000  C
  H175     1.0000 0.86130  0.85100  0.41170  Biso   1.000  H
  O67      1.0000 0.39520  0.70750  0.69360  Biso   1.000  O
  C260     1.0000 0.90180  0.96310  0.40770  Biso   1.000  C
  C261     1.0000 0.25980  0.46220  0.43730  Biso   1.000  C
  H176     1.0000 0.26630  0.48380  0.41420  Biso   1.000  H
  C262     1.0000 0.37970  0.87950  0.63630  Biso   1.000  C
  C263     1.0000 0.32250  0.18220  0.38950  Biso   1.000  C
  C264     1.0000 0.91540  0.06110  0.54830  Biso   1.000  C
  C265     1.0000 0.24200  0.39750  0.50550  Biso   1.000  C
  H177     1.0000 0.23610  0.37560  0.52850  Biso   1.000  H
  C266     1.0000 0.47340  0.92050  0.48910  Biso   1.000  C
  H178     1.0000 0.49000  0.89230  0.50000  Biso   1.000  H
  C267     1.0000 0.21560  0.61410  0.46030  Biso   1.000  C
  C268     1.0000 0.91190  0.01050  0.47830  Biso   1.000  C
  H179     1.0000 0.88470  0.99060  0.49070  Biso   1.000  H
  O68      1.0000 0.65850  0.79160  0.34710  Biso   1.000  O
  C269     1.0000 0.24330  0.53410  0.48630  Biso   1.000  C
  C270     1.0000 0.12210  0.16500  0.39500  Biso   1.000  C
  C271     1.0000 0.03890  0.10170  0.42320  Biso   1.000  C
  C272     1.0000 0.97060  0.03220  0.41660  Biso   1.000  C
  H180     1.0000 0.98300  0.02640  0.38800  Biso   1.000  H
  C273     1.0000 0.40970  0.98750  0.49840  Biso   1.000  C
  H181     1.0000 0.38380  0.00440  0.51540  Biso   1.000  H
  O69      1.0000 0.09300  0.73660  0.30220  Biso   1.000  O
  C274     1.0000 0.42420  0.00520  0.45670  Biso   1.000  C
  O70      1.0000 0.31360  0.21760  0.41530  Biso   1.000  O
  C275     1.0000 0.08340  0.14750  0.36630  Biso   1.000  C
  H182     1.0000 0.08490  0.15680  0.33680  Biso   1.000  H
  O71      1.0000 0.25320  0.29800  0.48550  Biso   1.000  O
  C276     1.0000 0.34770  0.70630  0.68370  Biso   1.000  C
  C277     1.0000 0.53110  0.91170  0.42030  Biso   1.000  C
  C278     1.0000 0.99350  0.06990  0.44030  Biso   1.000  C
  C279     1.0000 0.19330  0.64490  0.42410  Biso   1.000  C
  C280     1.0000 0.88620  0.97230  0.36530  Biso   1.000  C
  H183     1.0000 0.89330  0.00280  0.35310  Biso   1.000  H
  O72      1.0000 0.31200  0.73010  0.70340  Biso   1.000  O
  C281     1.0000 0.23870  0.44750  0.51230  Biso   1.000  C
  H184     1.0000 0.23020  0.45880  0.54040  Biso   1.000  H
  C282     1.0000 0.24160  0.63470  0.49680  Biso   1.000  C
  H185     1.0000 0.24240  0.66850  0.49950  Biso   1.000  H
  C283     1.0000 0.35120  0.13750  0.40610  Biso   1.000  C
  O73      1.0000 0.79820  0.86590  0.29470  Biso   1.000  O
  C284     1.0000 0.36430  0.13270  0.45110  Biso   1.000  C
  H186     1.0000 0.35770  0.15850  0.47040  Biso   1.000  H
  C285     1.0000 0.81860  0.85400  0.33130  Biso   1.000  C
  C286     1.0000 0.14250  0.73480  0.31600  Biso   1.000  C
  C287     1.0000 0.35470  0.85350  0.67600  Biso   1.000  C
  C288     1.0000 0.26900  0.55510  0.52410  Biso   1.000  C
  H187     1.0000 0.28710  0.53530  0.54460  Biso   1.000  H
  C289     1.0000 0.25450  0.38120  0.46310  Biso   1.000  C
  C290     1.0000 0.43380  0.94470  0.51460  Biso   1.000  C
  C291     1.0000 0.34390  0.90690  0.61090  Biso   1.000  C
  H188     1.0000 0.30700  0.91110  0.61980  Biso   1.000  H
  O74      1.0000 0.30490  0.86430  0.68490  Biso   1.000  O
  C292     1.0000 0.85990  0.93650  0.33970  Biso   1.000  C
  H189     1.0000 0.84900  0.94370  0.31100  Biso   1.000  H
  C293     1.0000 0.15880  0.70250  0.35330  Biso   1.000  C
  C294     1.0000 0.38660  0.05630  0.39460  Biso   1.000  C
  H190     1.0000 0.39560  0.03130  0.37510  Biso   1.000  H
  C295     1.0000 0.58190  0.84020  0.39970  Biso   1.000  C
  H191     1.0000 0.58900  0.80730  0.40490  Biso   1.000  H
  C296     1.0000 0.93540  0.04830  0.50400  Biso   1.000  C
  C297     1.0000 0.43530  0.87720  0.62340  Biso   1.000  C
  H192     1.0000 0.46040  0.86020  0.64120  Biso   1.000  H
  C298     1.0000 0.36160  0.09870  0.37910  Biso   1.000  C
  H193     1.0000 0.35160  0.10070  0.34950  Biso   1.000  H
  O75      1.0000 0.68260  0.86110  0.31630  Biso   1.000  O
  C299     1.0000 0.14250  0.63840  0.40640  Biso   1.000  C
  H194     1.0000 0.12060  0.61240  0.41590  Biso   1.000  H
  C300     1.0000 0.61070  0.86250  0.36860  Biso   1.000  C
  C301     1.0000 0.12170  0.66960  0.37390  Biso   1.000  C
  H195     1.0000 0.08420  0.66880  0.36610  Biso   1.000  H
  C302     1.0000 0.56510  0.93830  0.39140  Biso   1.000  C
  H196     1.0000 0.56200  0.97210  0.38970  Biso   1.000  H
  C303     1.0000 0.54210  0.86300  0.42480  Biso   1.000  C
  H197     1.0000 0.52210  0.84490  0.44530  Biso   1.000  H
  C304     1.0000 0.26690  0.60580  0.53030  Biso   1.000  C
  C305     1.0000 0.36290  0.92860  0.57170  Biso   1.000  C
  H198     1.0000 0.33780  0.94610  0.55440  Biso   1.000  H
  C306     1.0000 0.45540  0.89940  0.58510  Biso   1.000  C
  H199     1.0000 0.49310  0.89740  0.57770  Biso   1.000  H
  C307     1.0000 0.04290  0.11700  0.37990  Biso   1.000  C
  H200     1.0000 0.01670  0.10590  0.35950  Biso   1.000  H
  O76      1.0000 0.81070  0.10170  0.68670  Biso   1.000  O
  C308     1.0000 0.85900  0.11410  0.67540  Biso   1.000  C
  C309     1.0000 0.32870  0.67720  0.64310  Biso   1.000  C
  C310     1.0000 0.92910  0.10560  0.61730  Biso   1.000  C
  H201     1.0000 0.95140  0.12620  0.63420  Biso   1.000  H
  C311     1.0000 0.87250  0.04510  0.56710  Biso   1.000  C
  H202     1.0000 0.85380  0.01920  0.55390  Biso   1.000  H
  C312     1.0000 0.95040  0.08760  0.57670  Biso   1.000  C
  H203     1.0000 0.98750  0.09340  0.56890  Biso   1.000  H
  C313     1.0000 0.85030  0.06390  0.60770  Biso   1.000  C
  H204     1.0000 0.81480  0.05450  0.61710  Biso   1.000  H
  C314     1.0000 0.60430  0.91290  0.36490  Biso   1.000  C
  H205     1.0000 0.62590  0.93010  0.34470  Biso   1.000  H
  C315     1.0000 0.36830  0.64590  0.61950  Biso   1.000  C
  H206     1.0000 0.40560  0.64290  0.62800  Biso   1.000  H
  C316     1.0000 0.25660  0.65750  0.59480  Biso   1.000  C
  H207     1.0000 0.21940  0.66140  0.58650  Biso   1.000  H
  C317     1.0000 0.29180  0.62880  0.56880  Biso   1.000  C
  C318     1.0000 0.27510  0.67980  0.63200  Biso   1.000  C
  H208     1.0000 0.25020  0.69690  0.64980  Biso   1.000  H
  C319     1.0000 0.65250  0.83600  0.34180  Biso   1.000  C
  C320     1.0000 0.22830  0.67770  0.40540  Biso   1.000  C
  H209     1.0000 0.26450  0.68100  0.41630  Biso   1.000  H
  C321     1.0000 0.21110  0.70690  0.36980  Biso   1.000  C
  H210     1.0000 0.23580  0.72940  0.35760  Biso   1.000  H
  C322     1.0000 0.34560  0.62020  0.58230  Biso   1.000  C
  H211     1.0000 0.36750  0.59760  0.56730  Biso   1.000  H
  C323     1.0000 0.11940  0.14900  0.43730  Biso   1.000  C
  H212     1.0000 0.14430  0.16100  0.45820  Biso   1.000  H
  C324     1.0000 0.08040  0.11530  0.44910  Biso   1.000  C
  H213     1.0000 0.08310  0.10110  0.47690  Biso   1.000  H
  H214     1.0000 0.24370  0.18010  0.22020  Biso   1.000  H
  H215     1.0000 0.21420  0.18350  0.26620  Biso   1.000  H
  H216     1.0000 0.27910  0.17600  0.26360  Biso   1.000  H
  H217     1.0000 0.26710  0.79050  0.77000  Biso   1.000  H
  H218     1.0000 0.27010  0.79950  0.72510  Biso   1.000  H
  H219     1.0000 0.48920  0.76910  0.72710  Biso   1.000  H
  H220     1.0000 0.26520  0.79240  0.77010  Biso   1.000  H
  H221     1.0000 0.22840  0.82160  0.23050  Biso   1.000  H
  H222     1.0000 0.22340  0.83160  0.27520  Biso   1.000  H
  H223     1.0000 0.26940  0.80090  0.72510  Biso   1.000  H
  H224     1.0000 0.48940  0.77170  0.72710  Biso   1.000  H
  Yb5      1.0000 0.74336  0.75873  0.36173  Biso   1.000  Yb
  O77      1.0000 0.74140  0.76660  0.28530  Biso   1.000  O
  O78      1.0000 0.61330  0.32780  0.69590  Biso   1.000  O
  O79      1.0000 0.73530  0.81460  0.41490  Biso   1.000  O
  O80      1.0000 0.81700  0.70260  0.34270  Biso   1.000  O
  O81      1.0000 0.80690  0.72350  0.41100  Biso   1.000  O
  O82      1.0000 0.18600  0.31150  0.34780  Biso   1.000  O
  O83      1.0000 0.69450  0.68380  0.34980  Biso   1.000  O
  O84      1.0000 0.11330  0.64390  0.69490  Biso   1.000  O
  C325     1.0000 0.14980  0.39130  0.35670  Biso   1.000  C
  C326     1.0000 0.83160  0.69870  0.38200  Biso   1.000  C
  C327     1.0000 0.58190  0.42450  0.55820  Biso   1.000  C
  C328     1.0000 0.61290  0.58950  0.46670  Biso   1.000  C
  H225     1.0000 0.60510  0.58680  0.49670  Biso   1.000  H
  C329     1.0000 0.11980  0.59440  0.63150  Biso   1.000  C
  C330     1.0000 0.51110  0.43780  0.44680  Biso   1.000  C
  C331     1.0000 0.60160  0.55100  0.44000  Biso   1.000  C
  O85      1.0000 0.81940  0.25810  0.29660  Biso   1.000  O
  C332     1.0000 0.10830  0.41780  0.42500  Biso   1.000  C
  H226     1.0000 0.09830  0.41120  0.45400  Biso   1.000  H
  C333     1.0000 0.73740  0.91310  0.43010  Biso   1.000  C
  H227     1.0000 0.72970  0.90160  0.40190  Biso   1.000  H
  C334     1.0000 0.53700  0.47920  0.43120  Biso   1.000  C
  H228     1.0000 0.52850  0.49030  0.40300  Biso   1.000  H
  C335     1.0000 0.07150  0.50220  0.43500  Biso   1.000  C
  C336     1.0000 0.02440  0.57670  0.48390  Biso   1.000  C
  H229     1.0000 0.00830  0.60180  0.50020  Biso   1.000  H
  C337     1.0000 0.78350  0.06410  0.45630  Biso   1.000  C
  H230     1.0000 0.80170  0.04980  0.43240  Biso   1.000  H
  C338     1.0000 0.74310  0.82650  0.45440  Biso   1.000  C
  C339     1.0000 0.75290  0.98050  0.47980  Biso   1.000  C
  C340     1.0000 0.13310  0.38180  0.39970  Biso   1.000  C
  H231     1.0000 0.13870  0.35100  0.41170  Biso   1.000  H
  O86      1.0000 0.60480  0.20750  0.69360  Biso   1.000  O
  C341     1.0000 0.09820  0.46310  0.40770  Biso   1.000  C
  C342     1.0000 0.74020  0.96220  0.43730  Biso   1.000  C
  H232     1.0000 0.73370  0.98380  0.41420  Biso   1.000  H
  C343     1.0000 0.62030  0.37950  0.63630  Biso   1.000  C
  C344     1.0000 0.67750  0.68220  0.38950  Biso   1.000  C
  C345     1.0000 0.08460  0.56110  0.54830  Biso   1.000  C
  C346     1.0000 0.75800  0.89750  0.50550  Biso   1.000  C
  H233     1.0000 0.76390  0.87560  0.52850  Biso   1.000  H
  C347     1.0000 0.52660  0.42050  0.48910  Biso   1.000  C
  H234     1.0000 0.51000  0.39230  0.50000  Biso   1.000  H
  C348     1.0000 0.78440  0.11410  0.46030  Biso   1.000  C
  C349     1.0000 0.08810  0.51050  0.47830  Biso   1.000  C
  H235     1.0000 0.11530  0.49060  0.49070  Biso   1.000  H
  O87      1.0000 0.34150  0.29160  0.34710  Biso   1.000  O
  C350     1.0000 0.75670  0.03410  0.48630  Biso   1.000  C
  C351     1.0000 0.87790  0.66500  0.39500  Biso   1.000  C
  C352     1.0000 0.96110  0.60170  0.42320  Biso   1.000  C
  C353     1.0000 0.02940  0.53220  0.41660  Biso   1.000  C
  H236     1.0000 0.01700  0.52640  0.38800  Biso   1.000  H
  C354     1.0000 0.59030  0.48750  0.49840  Biso   1.000  C
  H237     1.0000 0.61620  0.50440  0.51540  Biso   1.000  H
  O88      1.0000 0.90700  0.23660  0.30220  Biso   1.000  O
  C355     1.0000 0.57580  0.50520  0.45670  Biso   1.000  C
  O89      1.0000 0.68640  0.71760  0.41530  Biso   1.000  O
  C356     1.0000 0.91660  0.64750  0.36630  Biso   1.000  C
  H238     1.0000 0.91510  0.65680  0.33680  Biso   1.000  H
  O90      1.0000 0.74680  0.79800  0.48550  Biso   1.000  O
  C357     1.0000 0.65230  0.20630  0.68370  Biso   1.000  C
  C358     1.0000 0.46890  0.41170  0.42030  Biso   1.000  C
  C359     1.0000 0.00650  0.56990  0.44030  Biso   1.000  C
  C360     1.0000 0.80670  0.14490  0.42410  Biso   1.000  C
  C361     1.0000 0.11380  0.47230  0.36530  Biso   1.000  C
  H239     1.0000 0.10670  0.50280  0.35310  Biso   1.000  H
  O91      1.0000 0.68800  0.23010  0.70340  Biso   1.000  O
  C362     1.0000 0.76130  0.94750  0.51230  Biso   1.000  C
  H240     1.0000 0.76980  0.95880  0.54040  Biso   1.000  H
  C363     1.0000 0.75840  0.13470  0.49680  Biso   1.000  C
  H241     1.0000 0.75760  0.16850  0.49950  Biso   1.000  H
  C364     1.0000 0.64880  0.63750  0.40610  Biso   1.000  C
  O92      1.0000 0.20180  0.36590  0.29470  Biso   1.000  O
  C365     1.0000 0.63570  0.63270  0.45110  Biso   1.000  C
  H242     1.0000 0.64230  0.65850  0.47040  Biso   1.000  H
  C366     1.0000 0.18140  0.35400  0.33130  Biso   1.000  C
  C367     1.0000 0.85750  0.23480  0.31600  Biso   1.000  C
  C368     1.0000 0.64530  0.35350  0.67600  Biso   1.000  C
  C369     1.0000 0.73100  0.05510  0.52410  Biso   1.000  C
  H243     1.0000 0.71290  0.03530  0.54460  Biso   1.000  H
  C370     1.0000 0.74550  0.88120  0.46310  Biso   1.000  C
  C371     1.0000 0.56620  0.44470  0.51460  Biso   1.000  C
  C372     1.0000 0.65610  0.40690  0.61090  Biso   1.000  C
  H244     1.0000 0.69300  0.41110  0.61980  Biso   1.000  H
  O93      1.0000 0.69510  0.36430  0.68490  Biso   1.000  O
  C373     1.0000 0.14010  0.43650  0.33970  Biso   1.000  C
  H245     1.0000 0.15100  0.44370  0.31100  Biso   1.000  H
  C374     1.0000 0.84120  0.20250  0.35330  Biso   1.000  C
  C375     1.0000 0.61340  0.55630  0.39460  Biso   1.000  C
  H246     1.0000 0.60440  0.53130  0.37510  Biso   1.000  H
  C376     1.0000 0.41810  0.34020  0.39970  Biso   1.000  C
  H247     1.0000 0.41100  0.30730  0.40490  Biso   1.000  H
  C377     1.0000 0.06460  0.54830  0.50400  Biso   1.000  C
  C378     1.0000 0.56470  0.37720  0.62340  Biso   1.000  C
  H248     1.0000 0.53960  0.36020  0.64120  Biso   1.000  H
  C379     1.0000 0.63840  0.59870  0.37910  Biso   1.000  C
  H249     1.0000 0.64840  0.60070  0.34950  Biso   1.000  H
  O94      1.0000 0.31740  0.36110  0.31630  Biso   1.000  O
  C380     1.0000 0.85750  0.13840  0.40640  Biso   1.000  C
  H250     1.0000 0.87940  0.11240  0.41590  Biso   1.000  H
  C381     1.0000 0.38930  0.36250  0.36860  Biso   1.000  C
  C382     1.0000 0.87830  0.16960  0.37390  Biso   1.000  C
  H251     1.0000 0.91580  0.16880  0.36610  Biso   1.000  H
  C383     1.0000 0.43490  0.43830  0.39140  Biso   1.000  C
  H252     1.0000 0.43800  0.47210  0.38970  Biso   1.000  H
  C384     1.0000 0.45790  0.36300  0.42480  Biso   1.000  C
  H253     1.0000 0.47790  0.34490  0.44530  Biso   1.000  H
  C385     1.0000 0.73310  0.10580  0.53030  Biso   1.000  C
  C386     1.0000 0.63710  0.42860  0.57170  Biso   1.000  C
  H254     1.0000 0.66220  0.44610  0.55440  Biso   1.000  H
  C387     1.0000 0.54460  0.39940  0.58510  Biso   1.000  C
  H255     1.0000 0.50690  0.39740  0.57770  Biso   1.000  H
  C388     1.0000 0.95710  0.61700  0.37990  Biso   1.000  C
  H256     1.0000 0.98330  0.60590  0.35950  Biso   1.000  H
  O95      1.0000 0.18930  0.60170  0.68670  Biso   1.000  O
  C389     1.0000 0.14100  0.61410  0.67540  Biso   1.000  C
  C390     1.0000 0.67130  0.17720  0.64310  Biso   1.000  C
  C391     1.0000 0.07090  0.60560  0.61730  Biso   1.000  C
  H257     1.0000 0.04860  0.62620  0.63420  Biso   1.000  H
  C392     1.0000 0.12750  0.54510  0.56710  Biso   1.000  C
  H258     1.0000 0.14620  0.51920  0.55390  Biso   1.000  H
  C393     1.0000 0.04960  0.58760  0.57670  Biso   1.000  C
  H259     1.0000 0.01250  0.59340  0.56890  Biso   1.000  H
  C394     1.0000 0.14970  0.56390  0.60770  Biso   1.000  C
  H260     1.0000 0.18520  0.55450  0.61710  Biso   1.000  H
  C395     1.0000 0.39570  0.41290  0.36490  Biso   1.000  C
  H261     1.0000 0.37410  0.43010  0.34470  Biso   1.000  H
  C396     1.0000 0.63170  0.14590  0.61950  Biso   1.000  C
  H262     1.0000 0.59440  0.14290  0.62800  Biso   1.000  H
  C397     1.0000 0.74340  0.15750  0.59480  Biso   1.000  C
  H263     1.0000 0.78060  0.16140  0.58650  Biso   1.000  H
  C398     1.0000 0.70820  0.12880  0.56880  Biso   1.000  C
  C399     1.0000 0.72490  0.17980  0.63200  Biso   1.000  C
  H264     1.0000 0.74980  0.19690  0.64980  Biso   1.000  H
  C400     1.0000 0.34750  0.33600  0.34180  Biso   1.000  C
  C401     1.0000 0.77170  0.17770  0.40540  Biso   1.000  C
  H265     1.0000 0.73550  0.18100  0.41630  Biso   1.000  H
  C402     1.0000 0.78890  0.20690  0.36980  Biso   1.000  C
  H266     1.0000 0.76420  0.22940  0.35760  Biso   1.000  H
  C403     1.0000 0.65440  0.12020  0.58230  Biso   1.000  C
  H267     1.0000 0.63250  0.09760  0.56730  Biso   1.000  H
  C404     1.0000 0.88060  0.64900  0.43730  Biso   1.000  C
  H268     1.0000 0.85570  0.66100  0.45820  Biso   1.000  H
  C405     1.0000 0.91960  0.61530  0.44910  Biso   1.000  C
  H269     1.0000 0.91690  0.60110  0.47690  Biso   1.000  H
  H270     1.0000 0.75630  0.68010  0.22020  Biso   1.000  H
  H271     1.0000 0.78580  0.68350  0.26620  Biso   1.000  H
  H272     1.0000 0.72090  0.67600  0.26360  Biso   1.000  H
  H273     1.0000 0.73290  0.29050  0.77000  Biso   1.000  H
  H274     1.0000 0.72990  0.29950  0.72510  Biso   1.000  H
  H275     1.0000 0.51080  0.26910  0.72710  Biso   1.000  H
  H276     1.0000 0.73480  0.29240  0.77010  Biso   1.000  H
  H277     1.0000 0.77160  0.32160  0.23050  Biso   1.000  H
  H278     1.0000 0.77660  0.33160  0.27520  Biso   1.000  H
  H279     1.0000 0.73060  0.30090  0.72510  Biso   1.000  H
  H280     1.0000 0.51060  0.27170  0.72710  Biso   1.000  H
  Yb6      1.0000 0.25664  0.24127  0.86173  Biso   1.000  Yb
  O96      1.0000 0.25860  0.23340  0.78530  Biso   1.000  O
  O97      1.0000 0.38670  0.67220  0.19590  Biso   1.000  O
  O98      1.0000 0.26470  0.18540  0.91490  Biso   1.000  O
  O99      1.0000 0.18300  0.29740  0.84270  Biso   1.000  O
  O100     1.0000 0.19310  0.27650  0.91100  Biso   1.000  O
  O101     1.0000 0.81400  0.68850  0.84780  Biso   1.000  O
  O102     1.0000 0.30550  0.31620  0.84980  Biso   1.000  O
  O103     1.0000 0.88670  0.35610  0.19490  Biso   1.000  O
  C406     1.0000 0.85020  0.60870  0.85670  Biso   1.000  C
  C407     1.0000 0.16840  0.30130  0.88200  Biso   1.000  C
  C408     1.0000 0.41810  0.57550  0.05820  Biso   1.000  C
  C409     1.0000 0.38710  0.41050  0.96670  Biso   1.000  C
  H281     1.0000 0.39490  0.41320  0.99670  Biso   1.000  H
  C410     1.0000 0.88020  0.40560  0.13150  Biso   1.000  C
  C411     1.0000 0.48890  0.56220  0.94680  Biso   1.000  C
  C412     1.0000 0.39840  0.44900  0.94000  Biso   1.000  C
  O104     1.0000 0.18060  0.74190  0.79660  Biso   1.000  O
  C413     1.0000 0.89170  0.58220  0.92500  Biso   1.000  C
  H282     1.0000 0.90170  0.58880  0.95400  Biso   1.000  H
  C414     1.0000 0.26260  0.08690  0.93010  Biso   1.000  C
  H283     1.0000 0.27030  0.09840  0.90190  Biso   1.000  H
  C415     1.0000 0.46300  0.52080  0.93120  Biso   1.000  C
  H284     1.0000 0.47150  0.50970  0.90300  Biso   1.000  H
  C416     1.0000 0.92850  0.49780  0.93500  Biso   1.000  C
  C417     1.0000 0.97560  0.42330  0.98390  Biso   1.000  C
  H285     1.0000 0.99170  0.39820  0.00020  Biso   1.000  H
  C418     1.0000 0.21650  0.93590  0.95630  Biso   1.000  C
  H286     1.0000 0.19830  0.95020  0.93240  Biso   1.000  H
  C419     1.0000 0.25690  0.17350  0.95440  Biso   1.000  C
  C420     1.0000 0.24710  0.01950  0.97980  Biso   1.000  C
  C421     1.0000 0.86690  0.61820  0.89970  Biso   1.000  C
  H287     1.0000 0.86130  0.64900  0.91170  Biso   1.000  H
  O105     1.0000 0.39520  0.79250  0.19360  Biso   1.000  O
  C422     1.0000 0.90180  0.53690  0.90770  Biso   1.000  C
  C423     1.0000 0.25980  0.03780  0.93730  Biso   1.000  C
  H288     1.0000 0.26630  0.01620  0.91420  Biso   1.000  H
  C424     1.0000 0.37970  0.62050  0.13630  Biso   1.000  C
  C425     1.0000 0.32250  0.31780  0.88950  Biso   1.000  C
  C426     1.0000 0.91540  0.43890  0.04830  Biso   1.000  C
  C427     1.0000 0.24200  0.10250  0.00550  Biso   1.000  C
  H289     1.0000 0.23610  0.12440  0.02850  Biso   1.000  H
  C428     1.0000 0.47340  0.57950  0.98910  Biso   1.000  C
  H290     1.0000 0.49000  0.60770  0.00000  Biso   1.000  H
  C429     1.0000 0.21560  0.88590  0.96030  Biso   1.000  C
  C430     1.0000 0.91190  0.48950  0.97830  Biso   1.000  C
  H291     1.0000 0.88470  0.50940  0.99070  Biso   1.000  H
  O106     1.0000 0.65850  0.70840  0.84710  Biso   1.000  O
  C431     1.0000 0.24330  0.96590  0.98630  Biso   1.000  C
  C432     1.0000 0.12210  0.33500  0.89500  Biso   1.000  C
  C433     1.0000 0.03890  0.39830  0.92320  Biso   1.000  C
  C434     1.0000 0.97060  0.46780  0.91660  Biso   1.000  C
  H292     1.0000 0.98300  0.47360  0.88800  Biso   1.000  H
  C435     1.0000 0.40970  0.51250  0.99840  Biso   1.000  C
  H293     1.0000 0.38380  0.49560  0.01540  Biso   1.000  H
  O107     1.0000 0.09300  0.76340  0.80220  Biso   1.000  O
  C436     1.0000 0.42420  0.49480  0.95670  Biso   1.000  C
  O108     1.0000 0.31360  0.28240  0.91530  Biso   1.000  O
  C437     1.0000 0.08340  0.35250  0.86630  Biso   1.000  C
  H294     1.0000 0.08490  0.34320  0.83680  Biso   1.000  H
  O109     1.0000 0.25320  0.20200  0.98550  Biso   1.000  O
  C438     1.0000 0.34770  0.79370  0.18370  Biso   1.000  C
  C439     1.0000 0.53110  0.58830  0.92030  Biso   1.000  C
  C440     1.0000 0.99350  0.43010  0.94030  Biso   1.000  C
  C441     1.0000 0.19330  0.85510  0.92410  Biso   1.000  C
  C442     1.0000 0.88620  0.52770  0.86530  Biso   1.000  C
  H295     1.0000 0.89330  0.49720  0.85310  Biso   1.000  H
  O110     1.0000 0.31200  0.76990  0.20340  Biso   1.000  O
  C443     1.0000 0.23870  0.05250  0.01230  Biso   1.000  C
  H296     1.0000 0.23020  0.04120  0.04040  Biso   1.000  H
  C444     1.0000 0.24160  0.86530  0.99680  Biso   1.000  C
  H297     1.0000 0.24240  0.83150  0.99950  Biso   1.000  H
  C445     1.0000 0.35120  0.36250  0.90610  Biso   1.000  C
  O111     1.0000 0.79820  0.63410  0.79470  Biso   1.000  O
  C446     1.0000 0.36430  0.36730  0.95110  Biso   1.000  C
  H298     1.0000 0.35770  0.34150  0.97040  Biso   1.000  H
  C447     1.0000 0.81860  0.64600  0.83130  Biso   1.000  C
  C448     1.0000 0.14250  0.76520  0.81600  Biso   1.000  C
  C449     1.0000 0.35470  0.64650  0.17600  Biso   1.000  C
  C450     1.0000 0.26900  0.94490  0.02410  Biso   1.000  C
  H299     1.0000 0.28710  0.96470  0.04460  Biso   1.000  H
  C451     1.0000 0.25450  0.11880  0.96310  Biso   1.000  C
  C452     1.0000 0.43380  0.55530  0.01460  Biso   1.000  C
  C453     1.0000 0.34390  0.59310  0.11090  Biso   1.000  C
  H300     1.0000 0.30700  0.58890  0.11980  Biso   1.000  H
  O112     1.0000 0.30490  0.63570  0.18490  Biso   1.000  O
  C454     1.0000 0.85990  0.56350  0.83970  Biso   1.000  C
  H301     1.0000 0.84900  0.55630  0.81100  Biso   1.000  H
  C455     1.0000 0.15880  0.79750  0.85330  Biso   1.000  C
  C456     1.0000 0.38660  0.44370  0.89460  Biso   1.000  C
  H302     1.0000 0.39560  0.46870  0.87510  Biso   1.000  H
  C457     1.0000 0.58190  0.65980  0.89970  Biso   1.000  C
  H303     1.0000 0.58900  0.69270  0.90490  Biso   1.000  H
  C458     1.0000 0.93540  0.45170  0.00400  Biso   1.000  C
  C459     1.0000 0.43530  0.62280  0.12340  Biso   1.000  C
  H304     1.0000 0.46040  0.63980  0.14120  Biso   1.000  H
  C460     1.0000 0.36160  0.40130  0.87910  Biso   1.000  C
  H305     1.0000 0.35160  0.39930  0.84950  Biso   1.000  H
  O113     1.0000 0.68260  0.63890  0.81630  Biso   1.000  O
  C461     1.0000 0.14250  0.86160  0.90640  Biso   1.000  C
  H306     1.0000 0.12060  0.88760  0.91590  Biso   1.000  H
  C462     1.0000 0.61070  0.63750  0.86860  Biso   1.000  C
  C463     1.0000 0.12170  0.83040  0.87390  Biso   1.000  C
  H307     1.0000 0.08420  0.83120  0.86610  Biso   1.000  H
  C464     1.0000 0.56510  0.56170  0.89140  Biso   1.000  C
  H308     1.0000 0.56200  0.52790  0.88970  Biso   1.000  H
  C465     1.0000 0.54210  0.63700  0.92480  Biso   1.000  C
  H309     1.0000 0.52210  0.65510  0.94530  Biso   1.000  H
  C466     1.0000 0.26690  0.89420  0.03030  Biso   1.000  C
  C467     1.0000 0.36290  0.57140  0.07170  Biso   1.000  C
  H310     1.0000 0.33780  0.55390  0.05440  Biso   1.000  H
  C468     1.0000 0.45540  0.60060  0.08510  Biso   1.000  C
  H311     1.0000 0.49310  0.60260  0.07770  Biso   1.000  H
  C469     1.0000 0.04290  0.38300  0.87990  Biso   1.000  C
  H312     1.0000 0.01670  0.39410  0.85950  Biso   1.000  H
  O114     1.0000 0.81070  0.39830  0.18670  Biso   1.000  O
  C470     1.0000 0.85900  0.38590  0.17540  Biso   1.000  C
  C471     1.0000 0.32870  0.82280  0.14310  Biso   1.000  C
  C472     1.0000 0.92910  0.39440  0.11730  Biso   1.000  C
  H313     1.0000 0.95140  0.37380  0.13420  Biso   1.000  H
  C473     1.0000 0.87250  0.45490  0.06710  Biso   1.000  C
  H314     1.0000 0.85380  0.48080  0.05390  Biso   1.000  H
  C474     1.0000 0.95040  0.41240  0.07670  Biso   1.000  C
  H315     1.0000 0.98750  0.40660  0.06890  Biso   1.000  H
  C475     1.0000 0.85030  0.43610  0.10770  Biso   1.000  C
  H316     1.0000 0.81480  0.44550  0.11710  Biso   1.000  H
  C476     1.0000 0.60430  0.58710  0.86490  Biso   1.000  C
  H317     1.0000 0.62590  0.56990  0.84470  Biso   1.000  H
  C477     1.0000 0.36830  0.85410  0.11950  Biso   1.000  C
  H318     1.0000 0.40560  0.85710  0.12800  Biso   1.000  H
  C478     1.0000 0.25660  0.84250  0.09480  Biso   1.000  C
  H319     1.0000 0.21940  0.83860  0.08650  Biso   1.000  H
  C479     1.0000 0.29180  0.87120  0.06880  Biso   1.000  C
  C480     1.0000 0.27510  0.82020  0.13200  Biso   1.000  C
  H320     1.0000 0.25020  0.80310  0.14980  Biso   1.000  H
  C481     1.0000 0.65250  0.66400  0.84180  Biso   1.000  C
  C482     1.0000 0.22830  0.82230  0.90540  Biso   1.000  C
  H321     1.0000 0.26450  0.81900  0.91630  Biso   1.000  H
  C483     1.0000 0.21110  0.79310  0.86980  Biso   1.000  C
  H322     1.0000 0.23580  0.77060  0.85760  Biso   1.000  H
  C484     1.0000 0.34560  0.87980  0.08230  Biso   1.000  C
  H323     1.0000 0.36750  0.90240  0.06730  Biso   1.000  H
  C485     1.0000 0.11940  0.35100  0.93730  Biso   1.000  C
  H324     1.0000 0.14430  0.33900  0.95820  Biso   1.000  H
  C486     1.0000 0.08040  0.38470  0.94910  Biso   1.000  C
  H325     1.0000 0.08310  0.39890  0.97690  Biso   1.000  H
  H326     1.0000 0.24370  0.31990  0.72020  Biso   1.000  H
  H327     1.0000 0.21420  0.31650  0.76620  Biso   1.000  H
  H328     1.0000 0.27910  0.32400  0.76360  Biso   1.000  H
  H329     1.0000 0.26710  0.70950  0.27000  Biso   1.000  H
  H330     1.0000 0.27010  0.70050  0.22510  Biso   1.000  H
  H331     1.0000 0.48920  0.73090  0.22710  Biso   1.000  H
  H332     1.0000 0.26520  0.70760  0.27010  Biso   1.000  H
  H333     1.0000 0.22840  0.67840  0.73050  Biso   1.000  H
  H334     1.0000 0.22340  0.66840  0.77520  Biso   1.000  H
  H335     1.0000 0.26940  0.69910  0.22510  Biso   1.000  H
  H336     1.0000 0.48940  0.72830  0.22710  Biso   1.000  H
  Yb7      1.0000 0.25664  0.25873  0.13827  Biso   1.000  Yb
  O115     1.0000 0.25860  0.26660  0.21470  Biso   1.000  O
  O116     1.0000 0.38670  0.82780  0.80410  Biso   1.000  O
  O117     1.0000 0.26470  0.31460  0.08510  Biso   1.000  O
  O118     1.0000 0.18300  0.20260  0.15730  Biso   1.000  O
  O119     1.0000 0.19310  0.22350  0.08900  Biso   1.000  O
  O120     1.0000 0.81400  0.81150  0.15220  Biso   1.000  O
  O121     1.0000 0.30550  0.18380  0.15020  Biso   1.000  O
  O122     1.0000 0.88670  0.14390  0.80510  Biso   1.000  O
  C487     1.0000 0.85020  0.89130  0.14330  Biso   1.000  C
  C488     1.0000 0.16840  0.19870  0.11800  Biso   1.000  C
  C489     1.0000 0.41810  0.92450  0.94180  Biso   1.000  C
  C490     1.0000 0.38710  0.08950  0.03330  Biso   1.000  C
  H337     1.0000 0.39490  0.08680  0.00330  Biso   1.000  H
  C491     1.0000 0.88020  0.09440  0.86850  Biso   1.000  C
  C492     1.0000 0.48890  0.93780  0.05320  Biso   1.000  C
  C493     1.0000 0.39840  0.05100  0.06000  Biso   1.000  C
  O123     1.0000 0.18060  0.75810  0.20340  Biso   1.000  O
  C494     1.0000 0.89170  0.91780  0.07500  Biso   1.000  C
  H338     1.0000 0.90170  0.91120  0.04600  Biso   1.000  H
  C495     1.0000 0.26260  0.41310  0.06990  Biso   1.000  C
  H339     1.0000 0.27030  0.40160  0.09810  Biso   1.000  H
  C496     1.0000 0.46300  0.97920  0.06880  Biso   1.000  C
  H340     1.0000 0.47150  0.99030  0.09700  Biso   1.000  H
  C497     1.0000 0.92850  0.00220  0.06500  Biso   1.000  C
  C498     1.0000 0.97560  0.07670  0.01610  Biso   1.000  C
  H341     1.0000 0.99170  0.10180  0.99980  Biso   1.000  H
  C499     1.0000 0.21650  0.56410  0.04370  Biso   1.000  C
  H342     1.0000 0.19830  0.54980  0.06760  Biso   1.000  H
  C500     1.0000 0.25690  0.32650  0.04560  Biso   1.000  C
  C501     1.0000 0.24710  0.48050  0.02020  Biso   1.000  C
  C502     1.0000 0.86690  0.88180  0.10030  Biso   1.000  C
  H343     1.0000 0.86130  0.85100  0.08830  Biso   1.000  H
  O124     1.0000 0.39520  0.70750  0.80640  Biso   1.000  O
  C503     1.0000 0.90180  0.96310  0.09230  Biso   1.000  C
  C504     1.0000 0.25980  0.46220  0.06270  Biso   1.000  C
  H344     1.0000 0.26630  0.48380  0.08580  Biso   1.000  H
  C505     1.0000 0.37970  0.87950  0.86370  Biso   1.000  C
  C506     1.0000 0.32250  0.18220  0.11050  Biso   1.000  C
  C507     1.0000 0.91540  0.06110  0.95170  Biso   1.000  C
  C508     1.0000 0.24200  0.39750  0.99450  Biso   1.000  C
  H345     1.0000 0.23610  0.37560  0.97150  Biso   1.000  H
  C509     1.0000 0.47340  0.92050  0.01090  Biso   1.000  C
  H346     1.0000 0.49000  0.89230  0.00000  Biso   1.000  H
  C510     1.0000 0.21560  0.61410  0.03970  Biso   1.000  C
  C511     1.0000 0.91190  0.01050  0.02170  Biso   1.000  C
  H347     1.0000 0.88470  0.99060  0.00930  Biso   1.000  H
  O125     1.0000 0.65850  0.79160  0.15290  Biso   1.000  O
  C512     1.0000 0.24330  0.53410  0.01370  Biso   1.000  C
  C513     1.0000 0.12210  0.16500  0.10500  Biso   1.000  C
  C514     1.0000 0.03890  0.10170  0.07680  Biso   1.000  C
  C515     1.0000 0.97060  0.03220  0.08340  Biso   1.000  C
  H348     1.0000 0.98300  0.02640  0.11200  Biso   1.000  H
  C516     1.0000 0.40970  0.98750  0.00160  Biso   1.000  C
  H349     1.0000 0.38380  0.00440  0.98460  Biso   1.000  H
  O126     1.0000 0.09300  0.73660  0.19780  Biso   1.000  O
  C517     1.0000 0.42420  0.00520  0.04330  Biso   1.000  C
  O127     1.0000 0.31360  0.21760  0.08470  Biso   1.000  O
  C518     1.0000 0.08340  0.14750  0.13370  Biso   1.000  C
  H350     1.0000 0.08490  0.15680  0.16320  Biso   1.000  H
  O128     1.0000 0.25320  0.29800  0.01450  Biso   1.000  O
  C519     1.0000 0.34770  0.70630  0.81630  Biso   1.000  C
  C520     1.0000 0.53110  0.91170  0.07970  Biso   1.000  C
  C521     1.0000 0.99350  0.06990  0.05970  Biso   1.000  C
  C522     1.0000 0.19330  0.64490  0.07590  Biso   1.000  C
  C523     1.0000 0.88620  0.97230  0.13470  Biso   1.000  C
  H351     1.0000 0.89330  0.00280  0.14690  Biso   1.000  H
  O129     1.0000 0.31200  0.73010  0.79660  Biso   1.000  O
  C524     1.0000 0.23870  0.44750  0.98770  Biso   1.000  C
  H352     1.0000 0.23020  0.45880  0.95960  Biso   1.000  H
  C525     1.0000 0.24160  0.63470  0.00320  Biso   1.000  C
  H353     1.0000 0.24240  0.66850  0.00050  Biso   1.000  H
  C526     1.0000 0.35120  0.13750  0.09390  Biso   1.000  C
  O130     1.0000 0.79820  0.86590  0.20530  Biso   1.000  O
  C527     1.0000 0.36430  0.13270  0.04890  Biso   1.000  C
  H354     1.0000 0.35770  0.15850  0.02960  Biso   1.000  H
  C528     1.0000 0.81860  0.85400  0.16870  Biso   1.000  C
  C529     1.0000 0.14250  0.73480  0.18400  Biso   1.000  C
  C530     1.0000 0.35470  0.85350  0.82400  Biso   1.000  C
  C531     1.0000 0.26900  0.55510  0.97590  Biso   1.000  C
  H355     1.0000 0.28710  0.53530  0.95540  Biso   1.000  H
  C532     1.0000 0.25450  0.38120  0.03690  Biso   1.000  C
  C533     1.0000 0.43380  0.94470  0.98540  Biso   1.000  C
  C534     1.0000 0.34390  0.90690  0.88910  Biso   1.000  C
  H356     1.0000 0.30700  0.91110  0.88020  Biso   1.000  H
  O131     1.0000 0.30490  0.86430  0.81510  Biso   1.000  O
  C535     1.0000 0.85990  0.93650  0.16030  Biso   1.000  C
  H357     1.0000 0.84900  0.94370  0.18900  Biso   1.000  H
  C536     1.0000 0.15880  0.70250  0.14670  Biso   1.000  C
  C537     1.0000 0.38660  0.05630  0.10540  Biso   1.000  C
  H358     1.0000 0.39560  0.03130  0.12490  Biso   1.000  H
  C538     1.0000 0.58190  0.84020  0.10030  Biso   1.000  C
  H359     1.0000 0.58900  0.80730  0.09510  Biso   1.000  H
  C539     1.0000 0.93540  0.04830  0.99600  Biso   1.000  C
  C540     1.0000 0.43530  0.87720  0.87660  Biso   1.000  C
  H360     1.0000 0.46040  0.86020  0.85880  Biso   1.000  H
  C541     1.0000 0.36160  0.09870  0.12090  Biso   1.000  C
  H361     1.0000 0.35160  0.10070  0.15050  Biso   1.000  H
  O132     1.0000 0.68260  0.86110  0.18370  Biso   1.000  O
  C542     1.0000 0.14250  0.63840  0.09360  Biso   1.000  C
  H362     1.0000 0.12060  0.61240  0.08410  Biso   1.000  H
  C543     1.0000 0.61070  0.86250  0.13140  Biso   1.000  C
  C544     1.0000 0.12170  0.66960  0.12610  Biso   1.000  C
  H363     1.0000 0.08420  0.66880  0.13390  Biso   1.000  H
  C545     1.0000 0.56510  0.93830  0.10860  Biso   1.000  C
  H364     1.0000 0.56200  0.97210  0.11030  Biso   1.000  H
  C546     1.0000 0.54210  0.86300  0.07520  Biso   1.000  C
  H365     1.0000 0.52210  0.84490  0.05470  Biso   1.000  H
  C547     1.0000 0.26690  0.60580  0.96970  Biso   1.000  C
  C548     1.0000 0.36290  0.92860  0.92830  Biso   1.000  C
  H366     1.0000 0.33780  0.94610  0.94560  Biso   1.000  H
  C549     1.0000 0.45540  0.89940  0.91490  Biso   1.000  C
  H367     1.0000 0.49310  0.89740  0.92230  Biso   1.000  H
  C550     1.0000 0.04290  0.11700  0.12010  Biso   1.000  C
  H368     1.0000 0.01670  0.10590  0.14050  Biso   1.000  H
  O133     1.0000 0.81070  0.10170  0.81330  Biso   1.000  O
  C551     1.0000 0.85900  0.11410  0.82460  Biso   1.000  C
  C552     1.0000 0.32870  0.67720  0.85690  Biso   1.000  C
  C553     1.0000 0.92910  0.10560  0.88270  Biso   1.000  C
  H369     1.0000 0.95140  0.12620  0.86580  Biso   1.000  H
  C554     1.0000 0.87250  0.04510  0.93290  Biso   1.000  C
  H370     1.0000 0.85380  0.01920  0.94610  Biso   1.000  H
  C555     1.0000 0.95040  0.08760  0.92330  Biso   1.000  C
  H371     1.0000 0.98750  0.09340  0.93110  Biso   1.000  H
  C556     1.0000 0.85030  0.06390  0.89230  Biso   1.000  C
  H372     1.0000 0.81480  0.05450  0.88290  Biso   1.000  H
  C557     1.0000 0.60430  0.91290  0.13510  Biso   1.000  C
  H373     1.0000 0.62590  0.93010  0.15530  Biso   1.000  H
  C558     1.0000 0.36830  0.64590  0.88050  Biso   1.000  C
  H374     1.0000 0.40560  0.64290  0.87200  Biso   1.000  H
  C559     1.0000 0.25660  0.65750  0.90520  Biso   1.000  C
  H375     1.0000 0.21940  0.66140  0.91350  Biso   1.000  H
  C560     1.0000 0.29180  0.62880  0.93120  Biso   1.000  C
  C561     1.0000 0.27510  0.67980  0.86800  Biso   1.000  C
  H376     1.0000 0.25020  0.69690  0.85020  Biso   1.000  H
  C562     1.0000 0.65250  0.83600  0.15820  Biso   1.000  C
  C563     1.0000 0.22830  0.67770  0.09460  Biso   1.000  C
  H377     1.0000 0.26450  0.68100  0.08370  Biso   1.000  H
  C564     1.0000 0.21110  0.70690  0.13020  Biso   1.000  C
  H378     1.0000 0.23580  0.72940  0.14240  Biso   1.000  H
  C565     1.0000 0.34560  0.62020  0.91770  Biso   1.000  C
  H379     1.0000 0.36750  0.59760  0.93270  Biso   1.000  H
  C566     1.0000 0.11940  0.14900  0.06270  Biso   1.000  C
  H380     1.0000 0.14430  0.16100  0.04180  Biso   1.000  H
  C567     1.0000 0.08040  0.11530  0.05090  Biso   1.000  C
  H381     1.0000 0.08310  0.10110  0.02310  Biso   1.000  H
  H382     1.0000 0.24370  0.18010  0.27980  Biso   1.000  H
  H383     1.0000 0.21420  0.18350  0.23380  Biso   1.000  H
  H384     1.0000 0.27910  0.17600  0.23640  Biso   1.000  H
  H385     1.0000 0.26710  0.79050  0.73000  Biso   1.000  H
  H386     1.0000 0.27010  0.79950  0.77490  Biso   1.000  H
  H387     1.0000 0.48920  0.76910  0.77290  Biso   1.000  H
  H388     1.0000 0.26520  0.79240  0.72990  Biso   1.000  H
  H389     1.0000 0.22840  0.82160  0.26950  Biso   1.000  H
  H390     1.0000 0.22340  0.83160  0.22480  Biso   1.000  H
  H391     1.0000 0.26940  0.80090  0.77490  Biso   1.000  H
  H392     1.0000 0.48940  0.77170  0.77290  Biso   1.000  H
  Yb8      1.0000 0.74336  0.74127  0.63826  Biso   1.000  Yb
  O134     1.0000 0.74140  0.73340  0.71470  Biso   1.000  O
  O135     1.0000 0.61330  0.17220  0.30410  Biso   1.000  O
  O136     1.0000 0.73530  0.68540  0.58510  Biso   1.000  O
  O137     1.0000 0.81700  0.79740  0.65730  Biso   1.000  O
  O138     1.0000 0.80690  0.77650  0.58900  Biso   1.000  O
  O139     1.0000 0.18600  0.18850  0.65220  Biso   1.000  O
  O140     1.0000 0.69450  0.81620  0.65020  Biso   1.000  O
  O141     1.0000 0.11330  0.85610  0.30510  Biso   1.000  O
  C568     1.0000 0.14980  0.10870  0.64330  Biso   1.000  C
  C569     1.0000 0.83160  0.80130  0.61800  Biso   1.000  C
  C570     1.0000 0.58190  0.07550  0.44180  Biso   1.000  C
  C571     1.0000 0.61290  0.91050  0.53330  Biso   1.000  C
  H393     1.0000 0.60510  0.91320  0.50330  Biso   1.000  H
  C572     1.0000 0.11980  0.90560  0.36850  Biso   1.000  C
  C573     1.0000 0.51110  0.06220  0.55320  Biso   1.000  C
  C574     1.0000 0.60160  0.94900  0.56000  Biso   1.000  C
  O142     1.0000 0.81940  0.24190  0.70340  Biso   1.000  O
  C575     1.0000 0.10830  0.08220  0.57500  Biso   1.000  C
  H394     1.0000 0.09830  0.08880  0.54600  Biso   1.000  H
  C576     1.0000 0.73740  0.58690  0.56990  Biso   1.000  C
  H395     1.0000 0.72970  0.59840  0.59810  Biso   1.000  H
  C577     1.0000 0.53700  0.02080  0.56880  Biso   1.000  C
  H396     1.0000 0.52850  0.00970  0.59700  Biso   1.000  H
  C578     1.0000 0.07150  0.99780  0.56500  Biso   1.000  C
  C579     1.0000 0.02440  0.92330  0.51610  Biso   1.000  C
  H397     1.0000 0.00830  0.89820  0.49980  Biso   1.000  H
  C580     1.0000 0.78350  0.43590  0.54370  Biso   1.000  C
  H398     1.0000 0.80170  0.45020  0.56760  Biso   1.000  H
  C581     1.0000 0.74310  0.67350  0.54560  Biso   1.000  C
  C582     1.0000 0.75290  0.51950  0.52020  Biso   1.000  C
  C583     1.0000 0.13310  0.11820  0.60030  Biso   1.000  C
  H399     1.0000 0.13870  0.14900  0.58830  Biso   1.000  H
  O143     1.0000 0.60480  0.29250  0.30640  Biso   1.000  O
  C584     1.0000 0.09820  0.03690  0.59230  Biso   1.000  C
  C585     1.0000 0.74020  0.53780  0.56270  Biso   1.000  C
  H400     1.0000 0.73370  0.51620  0.58580  Biso   1.000  H
  C586     1.0000 0.62030  0.12050  0.36370  Biso   1.000  C
  C587     1.0000 0.67750  0.81780  0.61050  Biso   1.000  C
  C588     1.0000 0.08460  0.93890  0.45170  Biso   1.000  C
  C589     1.0000 0.75800  0.60250  0.49450  Biso   1.000  C
  H401     1.0000 0.76390  0.62440  0.47150  Biso   1.000  H
  C590     1.0000 0.52660  0.07950  0.51090  Biso   1.000  C
  H402     1.0000 0.51000  0.10770  0.50000  Biso   1.000  H
  C591     1.0000 0.78440  0.38590  0.53970  Biso   1.000  C
  C592     1.0000 0.08810  0.98950  0.52170  Biso   1.000  C
  H403     1.0000 0.11530  0.00940  0.50930  Biso   1.000  H
  O144     1.0000 0.34150  0.20840  0.65290  Biso   1.000  O
  C593     1.0000 0.75670  0.46590  0.51370  Biso   1.000  C
  C594     1.0000 0.87790  0.83500  0.60500  Biso   1.000  C
  C595     1.0000 0.96110  0.89830  0.57680  Biso   1.000  C
  C596     1.0000 0.02940  0.96780  0.58340  Biso   1.000  C
  H404     1.0000 0.01700  0.97360  0.61200  Biso   1.000  H
  C597     1.0000 0.59030  0.01250  0.50160  Biso   1.000  C
  H405     1.0000 0.61620  0.99560  0.48460  Biso   1.000  H
  O145     1.0000 0.90700  0.26340  0.69780  Biso   1.000  O
  C598     1.0000 0.57580  0.99480  0.54330  Biso   1.000  C
  O146     1.0000 0.68640  0.78240  0.58470  Biso   1.000  O
  C599     1.0000 0.91660  0.85250  0.63370  Biso   1.000  C
  H406     1.0000 0.91510  0.84320  0.66320  Biso   1.000  H
  O147     1.0000 0.74680  0.70200  0.51450  Biso   1.000  O
  C600     1.0000 0.65230  0.29370  0.31630  Biso   1.000  C
  C601     1.0000 0.46890  0.08830  0.57970  Biso   1.000  C
  C602     1.0000 0.00650  0.93010  0.55970  Biso   1.000  C
  C603     1.0000 0.80670  0.35510  0.57590  Biso   1.000  C
  C604     1.0000 0.11380  0.02770  0.63470  Biso   1.000  C
  H407     1.0000 0.10670  0.99720  0.64690  Biso   1.000  H
  O148     1.0000 0.68800  0.26990  0.29660  Biso   1.000  O
  C605     1.0000 0.76130  0.55250  0.48770  Biso   1.000  C
  H408     1.0000 0.76980  0.54120  0.45960  Biso   1.000  H
  C606     1.0000 0.75840  0.36530  0.50320  Biso   1.000  C
  H409     1.0000 0.75760  0.33150  0.50050  Biso   1.000  H
  C607     1.0000 0.64880  0.86250  0.59390  Biso   1.000  C
  O149     1.0000 0.20180  0.13410  0.70530  Biso   1.000  O
  C608     1.0000 0.63570  0.86730  0.54890  Biso   1.000  C
  H410     1.0000 0.64230  0.84150  0.52960  Biso   1.000  H
  C609     1.0000 0.18140  0.14600  0.66870  Biso   1.000  C
  C610     1.0000 0.85750  0.26520  0.68400  Biso   1.000  C
  C611     1.0000 0.64530  0.14650  0.32400  Biso   1.000  C
  C612     1.0000 0.73100  0.44490  0.47590  Biso   1.000  C
  H411     1.0000 0.71290  0.46470  0.45540  Biso   1.000  H
  C613     1.0000 0.74550  0.61880  0.53690  Biso   1.000  C
  C614     1.0000 0.56620  0.05530  0.48540  Biso   1.000  C
  C615     1.0000 0.65610  0.09310  0.38910  Biso   1.000  C
  H412     1.0000 0.69300  0.08890  0.38020  Biso   1.000  H
  O150     1.0000 0.69510  0.13570  0.31510  Biso   1.000  O
  C616     1.0000 0.14010  0.06350  0.66030  Biso   1.000  C
  H413     1.0000 0.15100  0.05630  0.68900  Biso   1.000  H
  C617     1.0000 0.84120  0.29750  0.64670  Biso   1.000  C
  C618     1.0000 0.61340  0.94370  0.60540  Biso   1.000  C
  H414     1.0000 0.60440  0.96870  0.62490  Biso   1.000  H
  C619     1.0000 0.41810  0.15980  0.60030  Biso   1.000  C
  H415     1.0000 0.41100  0.19270  0.59510  Biso   1.000  H
  C620     1.0000 0.06460  0.95170  0.49600  Biso   1.000  C
  C621     1.0000 0.56470  0.12280  0.37660  Biso   1.000  C
  H416     1.0000 0.53960  0.13980  0.35880  Biso   1.000  H
  C622     1.0000 0.63840  0.90130  0.62090  Biso   1.000  C
  H417     1.0000 0.64840  0.89930  0.65050  Biso   1.000  H
  O151     1.0000 0.31740  0.13890  0.68370  Biso   1.000  O
  C623     1.0000 0.85750  0.36160  0.59360  Biso   1.000  C
  H418     1.0000 0.87940  0.38760  0.58410  Biso   1.000  H
  C624     1.0000 0.38930  0.13750  0.63140  Biso   1.000  C
  C625     1.0000 0.87830  0.33040  0.62610  Biso   1.000  C
  H419     1.0000 0.91580  0.33120  0.63390  Biso   1.000  H
  C626     1.0000 0.43490  0.06170  0.60860  Biso   1.000  C
  H420     1.0000 0.43800  0.02790  0.61030  Biso   1.000  H
  C627     1.0000 0.45790  0.13700  0.57520  Biso   1.000  C
  H421     1.0000 0.47790  0.15510  0.55470  Biso   1.000  H
  C628     1.0000 0.73310  0.39420  0.46970  Biso   1.000  C
  C629     1.0000 0.63710  0.07140  0.42830  Biso   1.000  C
  H422     1.0000 0.66220  0.05390  0.44560  Biso   1.000  H
  C630     1.0000 0.54460  0.10060  0.41490  Biso   1.000  C
  H423     1.0000 0.50690  0.10260  0.42230  Biso   1.000  H
  C631     1.0000 0.95710  0.88300  0.62010  Biso   1.000  C
  H424     1.0000 0.98330  0.89410  0.64050  Biso   1.000  H
  O152     1.0000 0.18930  0.89830  0.31330  Biso   1.000  O
  C632     1.0000 0.14100  0.88590  0.32460  Biso   1.000  C
  C633     1.0000 0.67130  0.32280  0.35690  Biso   1.000  C
  C634     1.0000 0.07090  0.89440  0.38270  Biso   1.000  C
  H425     1.0000 0.04860  0.87380  0.36580  Biso   1.000  H
  C635     1.0000 0.12750  0.95490  0.43290  Biso   1.000  C
  H426     1.0000 0.14620  0.98080  0.44610  Biso   1.000  H
  C636     1.0000 0.04960  0.91240  0.42330  Biso   1.000  C
  H427     1.0000 0.01250  0.90660  0.43110  Biso   1.000  H
  C637     1.0000 0.14970  0.93610  0.39230  Biso   1.000  C
  H428     1.0000 0.18520  0.94550  0.38290  Biso   1.000  H
  C638     1.0000 0.39570  0.08710  0.63510  Biso   1.000  C
  H429     1.0000 0.37410  0.06990  0.65530  Biso   1.000  H
  C639     1.0000 0.63170  0.35410  0.38050  Biso   1.000  C
  H430     1.0000 0.59440  0.35710  0.37200  Biso   1.000  H
  C640     1.0000 0.74340  0.34250  0.40520  Biso   1.000  C
  H431     1.0000 0.78060  0.33860  0.41350  Biso   1.000  H
  C641     1.0000 0.70820  0.37120  0.43120  Biso   1.000  C
  C642     1.0000 0.72490  0.32020  0.36800  Biso   1.000  C
  H432     1.0000 0.74980  0.30310  0.35020  Biso   1.000  H
  C643     1.0000 0.34750  0.16400  0.65820  Biso   1.000  C
  C644     1.0000 0.77170  0.32230  0.59460  Biso   1.000  C
  H433     1.0000 0.73550  0.31900  0.58370  Biso   1.000  H
  C645     1.0000 0.78890  0.29310  0.63020  Biso   1.000  C
  H434     1.0000 0.76420  0.27060  0.64240  Biso   1.000  H
  C646     1.0000 0.65440  0.37980  0.41770  Biso   1.000  C
  H435     1.0000 0.63250  0.40240  0.43270  Biso   1.000  H
  C647     1.0000 0.88060  0.85100  0.56270  Biso   1.000  C
  H436     1.0000 0.85570  0.83900  0.54180  Biso   1.000  H
  C648     1.0000 0.91960  0.88470  0.55090  Biso   1.000  C
  H437     1.0000 0.91690  0.89890  0.52310  Biso   1.000  H
  H438     1.0000 0.75630  0.81990  0.77980  Biso   1.000  H
  H439     1.0000 0.78580  0.81650  0.73380  Biso   1.000  H
  H440     1.0000 0.72090  0.82400  0.73640  Biso   1.000  H
  H441     1.0000 0.73290  0.20950  0.23000  Biso   1.000  H
  H442     1.0000 0.72990  0.20050  0.27490  Biso   1.000  H
  H443     1.0000 0.51080  0.23090  0.27290  Biso   1.000  H
  H444     1.0000 0.73480  0.20760  0.22990  Biso   1.000  H
  H445     1.0000 0.77160  0.17840  0.76950  Biso   1.000  H
  H446     1.0000 0.77660  0.16840  0.72480  Biso   1.000  H
  H447     1.0000 0.73060  0.19910  0.27490  Biso   1.000  H
  H448     1.0000 0.51060  0.22830  0.27290  Biso   1.000  H
  Yb9      1.0000 0.37599  0.72856  0.25000  Biso   1.000  Yb
  O153     1.0000 0.28470  0.69420  0.25000  Biso   1.000  O
  O154     1.0000 0.46890  0.72840  0.25000  Biso   1.000  O
  Yb10     1.0000 0.36530  0.71550  0.25000  Biso   1.000  Yb
  Yb11     1.0000 0.62401  0.27144  0.75000  Biso   1.000  Yb
  O155     1.0000 0.71530  0.30580  0.75000  Biso   1.000  O
  O156     1.0000 0.53110  0.27160  0.75000  Biso   1.000  O
  Yb12     1.0000 0.63470  0.28450  0.75000  Biso   1.000  Yb
  Yb13     1.0000 0.62401  0.22856  0.25000  Biso   1.000  Yb
  O157     1.0000 0.71530  0.19420  0.25000  Biso   1.000  O
  O158     1.0000 0.53110  0.22840  0.25000  Biso   1.000  O
  Yb14     1.0000 0.63470  0.21550  0.25000  Biso   1.000  Yb
  Yb15     1.0000 0.37599  0.77144  0.75000  Biso   1.000  Yb
  O159     1.0000 0.28470  0.80580  0.75000  Biso   1.000  O
  O160     1.0000 0.46890  0.77160  0.75000  Biso   1.000  O
  Yb16     1.0000 0.36530  0.78450  0.75000  Biso   1.000  Yb
  Yb17     1.0000 0.11904  0.69860  0.75000  Biso   1.000  Yb
  Yb18     1.0000 0.72601  0.65221  0.75000  Biso   1.000  Yb
  C649     1.0000 0.24740  0.30860  0.75000  Biso   1.000  C
  C650     1.0000 0.25530  0.25670  0.75000  Biso   1.000  C
  O161     1.0000 0.20850  0.66450  0.75000  Biso   1.000  O
  Yb19     1.0000 0.14730  0.67710  0.75000  Biso   1.000  Yb
  Yb20     1.0000 0.88096  0.30140  0.25000  Biso   1.000  Yb
  Yb21     1.0000 0.27399  0.34779  0.25000  Biso   1.000  Yb
  C651     1.0000 0.75260  0.69140  0.25000  Biso   1.000  C
  C652     1.0000 0.74470  0.74330  0.25000  Biso   1.000  C
  O162     1.0000 0.79150  0.33550  0.25000  Biso   1.000  O
  Yb22     1.0000 0.85270  0.32290  0.25000  Biso   1.000  Yb
  Yb23     1.0000 0.88096  0.19860  0.75000  Biso   1.000  Yb
  Yb24     1.0000 0.27399  0.15221  0.75000  Biso   1.000  Yb
  C653     1.0000 0.75260  0.80860  0.75000  Biso   1.000  C
  C654     1.0000 0.74470  0.75670  0.75000  Biso   1.000  C
  O163     1.0000 0.79150  0.16450  0.75000  Biso   1.000  O
  Yb25     1.0000 0.85270  0.17710  0.75000  Biso   1.000  Yb
  Yb26     1.0000 0.11904  0.80140  0.25000  Biso   1.000  Yb
  Yb27     1.0000 0.72601  0.84779  0.25000  Biso   1.000  Yb
  C655     1.0000 0.24740  0.19140  0.25000  Biso   1.000  C
  C656     1.0000 0.25530  0.24330  0.25000  Biso   1.000  C
  O164     1.0000 0.20850  0.83550  0.25000  Biso   1.000  O
  Yb28     1.0000 0.14730  0.82290  0.25000  Biso   1.000  Yb
