data_image0
_cell_length_a       24.0875
_cell_length_b       27.8262
_cell_length_c       30.3154
_cell_angle_alpha    90
_cell_angle_beta     90
_cell_angle_gamma    90

_symmetry_space_group_name_H-M    "P 1"
_symmetry_int_tables_number       1

loop_
  _symmetry_equiv_pos_as_xyz
  'x, y, z'

loop_
  _atom_site_label
  _atom_site_occupancy
  _atom_site_fract_x
  _atom_site_fract_y
  _atom_site_fract_z
  _atom_site_thermal_displace_type
  _atom_site_B_iso_or_equiv
  _atom_site_type_symbol
  Eu1      1.0000 0.75636  0.76293  0.36313  Biso   1.000  Eu
  O1       1.0000 0.89010  0.33000  0.69400  Biso   1.000  O
  O2       1.0000 0.75970  0.77100  0.28540  Biso   1.000  O
  O3       1.0000 0.68220  0.25320  0.20210  Biso   1.000  O
  C1       1.0000 0.59600  0.96660  0.40950  Biso   1.000  C
  O4       1.0000 0.68450  0.81790  0.34900  Biso   1.000  O
  C2       1.0000 0.71820  0.10850  0.03820  Biso   1.000  C
  C3       1.0000 0.75980  0.96030  0.05770  Biso   1.000  C
  H1       1.0000 0.76490  0.98100  0.08150  Biso   1.000  H
  O5       1.0000 0.68810  0.10810  0.68530  Biso   1.000  O
  C4       1.0000 0.71890  0.05880  0.04180  Biso   1.000  C
  H2       1.0000 0.70130  0.04410  0.06550  Biso   1.000  H
  C5       1.0000 0.56920  0.00520  0.43750  Biso   1.000  C
  C6       1.0000 0.50200  0.07080  0.44210  Biso   1.000  C
  C7       1.0000 0.76900  0.10260  0.96860  Biso   1.000  C
  C8       1.0000 0.73950  0.94720  0.98290  Biso   1.000  C
  H3       1.0000 0.73140  0.95900  0.95500  Biso   1.000  H
  C9       1.0000 0.96100  0.48340  0.42970  Biso   1.000  C
  H4       1.0000 0.96960  0.49470  0.40160  Biso   1.000  H
  C10      1.0000 0.52770  0.03320  0.41750  Biso   1.000  C
  H5       1.0000 0.51710  0.02730  0.38850  Biso   1.000  H
  C11      1.0000 0.95550  0.40310  0.58370  Biso   1.000  C
  H6       1.0000 0.99270  0.40070  0.57600  Biso   1.000  H
  C12      1.0000 0.89720  0.55410  0.43770  Biso   1.000  C
  C13      1.0000 0.84300  0.11870  0.91430  Biso   1.000  C
  H7       1.0000 0.86590  0.09650  0.92830  Biso   1.000  H
  C14      1.0000 0.88030  0.38380  0.63430  Biso   1.000  C
  C15      1.0000 0.86440  0.43410  0.57210  Biso   1.000  C
  H8       1.0000 0.83960  0.45240  0.55560  Biso   1.000  H
  C16      1.0000 0.88640  0.59090  0.46560  Biso   1.000  C
  H9       1.0000 0.89360  0.58750  0.49560  Biso   1.000  H
  C17      1.0000 0.86430  0.63440  0.44920  Biso   1.000  C
  H10      1.0000 0.85870  0.66030  0.46800  Biso   1.000  H
  O6       1.0000 0.31840  0.20520  0.34370  Biso   1.000  O
  C18      1.0000 0.77050  0.05320  0.97430  Biso   1.000  C
  H11      1.0000 0.78880  0.03440  0.95350  Biso   1.000  H
  C19      1.0000 0.62790  0.16380  0.12600  Biso   1.000  C
  H12      1.0000 0.59050  0.16310  0.13360  Biso   1.000  H
  C20      1.0000 0.92260  0.50690  0.45440  Biso   1.000  C
  C21      1.0000 0.93590  0.38100  0.62230  Biso   1.000  C
  H13      1.0000 0.96060  0.36430  0.64020  Biso   1.000  H
  C22      1.0000 0.74920  0.97870  0.01750  Biso   1.000  C
  C23      1.0000 0.74200  0.89820  0.99000  Biso   1.000  C
  H14      1.0000 0.73570  0.87740  0.96650  Biso   1.000  H
  C24      1.0000 0.84610  0.41350  0.61030  Biso   1.000  C
  H15      1.0000 0.81020  0.41950  0.62020  Biso   1.000  H
  C25      1.0000 0.64820  0.89540  0.35910  Biso   1.000  C
  C26      1.0000 0.93460  0.45020  0.51360  Biso   1.000  C
  C27      1.0000 0.97430  0.42610  0.48830  Biso   1.000  C
  H16      1.0000 0.99160  0.39910  0.50000  Biso   1.000  H
  C28      1.0000 0.56120  0.04950  0.50450  Biso   1.000  C
  C29      1.0000 0.75360  0.87930  0.03090  Biso   1.000  C
  C30      1.0000 0.65400  0.06970  0.60410  Biso   1.000  C
  H17      1.0000 0.69120  0.06470  0.61100  Biso   1.000  H
  C31      1.0000 0.58420  0.01300  0.47920  Biso   1.000  C
  H18      1.0000 0.61110  0.99330  0.49180  Biso   1.000  H
  C32      1.0000 0.74530  0.03090  0.01050  Biso   1.000  C
  C33      1.0000 0.58070  0.06330  0.55090  Biso   1.000  C
  O7       1.0000 0.61180  0.14720  0.69480  Biso   1.000  O
  O8       1.0000 0.59760  0.22930  0.19580  Biso   1.000  O
  O9       1.0000 0.80470  0.68500  0.35000  Biso   1.000  O
  O10      1.0000 0.81300  0.22960  0.79660  Biso   1.000  O
  O11      1.0000 0.89650  0.20710  0.80660  Biso   1.000  O
  C34      1.0000 0.90950  0.49150  0.49660  Biso   1.000  C
  H19      1.0000 0.88390  0.50850  0.51350  Biso   1.000  H
  O12      1.0000 0.80000  0.71010  0.41850  Biso   1.000  O
  C35      1.0000 0.61840  0.09740  0.63310  Biso   1.000  C
  O13      1.0000 0.76550  0.81350  0.07710  Biso   1.000  O
  C36      1.0000 0.60990  0.97480  0.36600  Biso   1.000  C
  H20      1.0000 0.60240  0.00460  0.35340  Biso   1.000  H
  O14      1.0000 0.80910  0.36880  0.68590  Biso   1.000  O
  C37      1.0000 0.52030  0.07810  0.48480  Biso   1.000  C
  H21      1.0000 0.50490  0.10310  0.50100  Biso   1.000  H
  C38      1.0000 0.88290  0.55720  0.39340  Biso   1.000  C
  H22      1.0000 0.88880  0.53130  0.37460  Biso   1.000  H
  C39      1.0000 0.74340  0.12860  0.00120  Biso   1.000  C
  H23      1.0000 0.74270  0.16190  0.99830  Biso   1.000  H
  C40      1.0000 0.77550  0.18150  0.86880  Biso   1.000  C
  H24      1.0000 0.75160  0.20140  0.85310  Biso   1.000  H
  O15      1.0000 0.69850  0.87140  0.29530  Biso   1.000  O
  C41      1.0000 0.98840  0.44140  0.44640  Biso   1.000  C
  C42      1.0000 0.45940  0.10190  0.42380  Biso   1.000  C
  C43      1.0000 0.60920  0.92270  0.42700  Biso   1.000  C
  H25      1.0000 0.60160  0.91680  0.45660  Biso   1.000  H
  C44      1.0000 0.79020  0.12610  0.92980  Biso   1.000  C
  C45      1.0000 0.03020  0.41710  0.42050  Biso   1.000  C
  C46      1.0000 0.76350  0.91060  0.06450  Biso   1.000  C
  H26      1.0000 0.77270  0.89890  0.09230  Biso   1.000  H
  C47      1.0000 0.91830  0.42910  0.55670  Biso   1.000  C
  C48      1.0000 0.69630  0.13880  0.07510  Biso   1.000  C
  C49      1.0000 0.84860  0.20690  0.81700  Biso   1.000  C
  C50      1.0000 0.85790  0.35820  0.67440  Biso   1.000  C
  O16      1.0000 0.74960  0.79810  0.00900  Biso   1.000  O
  C51      1.0000 0.64520  0.22830  0.18280  Biso   1.000  C
  O17      1.0000 0.32150  0.23590  0.40810  Biso   1.000  O
  C52      1.0000 0.68040  0.85950  0.33270  Biso   1.000  C
  C53      1.0000 0.63330  0.88740  0.40210  Biso   1.000  C
  H27      1.0000 0.63970  0.85730  0.41450  Biso   1.000  H
  C54      1.0000 0.85120  0.63840  0.40500  Biso   1.000  C
  C55      1.0000 0.82930  0.17650  0.85550  Biso   1.000  C
  C56      1.0000 0.85970  0.60000  0.37750  Biso   1.000  C
  H28      1.0000 0.84990  0.60240  0.34790  Biso   1.000  H
  C57      1.0000 0.82080  0.68180  0.38910  Biso   1.000  C
  C58      1.0000 0.66230  0.19500  0.14760  Biso   1.000  C
  C59      1.0000 0.73370  0.16860  0.09740  Biso   1.000  C
  H29      1.0000 0.77120  0.16790  0.09030  Biso   1.000  H
  C60      1.0000 0.06590  0.44270  0.39030  Biso   1.000  C
  H30      1.0000 0.06240  0.47560  0.38610  Biso   1.000  H
  C61      1.0000 0.86260  0.14380  0.87790  Biso   1.000  C
  H31      1.0000 0.89880  0.13860  0.86840  Biso   1.000  H
  C62      1.0000 0.71420  0.20020  0.13120  Biso   1.000  C
  H32      1.0000 0.73720  0.22440  0.14180  Biso   1.000  H
  C63      1.0000 0.63500  0.93930  0.34080  Biso   1.000  C
  H33      1.0000 0.64300  0.94510  0.31130  Biso   1.000  H
  C64      1.0000 0.33310  0.20190  0.38190  Biso   1.000  C
  C65      1.0000 0.75640  0.15750  0.90520  Biso   1.000  C
  H34      1.0000 0.71980  0.16210  0.91400  Biso   1.000  H
  O18      1.0000 0.17270  0.31870  0.35370  Biso   1.000  O
  C66      1.0000 0.04080  0.36840  0.42620  Biso   1.000  C
  H35      1.0000 0.02290  0.35200  0.44890  Biso   1.000  H
  C67      1.0000 0.75610  0.82590  0.03950  Biso   1.000  C
  C68      1.0000 0.10600  0.41630  0.36750  Biso   1.000  C
  H36      1.0000 0.13060  0.43290  0.34940  Biso   1.000  H
  C69      1.0000 0.54500  0.08500  0.58130  Biso   1.000  C
  H37      1.0000 0.50760  0.08800  0.57440  Biso   1.000  H
  C70      1.0000 0.07730  0.34320  0.39910  Biso   1.000  C
  H38      1.0000 0.07900  0.30980  0.40050  Biso   1.000  H
  C71      1.0000 0.63090  0.05100  0.56570  Biso   1.000  C
  H39      1.0000 0.65150  0.02880  0.54960  Biso   1.000  H
  C72      1.0000 0.56350  0.10160  0.62070  Biso   1.000  C
  H40      1.0000 0.53850  0.11620  0.63990  Biso   1.000  H
  C73      1.0000 0.64660  0.13330  0.09320  Biso   1.000  C
  H41      1.0000 0.62380  0.10830  0.08370  Biso   1.000  H
  C74      1.0000 0.64210  0.11740  0.67380  Biso   1.000  C
  C75      1.0000 0.37770  0.16580  0.39500  Biso   1.000  C
  C76      1.0000 0.41600  0.14910  0.36500  Biso   1.000  C
  H42      1.0000 0.41540  0.15980  0.33590  Biso   1.000  H
  C77      1.0000 0.45620  0.11580  0.37900  Biso   1.000  C
  H43      1.0000 0.48080  0.10270  0.35870  Biso   1.000  H
  C78      1.0000 0.37700  0.14860  0.43790  Biso   1.000  C
  H44      1.0000 0.34880  0.15740  0.45730  Biso   1.000  H
  C79      1.0000 0.41910  0.11790  0.45140  Biso   1.000  C
  H45      1.0000 0.41980  0.10790  0.48060  Biso   1.000  H
  C80      1.0000 0.11110  0.36820  0.37020  Biso   1.000  C
  O19      1.0000 0.18180  0.38500  0.31420  Biso   1.000  O
  C81      1.0000 0.16750  0.36190  0.34690  Biso   1.000  C
  H46      1.0000 0.71680  0.69210  0.23270  Biso   1.000  H
  C82      1.0000 0.41390  0.08620  0.39740  Biso   1.000  C
  H47      1.0000 0.40880  0.05350  0.39230  Biso   1.000  H
  C83      1.0000 0.37800  0.11860  0.37980  Biso   1.000  C
  H48      1.0000 0.35370  0.10920  0.35760  Biso   1.000  H
  C84      1.0000 0.41510  0.17910  0.42760  Biso   1.000  C
  H49      1.0000 0.41240  0.20940  0.44040  Biso   1.000  H
  C85      1.0000 0.45630  0.14780  0.44130  Biso   1.000  C
  H50      1.0000 0.48200  0.15760  0.46240  Biso   1.000  H
  O20      1.0000 0.80900  0.85780  0.32550  Biso   1.000  O
  C86      1.0000 0.84770  0.83610  0.34410  Biso   1.000  C
  O21      1.0000 0.84690  0.79120  0.34840  Biso   1.000  O
  O22      1.0000 0.82200  0.72060  0.41230  Biso   1.000  O
  O23      1.0000 0.69740  0.71690  0.41340  Biso   1.000  O
  H51      1.0000 0.78080  0.68330  0.23750  Biso   1.000  H
  H52      1.0000 0.74360  0.68840  0.27970  Biso   1.000  H
  Eu2      1.0000 0.24364  0.23707  0.86313  Biso   1.000  Eu
  O24      1.0000 0.10990  0.67000  0.19400  Biso   1.000  O
  O25      1.0000 0.24030  0.22900  0.78540  Biso   1.000  O
  O26      1.0000 0.31780  0.74680  0.70210  Biso   1.000  O
  C87      1.0000 0.40400  0.03340  0.90950  Biso   1.000  C
  O27      1.0000 0.31550  0.18210  0.84900  Biso   1.000  O
  C88      1.0000 0.28180  0.89150  0.53820  Biso   1.000  C
  C89      1.0000 0.24020  0.03970  0.55770  Biso   1.000  C
  H53      1.0000 0.23510  0.01900  0.58150  Biso   1.000  H
  O28      1.0000 0.31190  0.89190  0.18530  Biso   1.000  O
  C90      1.0000 0.28110  0.94120  0.54180  Biso   1.000  C
  H54      1.0000 0.29870  0.95590  0.56550  Biso   1.000  H
  C91      1.0000 0.43080  0.99480  0.93750  Biso   1.000  C
  C92      1.0000 0.49800  0.92920  0.94210  Biso   1.000  C
  C93      1.0000 0.23100  0.89740  0.46860  Biso   1.000  C
  C94      1.0000 0.26050  0.05280  0.48290  Biso   1.000  C
  H55      1.0000 0.26860  0.04100  0.45500  Biso   1.000  H
  C95      1.0000 0.03900  0.51660  0.92970  Biso   1.000  C
  H56      1.0000 0.03040  0.50530  0.90160  Biso   1.000  H
  C96      1.0000 0.47230  0.96680  0.91750  Biso   1.000  C
  H57      1.0000 0.48290  0.97270  0.88850  Biso   1.000  H
  C97      1.0000 0.04450  0.59690  0.08370  Biso   1.000  C
  H58      1.0000 0.00730  0.59930  0.07600  Biso   1.000  H
  C98      1.0000 0.10280  0.44590  0.93770  Biso   1.000  C
  C99      1.0000 0.15700  0.88130  0.41430  Biso   1.000  C
  H59      1.0000 0.13410  0.90350  0.42830  Biso   1.000  H
  C100     1.0000 0.11970  0.61620  0.13430  Biso   1.000  C
  C101     1.0000 0.13560  0.56590  0.07210  Biso   1.000  C
  H60      1.0000 0.16040  0.54760  0.05560  Biso   1.000  H
  C102     1.0000 0.11360  0.40910  0.96560  Biso   1.000  C
  H61      1.0000 0.10640  0.41250  0.99560  Biso   1.000  H
  C103     1.0000 0.13570  0.36560  0.94920  Biso   1.000  C
  H62      1.0000 0.14130  0.33970  0.96800  Biso   1.000  H
  O29      1.0000 0.68160  0.79480  0.84370  Biso   1.000  O
  C104     1.0000 0.22950  0.94680  0.47430  Biso   1.000  C
  H63      1.0000 0.21120  0.96560  0.45350  Biso   1.000  H
  C105     1.0000 0.37210  0.83620  0.62600  Biso   1.000  C
  H64      1.0000 0.40950  0.83690  0.63360  Biso   1.000  H
  C106     1.0000 0.07740  0.49310  0.95440  Biso   1.000  C
  C107     1.0000 0.06410  0.61900  0.12230  Biso   1.000  C
  H65      1.0000 0.03940  0.63570  0.14020  Biso   1.000  H
  C108     1.0000 0.25080  0.02130  0.51750  Biso   1.000  C
  C109     1.0000 0.25800  0.10180  0.49000  Biso   1.000  C
  H66      1.0000 0.26430  0.12260  0.46650  Biso   1.000  H
  C110     1.0000 0.15390  0.58650  0.11030  Biso   1.000  C
  H67      1.0000 0.18980  0.58050  0.12020  Biso   1.000  H
  C111     1.0000 0.35180  0.10460  0.85910  Biso   1.000  C
  C112     1.0000 0.06540  0.54980  0.01360  Biso   1.000  C
  C113     1.0000 0.02570  0.57390  0.98830  Biso   1.000  C
  H68      1.0000 0.00840  0.60090  0.00000  Biso   1.000  H
  C114     1.0000 0.43880  0.95050  0.00450  Biso   1.000  C
  C115     1.0000 0.24640  0.12070  0.53090  Biso   1.000  C
  C116     1.0000 0.34600  0.93030  0.10410  Biso   1.000  C
  H69      1.0000 0.30880  0.93530  0.11100  Biso   1.000  H
  C117     1.0000 0.41580  0.98700  0.97920  Biso   1.000  C
  H70      1.0000 0.38890  0.00670  0.99180  Biso   1.000  H
  C118     1.0000 0.25470  0.96910  0.51050  Biso   1.000  C
  C119     1.0000 0.41930  0.93670  0.05090  Biso   1.000  C
  O30      1.0000 0.38820  0.85280  0.19480  Biso   1.000  O
  O31      1.0000 0.40240  0.77070  0.69580  Biso   1.000  O
  O32      1.0000 0.19530  0.31500  0.85000  Biso   1.000  O
  O33      1.0000 0.18700  0.77040  0.29660  Biso   1.000  O
  O34      1.0000 0.10350  0.79290  0.30660  Biso   1.000  O
  C120     1.0000 0.09050  0.50850  0.99660  Biso   1.000  C
  H71      1.0000 0.11610  0.49150  0.01350  Biso   1.000  H
  O35      1.0000 0.20000  0.28990  0.91850  Biso   1.000  O
  C121     1.0000 0.38160  0.90260  0.13310  Biso   1.000  C
  O36      1.0000 0.23450  0.18650  0.57710  Biso   1.000  O
  C122     1.0000 0.39010  0.02520  0.86600  Biso   1.000  C
  H72      1.0000 0.39760  0.99540  0.85340  Biso   1.000  H
  O37      1.0000 0.19090  0.63120  0.18590  Biso   1.000  O
  C123     1.0000 0.47970  0.92190  0.98480  Biso   1.000  C
  H73      1.0000 0.49510  0.89690  0.00100  Biso   1.000  H
  C124     1.0000 0.11710  0.44280  0.89340  Biso   1.000  C
  H74      1.0000 0.11120  0.46870  0.87460  Biso   1.000  H
  C125     1.0000 0.25660  0.87140  0.50120  Biso   1.000  C
  H75      1.0000 0.25730  0.83810  0.49830  Biso   1.000  H
  C126     1.0000 0.22450  0.81850  0.36880  Biso   1.000  C
  H76      1.0000 0.24840  0.79860  0.35310  Biso   1.000  H
  O38      1.0000 0.30150  0.12860  0.79530  Biso   1.000  O
  C127     1.0000 0.01160  0.55860  0.94640  Biso   1.000  C
  C128     1.0000 0.54060  0.89810  0.92380  Biso   1.000  C
  C129     1.0000 0.39080  0.07730  0.92700  Biso   1.000  C
  H77      1.0000 0.39840  0.08320  0.95660  Biso   1.000  H
  C130     1.0000 0.20980  0.87390  0.42980  Biso   1.000  C
  C131     1.0000 0.96980  0.58290  0.92050  Biso   1.000  C
  C132     1.0000 0.23650  0.08940  0.56450  Biso   1.000  C
  H78      1.0000 0.22730  0.10110  0.59230  Biso   1.000  H
  C133     1.0000 0.08170  0.57090  0.05670  Biso   1.000  C
  C134     1.0000 0.30370  0.86120  0.57510  Biso   1.000  C
  C135     1.0000 0.15140  0.79310  0.31700  Biso   1.000  C
  C136     1.0000 0.14210  0.64180  0.17440  Biso   1.000  C
  O39      1.0000 0.25040  0.20190  0.50900  Biso   1.000  O
  C137     1.0000 0.35480  0.77170  0.68280  Biso   1.000  C
  O40      1.0000 0.67850  0.76410  0.90810  Biso   1.000  O
  C138     1.0000 0.31960  0.14050  0.83270  Biso   1.000  C
  C139     1.0000 0.36670  0.11260  0.90210  Biso   1.000  C
  H79      1.0000 0.36030  0.14270  0.91450  Biso   1.000  H
  C140     1.0000 0.14880  0.36160  0.90500  Biso   1.000  C
  C141     1.0000 0.17070  0.82350  0.35550  Biso   1.000  C
  C142     1.0000 0.14030  0.40000  0.87750  Biso   1.000  C
  H80      1.0000 0.15010  0.39760  0.84790  Biso   1.000  H
  C143     1.0000 0.17920  0.31820  0.88910  Biso   1.000  C
  C144     1.0000 0.33770  0.80500  0.64760  Biso   1.000  C
  C145     1.0000 0.26630  0.83140  0.59740  Biso   1.000  C
  H81      1.0000 0.22880  0.83210  0.59030  Biso   1.000  H
  C146     1.0000 0.93410  0.55730  0.89030  Biso   1.000  C
  H82      1.0000 0.93760  0.52440  0.88610  Biso   1.000  H
  C147     1.0000 0.13740  0.85620  0.37790  Biso   1.000  C
  H83      1.0000 0.10120  0.86140  0.36840  Biso   1.000  H
  C148     1.0000 0.28580  0.79980  0.63120  Biso   1.000  C
  H84      1.0000 0.26280  0.77560  0.64180  Biso   1.000  H
  C149     1.0000 0.36500  0.06070  0.84080  Biso   1.000  C
  H85      1.0000 0.35700  0.05490  0.81130  Biso   1.000  H
  C150     1.0000 0.66690  0.79810  0.88190  Biso   1.000  C
  C151     1.0000 0.24360  0.84250  0.40520  Biso   1.000  C
  H86      1.0000 0.28020  0.83790  0.41400  Biso   1.000  H
  O41      1.0000 0.82730  0.68130  0.85370  Biso   1.000  O
  C152     1.0000 0.95920  0.63160  0.92620  Biso   1.000  C
  H87      1.0000 0.97710  0.64800  0.94890  Biso   1.000  H
  C153     1.0000 0.24390  0.17410  0.53950  Biso   1.000  C
  C154     1.0000 0.89400  0.58370  0.86750  Biso   1.000  C
  H88      1.0000 0.86940  0.56710  0.84940  Biso   1.000  H
  C155     1.0000 0.45500  0.91500  0.08130  Biso   1.000  C
  H89      1.0000 0.49240  0.91200  0.07440  Biso   1.000  H
  C156     1.0000 0.92270  0.65680  0.89910  Biso   1.000  C
  H90      1.0000 0.92100  0.69020  0.90050  Biso   1.000  H
  C157     1.0000 0.36910  0.94900  0.06570  Biso   1.000  C
  H91      1.0000 0.34850  0.97120  0.04960  Biso   1.000  H
  C158     1.0000 0.43650  0.89840  0.12070  Biso   1.000  C
  H92      1.0000 0.46150  0.88380  0.13990  Biso   1.000  H
  C159     1.0000 0.35340  0.86670  0.59320  Biso   1.000  C
  H93      1.0000 0.37620  0.89170  0.58370  Biso   1.000  H
  C160     1.0000 0.35790  0.88260  0.17380  Biso   1.000  C
  C161     1.0000 0.62230  0.83420  0.89500  Biso   1.000  C
  C162     1.0000 0.58400  0.85090  0.86500  Biso   1.000  C
  H94      1.0000 0.58460  0.84020  0.83590  Biso   1.000  H
  C163     1.0000 0.54380  0.88420  0.87900  Biso   1.000  C
  H95      1.0000 0.51920  0.89730  0.85870  Biso   1.000  H
  C164     1.0000 0.62300  0.85140  0.93790  Biso   1.000  C
  H96      1.0000 0.65120  0.84260  0.95730  Biso   1.000  H
  C165     1.0000 0.58090  0.88210  0.95140  Biso   1.000  C
  H97      1.0000 0.58020  0.89210  0.98060  Biso   1.000  H
  C166     1.0000 0.88890  0.63180  0.87020  Biso   1.000  C
  O42      1.0000 0.81820  0.61500  0.81420  Biso   1.000  O
  C167     1.0000 0.83250  0.63810  0.84690  Biso   1.000  C
  H98      1.0000 0.28320  0.30790  0.73270  Biso   1.000  H
  C168     1.0000 0.58610  0.91380  0.89740  Biso   1.000  C
  H99      1.0000 0.59120  0.94650  0.89230  Biso   1.000  H
  C169     1.0000 0.62200  0.88140  0.87980  Biso   1.000  C
  H100     1.0000 0.64630  0.89080  0.85760  Biso   1.000  H
  C170     1.0000 0.58490  0.82090  0.92760  Biso   1.000  C
  H101     1.0000 0.58760  0.79060  0.94040  Biso   1.000  H
  C171     1.0000 0.54370  0.85220  0.94130  Biso   1.000  C
  H102     1.0000 0.51800  0.84240  0.96240  Biso   1.000  H
  O43      1.0000 0.19100  0.14220  0.82550  Biso   1.000  O
  C172     1.0000 0.15230  0.16390  0.84410  Biso   1.000  C
  O44      1.0000 0.15310  0.20880  0.84840  Biso   1.000  O
  O45      1.0000 0.17800  0.27940  0.91230  Biso   1.000  O
  O46      1.0000 0.30260  0.28310  0.91340  Biso   1.000  O
  H103     1.0000 0.21920  0.31670  0.73750  Biso   1.000  H
  H104     1.0000 0.25640  0.31160  0.77970  Biso   1.000  H
  Eu3      1.0000 0.24364  0.26293  0.13687  Biso   1.000  Eu
  O47      1.0000 0.10990  0.83000  0.80600  Biso   1.000  O
  O48      1.0000 0.24030  0.27100  0.21460  Biso   1.000  O
  O49      1.0000 0.31780  0.75320  0.29790  Biso   1.000  O
  C173     1.0000 0.40400  0.46660  0.09050  Biso   1.000  C
  O50      1.0000 0.31550  0.31790  0.15100  Biso   1.000  O
  C174     1.0000 0.28180  0.60850  0.46180  Biso   1.000  C
  C175     1.0000 0.24020  0.46030  0.44230  Biso   1.000  C
  H105     1.0000 0.23510  0.48100  0.41850  Biso   1.000  H
  O51      1.0000 0.31190  0.60810  0.81470  Biso   1.000  O
  C176     1.0000 0.28110  0.55880  0.45820  Biso   1.000  C
  H106     1.0000 0.29870  0.54410  0.43450  Biso   1.000  H
  C177     1.0000 0.43080  0.50520  0.06250  Biso   1.000  C
  C178     1.0000 0.49800  0.57080  0.05790  Biso   1.000  C
  C179     1.0000 0.23100  0.60260  0.53140  Biso   1.000  C
  C180     1.0000 0.26050  0.44720  0.51710  Biso   1.000  C
  H107     1.0000 0.26860  0.45900  0.54500  Biso   1.000  H
  C181     1.0000 0.03900  0.98340  0.07030  Biso   1.000  C
  H108     1.0000 0.03040  0.99470  0.09840  Biso   1.000  H
  C182     1.0000 0.47230  0.53320  0.08250  Biso   1.000  C
  H109     1.0000 0.48290  0.52730  0.11150  Biso   1.000  H
  C183     1.0000 0.04450  0.90310  0.91630  Biso   1.000  C
  H110     1.0000 0.00730  0.90070  0.92400  Biso   1.000  H
  C184     1.0000 0.10280  0.05410  0.06230  Biso   1.000  C
  C185     1.0000 0.15700  0.61870  0.58570  Biso   1.000  C
  H111     1.0000 0.13410  0.59650  0.57170  Biso   1.000  H
  C186     1.0000 0.11970  0.88380  0.86570  Biso   1.000  C
  C187     1.0000 0.13560  0.93410  0.92790  Biso   1.000  C
  H112     1.0000 0.16040  0.95240  0.94440  Biso   1.000  H
  C188     1.0000 0.11360  0.09090  0.03440  Biso   1.000  C
  H113     1.0000 0.10640  0.08750  0.00440  Biso   1.000  H
  C189     1.0000 0.13570  0.13440  0.05080  Biso   1.000  C
  H114     1.0000 0.14130  0.16030  0.03200  Biso   1.000  H
  O52      1.0000 0.68160  0.70520  0.15630  Biso   1.000  O
  C190     1.0000 0.22950  0.55320  0.52570  Biso   1.000  C
  H115     1.0000 0.21120  0.53440  0.54650  Biso   1.000  H
  C191     1.0000 0.37210  0.66380  0.37400  Biso   1.000  C
  H116     1.0000 0.40950  0.66310  0.36640  Biso   1.000  H
  C192     1.0000 0.07740  0.00690  0.04560  Biso   1.000  C
  C193     1.0000 0.06410  0.88100  0.87770  Biso   1.000  C
  H117     1.0000 0.03940  0.86430  0.85980  Biso   1.000  H
  C194     1.0000 0.25080  0.47870  0.48250  Biso   1.000  C
  C195     1.0000 0.25800  0.39820  0.51000  Biso   1.000  C
  H118     1.0000 0.26430  0.37740  0.53350  Biso   1.000  H
  C196     1.0000 0.15390  0.91350  0.88970  Biso   1.000  C
  H119     1.0000 0.18980  0.91950  0.87980  Biso   1.000  H
  C197     1.0000 0.35180  0.39540  0.14090  Biso   1.000  C
  C198     1.0000 0.06540  0.95020  0.98640  Biso   1.000  C
  C199     1.0000 0.02570  0.92610  0.01170  Biso   1.000  C
  H120     1.0000 0.00840  0.89910  0.00000  Biso   1.000  H
  C200     1.0000 0.43880  0.54950  0.99550  Biso   1.000  C
  C201     1.0000 0.24640  0.37930  0.46910  Biso   1.000  C
  C202     1.0000 0.34600  0.56970  0.89590  Biso   1.000  C
  H121     1.0000 0.30880  0.56470  0.88900  Biso   1.000  H
  C203     1.0000 0.41580  0.51300  0.02080  Biso   1.000  C
  H122     1.0000 0.38890  0.49330  0.00820  Biso   1.000  H
  C204     1.0000 0.25470  0.53090  0.48950  Biso   1.000  C
  C205     1.0000 0.41930  0.56330  0.94910  Biso   1.000  C
  O53      1.0000 0.38820  0.64720  0.80520  Biso   1.000  O
  O54      1.0000 0.40240  0.72930  0.30420  Biso   1.000  O
  O55      1.0000 0.19530  0.18500  0.15000  Biso   1.000  O
  O56      1.0000 0.18700  0.72960  0.70340  Biso   1.000  O
  O57      1.0000 0.10350  0.70710  0.69340  Biso   1.000  O
  C206     1.0000 0.09050  0.99150  0.00340  Biso   1.000  C
  H123     1.0000 0.11610  0.00850  0.98650  Biso   1.000  H
  O58      1.0000 0.20000  0.21010  0.08150  Biso   1.000  O
  C207     1.0000 0.38160  0.59740  0.86690  Biso   1.000  C
  O59      1.0000 0.23450  0.31350  0.42290  Biso   1.000  O
  C208     1.0000 0.39010  0.47480  0.13400  Biso   1.000  C
  H124     1.0000 0.39760  0.50460  0.14660  Biso   1.000  H
  O60      1.0000 0.19090  0.86880  0.81410  Biso   1.000  O
  C209     1.0000 0.47970  0.57810  0.01520  Biso   1.000  C
  H125     1.0000 0.49510  0.60310  0.99900  Biso   1.000  H
  C210     1.0000 0.11710  0.05720  0.10660  Biso   1.000  C
  H126     1.0000 0.11120  0.03130  0.12540  Biso   1.000  H
  C211     1.0000 0.25660  0.62860  0.49880  Biso   1.000  C
  H127     1.0000 0.25730  0.66190  0.50170  Biso   1.000  H
  C212     1.0000 0.22450  0.68150  0.63120  Biso   1.000  C
  H128     1.0000 0.24840  0.70140  0.64690  Biso   1.000  H
  O61      1.0000 0.30150  0.37140  0.20470  Biso   1.000  O
  C213     1.0000 0.01160  0.94140  0.05360  Biso   1.000  C
  C214     1.0000 0.54060  0.60190  0.07620  Biso   1.000  C
  C215     1.0000 0.39080  0.42270  0.07300  Biso   1.000  C
  H129     1.0000 0.39840  0.41680  0.04340  Biso   1.000  H
  C216     1.0000 0.20980  0.62610  0.57020  Biso   1.000  C
  C217     1.0000 0.96980  0.91710  0.07950  Biso   1.000  C
  C218     1.0000 0.23650  0.41060  0.43550  Biso   1.000  C
  H130     1.0000 0.22730  0.39890  0.40770  Biso   1.000  H
  C219     1.0000 0.08170  0.92910  0.94330  Biso   1.000  C
  C220     1.0000 0.30370  0.63880  0.42490  Biso   1.000  C
  C221     1.0000 0.15140  0.70690  0.68300  Biso   1.000  C
  C222     1.0000 0.14210  0.85820  0.82560  Biso   1.000  C
  O62      1.0000 0.25040  0.29810  0.49100  Biso   1.000  O
  C223     1.0000 0.35480  0.72830  0.31720  Biso   1.000  C
  O63      1.0000 0.67850  0.73590  0.09190  Biso   1.000  O
  C224     1.0000 0.31960  0.35950  0.16730  Biso   1.000  C
  C225     1.0000 0.36670  0.38740  0.09790  Biso   1.000  C
  H131     1.0000 0.36030  0.35730  0.08550  Biso   1.000  H
  C226     1.0000 0.14880  0.13840  0.09500  Biso   1.000  C
  C227     1.0000 0.17070  0.67650  0.64450  Biso   1.000  C
  C228     1.0000 0.14030  0.10000  0.12250  Biso   1.000  C
  H132     1.0000 0.15010  0.10240  0.15210  Biso   1.000  H
  C229     1.0000 0.17920  0.18180  0.11090  Biso   1.000  C
  C230     1.0000 0.33770  0.69500  0.35240  Biso   1.000  C
  C231     1.0000 0.26630  0.66860  0.40260  Biso   1.000  C
  H133     1.0000 0.22880  0.66790  0.40970  Biso   1.000  H
  C232     1.0000 0.93410  0.94270  0.10970  Biso   1.000  C
  H134     1.0000 0.93760  0.97560  0.11390  Biso   1.000  H
  C233     1.0000 0.13740  0.64380  0.62210  Biso   1.000  C
  H135     1.0000 0.10120  0.63860  0.63160  Biso   1.000  H
  C234     1.0000 0.28580  0.70020  0.36880  Biso   1.000  C
  H136     1.0000 0.26280  0.72440  0.35820  Biso   1.000  H
  C235     1.0000 0.36500  0.43930  0.15920  Biso   1.000  C
  H137     1.0000 0.35700  0.44510  0.18870  Biso   1.000  H
  C236     1.0000 0.66690  0.70190  0.11810  Biso   1.000  C
  C237     1.0000 0.24360  0.65750  0.59480  Biso   1.000  C
  H138     1.0000 0.28020  0.66210  0.58600  Biso   1.000  H
  O64      1.0000 0.82730  0.81870  0.14630  Biso   1.000  O
  C238     1.0000 0.95920  0.86840  0.07380  Biso   1.000  C
  H139     1.0000 0.97710  0.85200  0.05110  Biso   1.000  H
  C239     1.0000 0.24390  0.32590  0.46050  Biso   1.000  C
  C240     1.0000 0.89400  0.91630  0.13250  Biso   1.000  C
  H140     1.0000 0.86940  0.93290  0.15060  Biso   1.000  H
  C241     1.0000 0.45500  0.58500  0.91870  Biso   1.000  C
  H141     1.0000 0.49240  0.58800  0.92560  Biso   1.000  H
  C242     1.0000 0.92270  0.84320  0.10090  Biso   1.000  C
  H142     1.0000 0.92100  0.80980  0.09950  Biso   1.000  H
  C243     1.0000 0.36910  0.55100  0.93430  Biso   1.000  C
  H143     1.0000 0.34850  0.52880  0.95040  Biso   1.000  H
  C244     1.0000 0.43650  0.60160  0.87930  Biso   1.000  C
  H144     1.0000 0.46150  0.61620  0.86010  Biso   1.000  H
  C245     1.0000 0.35340  0.63330  0.40680  Biso   1.000  C
  H145     1.0000 0.37620  0.60830  0.41630  Biso   1.000  H
  C246     1.0000 0.35790  0.61740  0.82620  Biso   1.000  C
  C247     1.0000 0.62230  0.66580  0.10500  Biso   1.000  C
  C248     1.0000 0.58400  0.64910  0.13500  Biso   1.000  C
  H146     1.0000 0.58460  0.65980  0.16410  Biso   1.000  H
  C249     1.0000 0.54380  0.61580  0.12100  Biso   1.000  C
  H147     1.0000 0.51920  0.60270  0.14130  Biso   1.000  H
  C250     1.0000 0.62300  0.64860  0.06210  Biso   1.000  C
  H148     1.0000 0.65120  0.65740  0.04270  Biso   1.000  H
  C251     1.0000 0.58090  0.61790  0.04860  Biso   1.000  C
  H149     1.0000 0.58020  0.60790  0.01940  Biso   1.000  H
  C252     1.0000 0.88890  0.86820  0.12980  Biso   1.000  C
  O65      1.0000 0.81820  0.88500  0.18580  Biso   1.000  O
  C253     1.0000 0.83250  0.86190  0.15310  Biso   1.000  C
  H150     1.0000 0.28320  0.19210  0.26730  Biso   1.000  H
  C254     1.0000 0.58610  0.58620  0.10260  Biso   1.000  C
  H151     1.0000 0.59120  0.55350  0.10770  Biso   1.000  H
  C255     1.0000 0.62200  0.61860  0.12020  Biso   1.000  C
  H152     1.0000 0.64630  0.60920  0.14240  Biso   1.000  H
  C256     1.0000 0.58490  0.67910  0.07240  Biso   1.000  C
  H153     1.0000 0.58760  0.70940  0.05960  Biso   1.000  H
  C257     1.0000 0.54370  0.64780  0.05870  Biso   1.000  C
  H154     1.0000 0.51800  0.65760  0.03760  Biso   1.000  H
  O66      1.0000 0.19100  0.35780  0.17450  Biso   1.000  O
  C258     1.0000 0.15230  0.33610  0.15590  Biso   1.000  C
  O67      1.0000 0.15310  0.29120  0.15160  Biso   1.000  O
  O68      1.0000 0.17800  0.22060  0.08770  Biso   1.000  O
  O69      1.0000 0.30260  0.21690  0.08660  Biso   1.000  O
  H155     1.0000 0.21920  0.18330  0.26250  Biso   1.000  H
  H156     1.0000 0.25640  0.18840  0.22030  Biso   1.000  H
  Eu4      1.0000 0.75636  0.73707  0.63687  Biso   1.000  Eu
  O70      1.0000 0.89010  0.17000  0.30600  Biso   1.000  O
  O71      1.0000 0.75970  0.72900  0.71460  Biso   1.000  O
  O72      1.0000 0.68220  0.24680  0.79790  Biso   1.000  O
  C259     1.0000 0.59600  0.53340  0.59050  Biso   1.000  C
  O73      1.0000 0.68450  0.68210  0.65100  Biso   1.000  O
  C260     1.0000 0.71820  0.39150  0.96180  Biso   1.000  C
  C261     1.0000 0.75980  0.53970  0.94230  Biso   1.000  C
  H157     1.0000 0.76490  0.51900  0.91850  Biso   1.000  H
  O74      1.0000 0.68810  0.39190  0.31470  Biso   1.000  O
  C262     1.0000 0.71890  0.44120  0.95820  Biso   1.000  C
  H158     1.0000 0.70130  0.45590  0.93450  Biso   1.000  H
  C263     1.0000 0.56920  0.49480  0.56250  Biso   1.000  C
  C264     1.0000 0.50200  0.42920  0.55790  Biso   1.000  C
  C265     1.0000 0.76900  0.39740  0.03140  Biso   1.000  C
  C266     1.0000 0.73950  0.55280  0.01710  Biso   1.000  C
  H159     1.0000 0.73140  0.54100  0.04500  Biso   1.000  H
  C267     1.0000 0.96100  0.01660  0.57030  Biso   1.000  C
  H160     1.0000 0.96960  0.00530  0.59840  Biso   1.000  H
  C268     1.0000 0.52770  0.46680  0.58250  Biso   1.000  C
  H161     1.0000 0.51710  0.47270  0.61150  Biso   1.000  H
  C269     1.0000 0.95550  0.09690  0.41630  Biso   1.000  C
  H162     1.0000 0.99270  0.09930  0.42400  Biso   1.000  H
  C270     1.0000 0.89720  0.94590  0.56230  Biso   1.000  C
  C271     1.0000 0.84300  0.38130  0.08570  Biso   1.000  C
  H163     1.0000 0.86590  0.40350  0.07170  Biso   1.000  H
  C272     1.0000 0.88030  0.11620  0.36570  Biso   1.000  C
  C273     1.0000 0.86440  0.06590  0.42790  Biso   1.000  C
  H164     1.0000 0.83960  0.04760  0.44440  Biso   1.000  H
  C274     1.0000 0.88640  0.90910  0.53440  Biso   1.000  C
  H165     1.0000 0.89360  0.91250  0.50440  Biso   1.000  H
  C275     1.0000 0.86430  0.86560  0.55080  Biso   1.000  C
  H166     1.0000 0.85870  0.83970  0.53200  Biso   1.000  H
  O75      1.0000 0.31840  0.29480  0.65630  Biso   1.000  O
  C276     1.0000 0.77050  0.44680  0.02570  Biso   1.000  C
  H167     1.0000 0.78880  0.46560  0.04650  Biso   1.000  H
  C277     1.0000 0.62790  0.33620  0.87400  Biso   1.000  C
  H168     1.0000 0.59050  0.33690  0.86640  Biso   1.000  H
  C278     1.0000 0.92260  0.99310  0.54560  Biso   1.000  C
  C279     1.0000 0.93590  0.11900  0.37770  Biso   1.000  C
  H169     1.0000 0.96060  0.13570  0.35980  Biso   1.000  H
  C280     1.0000 0.74920  0.52130  0.98250  Biso   1.000  C
  C281     1.0000 0.74200  0.60180  0.01000  Biso   1.000  C
  H170     1.0000 0.73570  0.62260  0.03350  Biso   1.000  H
  C282     1.0000 0.84610  0.08650  0.38970  Biso   1.000  C
  H171     1.0000 0.81020  0.08050  0.37980  Biso   1.000  H
  C283     1.0000 0.64820  0.60460  0.64090  Biso   1.000  C
  C284     1.0000 0.93460  0.04980  0.48640  Biso   1.000  C
  C285     1.0000 0.97430  0.07390  0.51170  Biso   1.000  C
  H172     1.0000 0.99160  0.10090  0.50000  Biso   1.000  H
  C286     1.0000 0.56120  0.45050  0.49550  Biso   1.000  C
  C287     1.0000 0.75360  0.62070  0.96910  Biso   1.000  C
  C288     1.0000 0.65400  0.43030  0.39590  Biso   1.000  C
  H173     1.0000 0.69120  0.43530  0.38900  Biso   1.000  H
  C289     1.0000 0.58420  0.48700  0.52080  Biso   1.000  C
  H174     1.0000 0.61110  0.50670  0.50820  Biso   1.000  H
  C290     1.0000 0.74530  0.46910  0.98950  Biso   1.000  C
  C291     1.0000 0.58070  0.43670  0.44910  Biso   1.000  C
  O76      1.0000 0.61180  0.35280  0.30520  Biso   1.000  O
  O77      1.0000 0.59760  0.27070  0.80420  Biso   1.000  O
  O78      1.0000 0.80470  0.81500  0.65000  Biso   1.000  O
  O79      1.0000 0.81300  0.27040  0.20340  Biso   1.000  O
  O80      1.0000 0.89650  0.29290  0.19340  Biso   1.000  O
  C292     1.0000 0.90950  0.00850  0.50340  Biso   1.000  C
  H175     1.0000 0.88390  0.99150  0.48650  Biso   1.000  H
  O81      1.0000 0.80000  0.78990  0.58150  Biso   1.000  O
  C293     1.0000 0.61840  0.40260  0.36690  Biso   1.000  C
  O82      1.0000 0.76550  0.68650  0.92290  Biso   1.000  O
  C294     1.0000 0.60990  0.52520  0.63400  Biso   1.000  C
  H176     1.0000 0.60240  0.49540  0.64660  Biso   1.000  H
  O83      1.0000 0.80910  0.13120  0.31410  Biso   1.000  O
  C295     1.0000 0.52030  0.42190  0.51520  Biso   1.000  C
  H177     1.0000 0.50490  0.39690  0.49900  Biso   1.000  H
  C296     1.0000 0.88290  0.94280  0.60660  Biso   1.000  C
  H178     1.0000 0.88880  0.96870  0.62540  Biso   1.000  H
  C297     1.0000 0.74340  0.37140  0.99880  Biso   1.000  C
  H179     1.0000 0.74270  0.33810  0.00170  Biso   1.000  H
  C298     1.0000 0.77550  0.31850  0.13120  Biso   1.000  C
  H180     1.0000 0.75160  0.29860  0.14690  Biso   1.000  H
  O84      1.0000 0.69850  0.62860  0.70470  Biso   1.000  O
  C299     1.0000 0.98840  0.05860  0.55360  Biso   1.000  C
  C300     1.0000 0.45940  0.39810  0.57620  Biso   1.000  C
  C301     1.0000 0.60920  0.57730  0.57300  Biso   1.000  C
  H181     1.0000 0.60160  0.58320  0.54340  Biso   1.000  H
  C302     1.0000 0.79020  0.37390  0.07020  Biso   1.000  C
  C303     1.0000 0.03020  0.08290  0.57950  Biso   1.000  C
  C304     1.0000 0.76350  0.58940  0.93550  Biso   1.000  C
  H182     1.0000 0.77270  0.60110  0.90770  Biso   1.000  H
  C305     1.0000 0.91830  0.07090  0.44330  Biso   1.000  C
  C306     1.0000 0.69630  0.36120  0.92490  Biso   1.000  C
  C307     1.0000 0.84860  0.29310  0.18300  Biso   1.000  C
  C308     1.0000 0.85790  0.14180  0.32560  Biso   1.000  C
  O85      1.0000 0.74960  0.70190  0.99100  Biso   1.000  O
  C309     1.0000 0.64520  0.27170  0.81720  Biso   1.000  C
  O86      1.0000 0.32150  0.26410  0.59190  Biso   1.000  O
  C310     1.0000 0.68040  0.64050  0.66730  Biso   1.000  C
  C311     1.0000 0.63330  0.61260  0.59790  Biso   1.000  C
  H183     1.0000 0.63970  0.64270  0.58550  Biso   1.000  H
  C312     1.0000 0.85120  0.86160  0.59500  Biso   1.000  C
  C313     1.0000 0.82930  0.32350  0.14450  Biso   1.000  C
  C314     1.0000 0.85970  0.90000  0.62250  Biso   1.000  C
  H184     1.0000 0.84990  0.89760  0.65210  Biso   1.000  H
  C315     1.0000 0.82080  0.81820  0.61090  Biso   1.000  C
  C316     1.0000 0.66230  0.30500  0.85240  Biso   1.000  C
  C317     1.0000 0.73370  0.33140  0.90260  Biso   1.000  C
  H185     1.0000 0.77120  0.33210  0.90970  Biso   1.000  H
  C318     1.0000 0.06590  0.05730  0.60970  Biso   1.000  C
  H186     1.0000 0.06240  0.02440  0.61390  Biso   1.000  H
  C319     1.0000 0.86260  0.35620  0.12210  Biso   1.000  C
  H187     1.0000 0.89880  0.36140  0.13160  Biso   1.000  H
  C320     1.0000 0.71420  0.29980  0.86880  Biso   1.000  C
  H188     1.0000 0.73720  0.27560  0.85820  Biso   1.000  H
  C321     1.0000 0.63500  0.56070  0.65920  Biso   1.000  C
  H189     1.0000 0.64300  0.55490  0.68870  Biso   1.000  H
  C322     1.0000 0.33310  0.29810  0.61810  Biso   1.000  C
  C323     1.0000 0.75640  0.34250  0.09480  Biso   1.000  C
  H190     1.0000 0.71980  0.33790  0.08600  Biso   1.000  H
  O87      1.0000 0.17270  0.18130  0.64630  Biso   1.000  O
  C324     1.0000 0.04080  0.13160  0.57380  Biso   1.000  C
  H191     1.0000 0.02290  0.14800  0.55110  Biso   1.000  H
  C325     1.0000 0.75610  0.67410  0.96050  Biso   1.000  C
  C326     1.0000 0.10600  0.08370  0.63250  Biso   1.000  C
  H192     1.0000 0.13060  0.06710  0.65060  Biso   1.000  H
  C327     1.0000 0.54500  0.41500  0.41870  Biso   1.000  C
  H193     1.0000 0.50760  0.41200  0.42560  Biso   1.000  H
  C328     1.0000 0.07730  0.15680  0.60090  Biso   1.000  C
  H194     1.0000 0.07900  0.19020  0.59950  Biso   1.000  H
  C329     1.0000 0.63090  0.44900  0.43430  Biso   1.000  C
  H195     1.0000 0.65150  0.47120  0.45040  Biso   1.000  H
  C330     1.0000 0.56350  0.39840  0.37930  Biso   1.000  C
  H196     1.0000 0.53850  0.38380  0.36010  Biso   1.000  H
  C331     1.0000 0.64660  0.36670  0.90680  Biso   1.000  C
  H197     1.0000 0.62380  0.39170  0.91630  Biso   1.000  H
  C332     1.0000 0.64210  0.38260  0.32620  Biso   1.000  C
  C333     1.0000 0.37770  0.33420  0.60500  Biso   1.000  C
  C334     1.0000 0.41600  0.35090  0.63500  Biso   1.000  C
  H198     1.0000 0.41540  0.34020  0.66410  Biso   1.000  H
  C335     1.0000 0.45620  0.38420  0.62100  Biso   1.000  C
  H199     1.0000 0.48080  0.39730  0.64130  Biso   1.000  H
  C336     1.0000 0.37700  0.35140  0.56210  Biso   1.000  C
  H200     1.0000 0.34880  0.34260  0.54270  Biso   1.000  H
  C337     1.0000 0.41910  0.38210  0.54860  Biso   1.000  C
  H201     1.0000 0.41980  0.39210  0.51940  Biso   1.000  H
  C338     1.0000 0.11110  0.13180  0.62980  Biso   1.000  C
  O88      1.0000 0.18180  0.11500  0.68580  Biso   1.000  O
  C339     1.0000 0.16750  0.13810  0.65310  Biso   1.000  C
  H202     1.0000 0.71680  0.80790  0.76730  Biso   1.000  H
  C340     1.0000 0.41390  0.41380  0.60260  Biso   1.000  C
  H203     1.0000 0.40880  0.44650  0.60770  Biso   1.000  H
  C341     1.0000 0.37800  0.38140  0.62020  Biso   1.000  C
  H204     1.0000 0.35370  0.39080  0.64240  Biso   1.000  H
  C342     1.0000 0.41510  0.32090  0.57240  Biso   1.000  C
  H205     1.0000 0.41240  0.29060  0.55960  Biso   1.000  H
  C343     1.0000 0.45630  0.35220  0.55870  Biso   1.000  C
  H206     1.0000 0.48200  0.34240  0.53760  Biso   1.000  H
  O89      1.0000 0.80900  0.64220  0.67450  Biso   1.000  O
  C344     1.0000 0.84770  0.66390  0.65590  Biso   1.000  C
  O90      1.0000 0.84690  0.70880  0.65160  Biso   1.000  O
  O91      1.0000 0.82200  0.77940  0.58770  Biso   1.000  O
  O92      1.0000 0.69740  0.78310  0.58660  Biso   1.000  O
  H207     1.0000 0.78080  0.81670  0.76250  Biso   1.000  H
  H208     1.0000 0.74360  0.81160  0.72030  Biso   1.000  H
  Eu5      1.0000 0.24364  0.23707  0.63687  Biso   1.000  Eu
  O93      1.0000 0.10990  0.67000  0.30600  Biso   1.000  O
  O94      1.0000 0.24030  0.22900  0.71460  Biso   1.000  O
  O95      1.0000 0.31780  0.74680  0.79790  Biso   1.000  O
  C345     1.0000 0.40400  0.03340  0.59050  Biso   1.000  C
  O96      1.0000 0.31550  0.18210  0.65100  Biso   1.000  O
  C346     1.0000 0.28180  0.89150  0.96180  Biso   1.000  C
  C347     1.0000 0.24020  0.03970  0.94230  Biso   1.000  C
  H209     1.0000 0.23510  0.01900  0.91850  Biso   1.000  H
  O97      1.0000 0.31190  0.89190  0.31470  Biso   1.000  O
  C348     1.0000 0.28110  0.94120  0.95820  Biso   1.000  C
  H210     1.0000 0.29870  0.95590  0.93450  Biso   1.000  H
  C349     1.0000 0.43080  0.99480  0.56250  Biso   1.000  C
  C350     1.0000 0.49800  0.92920  0.55790  Biso   1.000  C
  C351     1.0000 0.23100  0.89740  0.03140  Biso   1.000  C
  C352     1.0000 0.26050  0.05280  0.01710  Biso   1.000  C
  H211     1.0000 0.26860  0.04100  0.04500  Biso   1.000  H
  C353     1.0000 0.03900  0.51660  0.57030  Biso   1.000  C
  H212     1.0000 0.03040  0.50530  0.59840  Biso   1.000  H
  C354     1.0000 0.47230  0.96680  0.58250  Biso   1.000  C
  H213     1.0000 0.48290  0.97270  0.61150  Biso   1.000  H
  C355     1.0000 0.04450  0.59690  0.41630  Biso   1.000  C
  H214     1.0000 0.00730  0.59930  0.42400  Biso   1.000  H
  C356     1.0000 0.10280  0.44590  0.56230  Biso   1.000  C
  C357     1.0000 0.15700  0.88130  0.08570  Biso   1.000  C
  H215     1.0000 0.13410  0.90350  0.07170  Biso   1.000  H
  C358     1.0000 0.11970  0.61620  0.36570  Biso   1.000  C
  C359     1.0000 0.13560  0.56590  0.42790  Biso   1.000  C
  H216     1.0000 0.16040  0.54760  0.44440  Biso   1.000  H
  C360     1.0000 0.11360  0.40910  0.53440  Biso   1.000  C
  H217     1.0000 0.10640  0.41250  0.50440  Biso   1.000  H
  C361     1.0000 0.13570  0.36560  0.55080  Biso   1.000  C
  H218     1.0000 0.14130  0.33970  0.53200  Biso   1.000  H
  O98      1.0000 0.68160  0.79480  0.65630  Biso   1.000  O
  C362     1.0000 0.22950  0.94680  0.02570  Biso   1.000  C
  H219     1.0000 0.21120  0.96560  0.04650  Biso   1.000  H
  C363     1.0000 0.37210  0.83620  0.87400  Biso   1.000  C
  H220     1.0000 0.40950  0.83690  0.86640  Biso   1.000  H
  C364     1.0000 0.07740  0.49310  0.54560  Biso   1.000  C
  C365     1.0000 0.06410  0.61900  0.37770  Biso   1.000  C
  H221     1.0000 0.03940  0.63570  0.35980  Biso   1.000  H
  C366     1.0000 0.25080  0.02130  0.98250  Biso   1.000  C
  C367     1.0000 0.25800  0.10180  0.01000  Biso   1.000  C
  H222     1.0000 0.26430  0.12260  0.03350  Biso   1.000  H
  C368     1.0000 0.15390  0.58650  0.38970  Biso   1.000  C
  H223     1.0000 0.18980  0.58050  0.37980  Biso   1.000  H
  C369     1.0000 0.35180  0.10460  0.64090  Biso   1.000  C
  C370     1.0000 0.06540  0.54980  0.48640  Biso   1.000  C
  C371     1.0000 0.02570  0.57390  0.51170  Biso   1.000  C
  H224     1.0000 0.00840  0.60090  0.50000  Biso   1.000  H
  C372     1.0000 0.43880  0.95050  0.49550  Biso   1.000  C
  C373     1.0000 0.24640  0.12070  0.96910  Biso   1.000  C
  C374     1.0000 0.34600  0.93030  0.39590  Biso   1.000  C
  H225     1.0000 0.30880  0.93530  0.38900  Biso   1.000  H
  C375     1.0000 0.41580  0.98700  0.52080  Biso   1.000  C
  H226     1.0000 0.38890  0.00670  0.50820  Biso   1.000  H
  C376     1.0000 0.25470  0.96910  0.98950  Biso   1.000  C
  C377     1.0000 0.41930  0.93670  0.44910  Biso   1.000  C
  O99      1.0000 0.38820  0.85280  0.30520  Biso   1.000  O
  O100     1.0000 0.40240  0.77070  0.80420  Biso   1.000  O
  O101     1.0000 0.19530  0.31500  0.65000  Biso   1.000  O
  O102     1.0000 0.18700  0.77040  0.20340  Biso   1.000  O
  O103     1.0000 0.10350  0.79290  0.19340  Biso   1.000  O
  C378     1.0000 0.09050  0.50850  0.50340  Biso   1.000  C
  H227     1.0000 0.11610  0.49150  0.48650  Biso   1.000  H
  O104     1.0000 0.20000  0.28990  0.58150  Biso   1.000  O
  C379     1.0000 0.38160  0.90260  0.36690  Biso   1.000  C
  O105     1.0000 0.23450  0.18650  0.92290  Biso   1.000  O
  C380     1.0000 0.39010  0.02520  0.63400  Biso   1.000  C
  H228     1.0000 0.39760  0.99540  0.64660  Biso   1.000  H
  O106     1.0000 0.19090  0.63120  0.31410  Biso   1.000  O
  C381     1.0000 0.47970  0.92190  0.51520  Biso   1.000  C
  H229     1.0000 0.49510  0.89690  0.49900  Biso   1.000  H
  C382     1.0000 0.11710  0.44280  0.60660  Biso   1.000  C
  H230     1.0000 0.11120  0.46870  0.62540  Biso   1.000  H
  C383     1.0000 0.25660  0.87140  0.99880  Biso   1.000  C
  H231     1.0000 0.25730  0.83810  0.00170  Biso   1.000  H
  C384     1.0000 0.22450  0.81850  0.13120  Biso   1.000  C
  H232     1.0000 0.24840  0.79860  0.14690  Biso   1.000  H
  O107     1.0000 0.30150  0.12860  0.70470  Biso   1.000  O
  C385     1.0000 0.01160  0.55860  0.55360  Biso   1.000  C
  C386     1.0000 0.54060  0.89810  0.57620  Biso   1.000  C
  C387     1.0000 0.39080  0.07730  0.57300  Biso   1.000  C
  H233     1.0000 0.39840  0.08320  0.54340  Biso   1.000  H
  C388     1.0000 0.20980  0.87390  0.07020  Biso   1.000  C
  C389     1.0000 0.96980  0.58290  0.57950  Biso   1.000  C
  C390     1.0000 0.23650  0.08940  0.93550  Biso   1.000  C
  H234     1.0000 0.22730  0.10110  0.90770  Biso   1.000  H
  C391     1.0000 0.08170  0.57090  0.44330  Biso   1.000  C
  C392     1.0000 0.30370  0.86120  0.92490  Biso   1.000  C
  C393     1.0000 0.15140  0.79310  0.18300  Biso   1.000  C
  C394     1.0000 0.14210  0.64180  0.32560  Biso   1.000  C
  O108     1.0000 0.25040  0.20190  0.99100  Biso   1.000  O
  C395     1.0000 0.35480  0.77170  0.81720  Biso   1.000  C
  O109     1.0000 0.67850  0.76410  0.59190  Biso   1.000  O
  C396     1.0000 0.31960  0.14050  0.66730  Biso   1.000  C
  C397     1.0000 0.36670  0.11260  0.59790  Biso   1.000  C
  H235     1.0000 0.36030  0.14270  0.58550  Biso   1.000  H
  C398     1.0000 0.14880  0.36160  0.59500  Biso   1.000  C
  C399     1.0000 0.17070  0.82350  0.14450  Biso   1.000  C
  C400     1.0000 0.14030  0.40000  0.62250  Biso   1.000  C
  H236     1.0000 0.15010  0.39760  0.65210  Biso   1.000  H
  C401     1.0000 0.17920  0.31820  0.61090  Biso   1.000  C
  C402     1.0000 0.33770  0.80500  0.85240  Biso   1.000  C
  C403     1.0000 0.26630  0.83140  0.90260  Biso   1.000  C
  H237     1.0000 0.22880  0.83210  0.90970  Biso   1.000  H
  C404     1.0000 0.93410  0.55730  0.60970  Biso   1.000  C
  H238     1.0000 0.93760  0.52440  0.61390  Biso   1.000  H
  C405     1.0000 0.13740  0.85620  0.12210  Biso   1.000  C
  H239     1.0000 0.10120  0.86140  0.13160  Biso   1.000  H
  C406     1.0000 0.28580  0.79980  0.86880  Biso   1.000  C
  H240     1.0000 0.26280  0.77560  0.85820  Biso   1.000  H
  C407     1.0000 0.36500  0.06070  0.65920  Biso   1.000  C
  H241     1.0000 0.35700  0.05490  0.68870  Biso   1.000  H
  C408     1.0000 0.66690  0.79810  0.61810  Biso   1.000  C
  C409     1.0000 0.24360  0.84250  0.09480  Biso   1.000  C
  H242     1.0000 0.28020  0.83790  0.08600  Biso   1.000  H
  O110     1.0000 0.82730  0.68130  0.64630  Biso   1.000  O
  C410     1.0000 0.95920  0.63160  0.57380  Biso   1.000  C
  H243     1.0000 0.97710  0.64800  0.55110  Biso   1.000  H
  C411     1.0000 0.24390  0.17410  0.96050  Biso   1.000  C
  C412     1.0000 0.89400  0.58370  0.63250  Biso   1.000  C
  H244     1.0000 0.86940  0.56710  0.65060  Biso   1.000  H
  C413     1.0000 0.45500  0.91500  0.41870  Biso   1.000  C
  H245     1.0000 0.49240  0.91200  0.42560  Biso   1.000  H
  C414     1.0000 0.92270  0.65680  0.60090  Biso   1.000  C
  H246     1.0000 0.92100  0.69020  0.59950  Biso   1.000  H
  C415     1.0000 0.36910  0.94900  0.43430  Biso   1.000  C
  H247     1.0000 0.34850  0.97120  0.45040  Biso   1.000  H
  C416     1.0000 0.43650  0.89840  0.37930  Biso   1.000  C
  H248     1.0000 0.46150  0.88380  0.36010  Biso   1.000  H
  C417     1.0000 0.35340  0.86670  0.90680  Biso   1.000  C
  H249     1.0000 0.37620  0.89170  0.91630  Biso   1.000  H
  C418     1.0000 0.35790  0.88260  0.32620  Biso   1.000  C
  C419     1.0000 0.62230  0.83420  0.60500  Biso   1.000  C
  C420     1.0000 0.58400  0.85090  0.63500  Biso   1.000  C
  H250     1.0000 0.58460  0.84020  0.66410  Biso   1.000  H
  C421     1.0000 0.54380  0.88420  0.62100  Biso   1.000  C
  H251     1.0000 0.51920  0.89730  0.64130  Biso   1.000  H
  C422     1.0000 0.62300  0.85140  0.56210  Biso   1.000  C
  H252     1.0000 0.65120  0.84260  0.54270  Biso   1.000  H
  C423     1.0000 0.58090  0.88210  0.54860  Biso   1.000  C
  H253     1.0000 0.58020  0.89210  0.51940  Biso   1.000  H
  C424     1.0000 0.88890  0.63180  0.62980  Biso   1.000  C
  O111     1.0000 0.81820  0.61500  0.68580  Biso   1.000  O
  C425     1.0000 0.83250  0.63810  0.65310  Biso   1.000  C
  H254     1.0000 0.28320  0.30790  0.76730  Biso   1.000  H
  C426     1.0000 0.58610  0.91380  0.60260  Biso   1.000  C
  H255     1.0000 0.59120  0.94650  0.60770  Biso   1.000  H
  C427     1.0000 0.62200  0.88140  0.62020  Biso   1.000  C
  H256     1.0000 0.64630  0.89080  0.64240  Biso   1.000  H
  C428     1.0000 0.58490  0.82090  0.57240  Biso   1.000  C
  H257     1.0000 0.58760  0.79060  0.55960  Biso   1.000  H
  C429     1.0000 0.54370  0.85220  0.55870  Biso   1.000  C
  H258     1.0000 0.51800  0.84240  0.53760  Biso   1.000  H
  O112     1.0000 0.19100  0.14220  0.67450  Biso   1.000  O
  C430     1.0000 0.15230  0.16390  0.65590  Biso   1.000  C
  O113     1.0000 0.15310  0.20880  0.65160  Biso   1.000  O
  O114     1.0000 0.17800  0.27940  0.58770  Biso   1.000  O
  O115     1.0000 0.30260  0.28310  0.58660  Biso   1.000  O
  H259     1.0000 0.21920  0.31670  0.76250  Biso   1.000  H
  H260     1.0000 0.25640  0.31160  0.72030  Biso   1.000  H
  Eu6      1.0000 0.75636  0.76293  0.13687  Biso   1.000  Eu
  O116     1.0000 0.89010  0.33000  0.80600  Biso   1.000  O
  O117     1.0000 0.75970  0.77100  0.21460  Biso   1.000  O
  O118     1.0000 0.68220  0.25320  0.29790  Biso   1.000  O
  C431     1.0000 0.59600  0.96660  0.09050  Biso   1.000  C
  O119     1.0000 0.68450  0.81790  0.15100  Biso   1.000  O
  C432     1.0000 0.71820  0.10850  0.46180  Biso   1.000  C
  C433     1.0000 0.75980  0.96030  0.44230  Biso   1.000  C
  H261     1.0000 0.76490  0.98100  0.41850  Biso   1.000  H
  O120     1.0000 0.68810  0.10810  0.81470  Biso   1.000  O
  C434     1.0000 0.71890  0.05880  0.45820  Biso   1.000  C
  H262     1.0000 0.70130  0.04410  0.43450  Biso   1.000  H
  C435     1.0000 0.56920  0.00520  0.06250  Biso   1.000  C
  C436     1.0000 0.50200  0.07080  0.05790  Biso   1.000  C
  C437     1.0000 0.76900  0.10260  0.53140  Biso   1.000  C
  C438     1.0000 0.73950  0.94720  0.51710  Biso   1.000  C
  H263     1.0000 0.73140  0.95900  0.54500  Biso   1.000  H
  C439     1.0000 0.96100  0.48340  0.07030  Biso   1.000  C
  H264     1.0000 0.96960  0.49470  0.09840  Biso   1.000  H
  C440     1.0000 0.52770  0.03320  0.08250  Biso   1.000  C
  H265     1.0000 0.51710  0.02730  0.11150  Biso   1.000  H
  C441     1.0000 0.95550  0.40310  0.91630  Biso   1.000  C
  H266     1.0000 0.99270  0.40070  0.92400  Biso   1.000  H
  C442     1.0000 0.89720  0.55410  0.06230  Biso   1.000  C
  C443     1.0000 0.84300  0.11870  0.58570  Biso   1.000  C
  H267     1.0000 0.86590  0.09650  0.57170  Biso   1.000  H
  C444     1.0000 0.88030  0.38380  0.86570  Biso   1.000  C
  C445     1.0000 0.86440  0.43410  0.92790  Biso   1.000  C
  H268     1.0000 0.83960  0.45240  0.94440  Biso   1.000  H
  C446     1.0000 0.88640  0.59090  0.03440  Biso   1.000  C
  H269     1.0000 0.89360  0.58750  0.00440  Biso   1.000  H
  C447     1.0000 0.86430  0.63440  0.05080  Biso   1.000  C
  H270     1.0000 0.85870  0.66030  0.03200  Biso   1.000  H
  O121     1.0000 0.31840  0.20520  0.15630  Biso   1.000  O
  C448     1.0000 0.77050  0.05320  0.52570  Biso   1.000  C
  H271     1.0000 0.78880  0.03440  0.54650  Biso   1.000  H
  C449     1.0000 0.62790  0.16380  0.37400  Biso   1.000  C
  H272     1.0000 0.59050  0.16310  0.36640  Biso   1.000  H
  C450     1.0000 0.92260  0.50690  0.04560  Biso   1.000  C
  C451     1.0000 0.93590  0.38100  0.87770  Biso   1.000  C
  H273     1.0000 0.96060  0.36430  0.85980  Biso   1.000  H
  C452     1.0000 0.74920  0.97870  0.48250  Biso   1.000  C
  C453     1.0000 0.74200  0.89820  0.51000  Biso   1.000  C
  H274     1.0000 0.73570  0.87740  0.53350  Biso   1.000  H
  C454     1.0000 0.84610  0.41350  0.88970  Biso   1.000  C
  H275     1.0000 0.81020  0.41950  0.87980  Biso   1.000  H
  C455     1.0000 0.64820  0.89540  0.14090  Biso   1.000  C
  C456     1.0000 0.93460  0.45020  0.98640  Biso   1.000  C
  C457     1.0000 0.97430  0.42610  0.01170  Biso   1.000  C
  H276     1.0000 0.99160  0.39910  0.00000  Biso   1.000  H
  C458     1.0000 0.56120  0.04950  0.99550  Biso   1.000  C
  C459     1.0000 0.75360  0.87930  0.46910  Biso   1.000  C
  C460     1.0000 0.65400  0.06970  0.89590  Biso   1.000  C
  H277     1.0000 0.69120  0.06470  0.88900  Biso   1.000  H
  C461     1.0000 0.58420  0.01300  0.02080  Biso   1.000  C
  H278     1.0000 0.61110  0.99330  0.00820  Biso   1.000  H
  C462     1.0000 0.74530  0.03090  0.48950  Biso   1.000  C
  C463     1.0000 0.58070  0.06330  0.94910  Biso   1.000  C
  O122     1.0000 0.61180  0.14720  0.80520  Biso   1.000  O
  O123     1.0000 0.59760  0.22930  0.30420  Biso   1.000  O
  O124     1.0000 0.80470  0.68500  0.15000  Biso   1.000  O
  O125     1.0000 0.81300  0.22960  0.70340  Biso   1.000  O
  O126     1.0000 0.89650  0.20710  0.69340  Biso   1.000  O
  C464     1.0000 0.90950  0.49150  0.00340  Biso   1.000  C
  H279     1.0000 0.88390  0.50850  0.98650  Biso   1.000  H
  O127     1.0000 0.80000  0.71010  0.08150  Biso   1.000  O
  C465     1.0000 0.61840  0.09740  0.86690  Biso   1.000  C
  O128     1.0000 0.76550  0.81350  0.42290  Biso   1.000  O
  C466     1.0000 0.60990  0.97480  0.13400  Biso   1.000  C
  H280     1.0000 0.60240  0.00460  0.14660  Biso   1.000  H
  O129     1.0000 0.80910  0.36880  0.81410  Biso   1.000  O
  C467     1.0000 0.52030  0.07810  0.01520  Biso   1.000  C
  H281     1.0000 0.50490  0.10310  0.99900  Biso   1.000  H
  C468     1.0000 0.88290  0.55720  0.10660  Biso   1.000  C
  H282     1.0000 0.88880  0.53130  0.12540  Biso   1.000  H
  C469     1.0000 0.74340  0.12860  0.49880  Biso   1.000  C
  H283     1.0000 0.74270  0.16190  0.50170  Biso   1.000  H
  C470     1.0000 0.77550  0.18150  0.63120  Biso   1.000  C
  H284     1.0000 0.75160  0.20140  0.64690  Biso   1.000  H
  O130     1.0000 0.69850  0.87140  0.20470  Biso   1.000  O
  C471     1.0000 0.98840  0.44140  0.05360  Biso   1.000  C
  C472     1.0000 0.45940  0.10190  0.07620  Biso   1.000  C
  C473     1.0000 0.60920  0.92270  0.07300  Biso   1.000  C
  H285     1.0000 0.60160  0.91680  0.04340  Biso   1.000  H
  C474     1.0000 0.79020  0.12610  0.57020  Biso   1.000  C
  C475     1.0000 0.03020  0.41710  0.07950  Biso   1.000  C
  C476     1.0000 0.76350  0.91060  0.43550  Biso   1.000  C
  H286     1.0000 0.77270  0.89890  0.40770  Biso   1.000  H
  C477     1.0000 0.91830  0.42910  0.94330  Biso   1.000  C
  C478     1.0000 0.69630  0.13880  0.42490  Biso   1.000  C
  C479     1.0000 0.84860  0.20690  0.68300  Biso   1.000  C
  C480     1.0000 0.85790  0.35820  0.82560  Biso   1.000  C
  O131     1.0000 0.74960  0.79810  0.49100  Biso   1.000  O
  C481     1.0000 0.64520  0.22830  0.31720  Biso   1.000  C
  O132     1.0000 0.32150  0.23590  0.09190  Biso   1.000  O
  C482     1.0000 0.68040  0.85950  0.16730  Biso   1.000  C
  C483     1.0000 0.63330  0.88740  0.09790  Biso   1.000  C
  H287     1.0000 0.63970  0.85730  0.08550  Biso   1.000  H
  C484     1.0000 0.85120  0.63840  0.09500  Biso   1.000  C
  C485     1.0000 0.82930  0.17650  0.64450  Biso   1.000  C
  C486     1.0000 0.85970  0.60000  0.12250  Biso   1.000  C
  H288     1.0000 0.84990  0.60240  0.15210  Biso   1.000  H
  C487     1.0000 0.82080  0.68180  0.11090  Biso   1.000  C
  C488     1.0000 0.66230  0.19500  0.35240  Biso   1.000  C
  C489     1.0000 0.73370  0.16860  0.40260  Biso   1.000  C
  H289     1.0000 0.77120  0.16790  0.40970  Biso   1.000  H
  C490     1.0000 0.06590  0.44270  0.10970  Biso   1.000  C
  H290     1.0000 0.06240  0.47560  0.11390  Biso   1.000  H
  C491     1.0000 0.86260  0.14380  0.62210  Biso   1.000  C
  H291     1.0000 0.89880  0.13860  0.63160  Biso   1.000  H
  C492     1.0000 0.71420  0.20020  0.36880  Biso   1.000  C
  H292     1.0000 0.73720  0.22440  0.35820  Biso   1.000  H
  C493     1.0000 0.63500  0.93930  0.15920  Biso   1.000  C
  H293     1.0000 0.64300  0.94510  0.18870  Biso   1.000  H
  C494     1.0000 0.33310  0.20190  0.11810  Biso   1.000  C
  C495     1.0000 0.75640  0.15750  0.59480  Biso   1.000  C
  H294     1.0000 0.71980  0.16210  0.58600  Biso   1.000  H
  O133     1.0000 0.17270  0.31870  0.14630  Biso   1.000  O
  C496     1.0000 0.04080  0.36840  0.07380  Biso   1.000  C
  H295     1.0000 0.02290  0.35200  0.05110  Biso   1.000  H
  C497     1.0000 0.75610  0.82590  0.46050  Biso   1.000  C
  C498     1.0000 0.10600  0.41630  0.13250  Biso   1.000  C
  H296     1.0000 0.13060  0.43290  0.15060  Biso   1.000  H
  C499     1.0000 0.54500  0.08500  0.91870  Biso   1.000  C
  H297     1.0000 0.50760  0.08800  0.92560  Biso   1.000  H
  C500     1.0000 0.07730  0.34320  0.10090  Biso   1.000  C
  H298     1.0000 0.07900  0.30980  0.09950  Biso   1.000  H
  C501     1.0000 0.63090  0.05100  0.93430  Biso   1.000  C
  H299     1.0000 0.65150  0.02880  0.95040  Biso   1.000  H
  C502     1.0000 0.56350  0.10160  0.87930  Biso   1.000  C
  H300     1.0000 0.53850  0.11620  0.86010  Biso   1.000  H
  C503     1.0000 0.64660  0.13330  0.40680  Biso   1.000  C
  H301     1.0000 0.62380  0.10830  0.41630  Biso   1.000  H
  C504     1.0000 0.64210  0.11740  0.82620  Biso   1.000  C
  C505     1.0000 0.37770  0.16580  0.10500  Biso   1.000  C
  C506     1.0000 0.41600  0.14910  0.13500  Biso   1.000  C
  H302     1.0000 0.41540  0.15980  0.16410  Biso   1.000  H
  C507     1.0000 0.45620  0.11580  0.12100  Biso   1.000  C
  H303     1.0000 0.48080  0.10270  0.14130  Biso   1.000  H
  C508     1.0000 0.37700  0.14860  0.06210  Biso   1.000  C
  H304     1.0000 0.34880  0.15740  0.04270  Biso   1.000  H
  C509     1.0000 0.41910  0.11790  0.04860  Biso   1.000  C
  H305     1.0000 0.41980  0.10790  0.01940  Biso   1.000  H
  C510     1.0000 0.11110  0.36820  0.12980  Biso   1.000  C
  O134     1.0000 0.18180  0.38500  0.18580  Biso   1.000  O
  C511     1.0000 0.16750  0.36190  0.15310  Biso   1.000  C
  H306     1.0000 0.71680  0.69210  0.26730  Biso   1.000  H
  C512     1.0000 0.41390  0.08620  0.10260  Biso   1.000  C
  H307     1.0000 0.40880  0.05350  0.10770  Biso   1.000  H
  C513     1.0000 0.37800  0.11860  0.12020  Biso   1.000  C
  H308     1.0000 0.35370  0.10920  0.14240  Biso   1.000  H
  C514     1.0000 0.41510  0.17910  0.07240  Biso   1.000  C
  H309     1.0000 0.41240  0.20940  0.05960  Biso   1.000  H
  C515     1.0000 0.45630  0.14780  0.05870  Biso   1.000  C
  H310     1.0000 0.48200  0.15760  0.03760  Biso   1.000  H
  O135     1.0000 0.80900  0.85780  0.17450  Biso   1.000  O
  C516     1.0000 0.84770  0.83610  0.15590  Biso   1.000  C
  O136     1.0000 0.84690  0.79120  0.15160  Biso   1.000  O
  O137     1.0000 0.82200  0.72060  0.08770  Biso   1.000  O
  O138     1.0000 0.69740  0.71690  0.08660  Biso   1.000  O
  H311     1.0000 0.78080  0.68330  0.26250  Biso   1.000  H
  H312     1.0000 0.74360  0.68840  0.22030  Biso   1.000  H
  Eu7      1.0000 0.75636  0.73707  0.86313  Biso   1.000  Eu
  O139     1.0000 0.89010  0.17000  0.19400  Biso   1.000  O
  O140     1.0000 0.75970  0.72900  0.78540  Biso   1.000  O
  O141     1.0000 0.68220  0.24680  0.70210  Biso   1.000  O
  C517     1.0000 0.59600  0.53340  0.90950  Biso   1.000  C
  O142     1.0000 0.68450  0.68210  0.84900  Biso   1.000  O
  C518     1.0000 0.71820  0.39150  0.53820  Biso   1.000  C
  C519     1.0000 0.75980  0.53970  0.55770  Biso   1.000  C
  H313     1.0000 0.76490  0.51900  0.58150  Biso   1.000  H
  O143     1.0000 0.68810  0.39190  0.18530  Biso   1.000  O
  C520     1.0000 0.71890  0.44120  0.54180  Biso   1.000  C
  H314     1.0000 0.70130  0.45590  0.56550  Biso   1.000  H
  C521     1.0000 0.56920  0.49480  0.93750  Biso   1.000  C
  C522     1.0000 0.50200  0.42920  0.94210  Biso   1.000  C
  C523     1.0000 0.76900  0.39740  0.46860  Biso   1.000  C
  C524     1.0000 0.73950  0.55280  0.48290  Biso   1.000  C
  H315     1.0000 0.73140  0.54100  0.45500  Biso   1.000  H
  C525     1.0000 0.96100  0.01660  0.92970  Biso   1.000  C
  H316     1.0000 0.96960  0.00530  0.90160  Biso   1.000  H
  C526     1.0000 0.52770  0.46680  0.91750  Biso   1.000  C
  H317     1.0000 0.51710  0.47270  0.88850  Biso   1.000  H
  C527     1.0000 0.95550  0.09690  0.08370  Biso   1.000  C
  H318     1.0000 0.99270  0.09930  0.07600  Biso   1.000  H
  C528     1.0000 0.89720  0.94590  0.93770  Biso   1.000  C
  C529     1.0000 0.84300  0.38130  0.41430  Biso   1.000  C
  H319     1.0000 0.86590  0.40350  0.42830  Biso   1.000  H
  C530     1.0000 0.88030  0.11620  0.13430  Biso   1.000  C
  C531     1.0000 0.86440  0.06590  0.07210  Biso   1.000  C
  H320     1.0000 0.83960  0.04760  0.05560  Biso   1.000  H
  C532     1.0000 0.88640  0.90910  0.96560  Biso   1.000  C
  H321     1.0000 0.89360  0.91250  0.99560  Biso   1.000  H
  C533     1.0000 0.86430  0.86560  0.94920  Biso   1.000  C
  H322     1.0000 0.85870  0.83970  0.96800  Biso   1.000  H
  O144     1.0000 0.31840  0.29480  0.84370  Biso   1.000  O
  C534     1.0000 0.77050  0.44680  0.47430  Biso   1.000  C
  H323     1.0000 0.78880  0.46560  0.45350  Biso   1.000  H
  C535     1.0000 0.62790  0.33620  0.62600  Biso   1.000  C
  H324     1.0000 0.59050  0.33690  0.63360  Biso   1.000  H
  C536     1.0000 0.92260  0.99310  0.95440  Biso   1.000  C
  C537     1.0000 0.93590  0.11900  0.12230  Biso   1.000  C
  H325     1.0000 0.96060  0.13570  0.14020  Biso   1.000  H
  C538     1.0000 0.74920  0.52130  0.51750  Biso   1.000  C
  C539     1.0000 0.74200  0.60180  0.49000  Biso   1.000  C
  H326     1.0000 0.73570  0.62260  0.46650  Biso   1.000  H
  C540     1.0000 0.84610  0.08650  0.11030  Biso   1.000  C
  H327     1.0000 0.81020  0.08050  0.12020  Biso   1.000  H
  C541     1.0000 0.64820  0.60460  0.85910  Biso   1.000  C
  C542     1.0000 0.93460  0.04980  0.01360  Biso   1.000  C
  C543     1.0000 0.97430  0.07390  0.98830  Biso   1.000  C
  H328     1.0000 0.99160  0.10090  0.00000  Biso   1.000  H
  C544     1.0000 0.56120  0.45050  0.00450  Biso   1.000  C
  C545     1.0000 0.75360  0.62070  0.53090  Biso   1.000  C
  C546     1.0000 0.65400  0.43030  0.10410  Biso   1.000  C
  H329     1.0000 0.69120  0.43530  0.11100  Biso   1.000  H
  C547     1.0000 0.58420  0.48700  0.97920  Biso   1.000  C
  H330     1.0000 0.61110  0.50670  0.99180  Biso   1.000  H
  C548     1.0000 0.74530  0.46910  0.51050  Biso   1.000  C
  C549     1.0000 0.58070  0.43670  0.05090  Biso   1.000  C
  O145     1.0000 0.61180  0.35280  0.19480  Biso   1.000  O
  O146     1.0000 0.59760  0.27070  0.69580  Biso   1.000  O
  O147     1.0000 0.80470  0.81500  0.85000  Biso   1.000  O
  O148     1.0000 0.81300  0.27040  0.29660  Biso   1.000  O
  O149     1.0000 0.89650  0.29290  0.30660  Biso   1.000  O
  C550     1.0000 0.90950  0.00850  0.99660  Biso   1.000  C
  H331     1.0000 0.88390  0.99150  0.01350  Biso   1.000  H
  O150     1.0000 0.80000  0.78990  0.91850  Biso   1.000  O
  C551     1.0000 0.61840  0.40260  0.13310  Biso   1.000  C
  O151     1.0000 0.76550  0.68650  0.57710  Biso   1.000  O
  C552     1.0000 0.60990  0.52520  0.86600  Biso   1.000  C
  H332     1.0000 0.60240  0.49540  0.85340  Biso   1.000  H
  O152     1.0000 0.80910  0.13120  0.18590  Biso   1.000  O
  C553     1.0000 0.52030  0.42190  0.98480  Biso   1.000  C
  H333     1.0000 0.50490  0.39690  0.00100  Biso   1.000  H
  C554     1.0000 0.88290  0.94280  0.89340  Biso   1.000  C
  H334     1.0000 0.88880  0.96870  0.87460  Biso   1.000  H
  C555     1.0000 0.74340  0.37140  0.50120  Biso   1.000  C
  H335     1.0000 0.74270  0.33810  0.49830  Biso   1.000  H
  C556     1.0000 0.77550  0.31850  0.36880  Biso   1.000  C
  H336     1.0000 0.75160  0.29860  0.35310  Biso   1.000  H
  O153     1.0000 0.69850  0.62860  0.79530  Biso   1.000  O
  C557     1.0000 0.98840  0.05860  0.94640  Biso   1.000  C
  C558     1.0000 0.45940  0.39810  0.92380  Biso   1.000  C
  C559     1.0000 0.60920  0.57730  0.92700  Biso   1.000  C
  H337     1.0000 0.60160  0.58320  0.95660  Biso   1.000  H
  C560     1.0000 0.79020  0.37390  0.42980  Biso   1.000  C
  C561     1.0000 0.03020  0.08290  0.92050  Biso   1.000  C
  C562     1.0000 0.76350  0.58940  0.56450  Biso   1.000  C
  H338     1.0000 0.77270  0.60110  0.59230  Biso   1.000  H
  C563     1.0000 0.91830  0.07090  0.05670  Biso   1.000  C
  C564     1.0000 0.69630  0.36120  0.57510  Biso   1.000  C
  C565     1.0000 0.84860  0.29310  0.31700  Biso   1.000  C
  C566     1.0000 0.85790  0.14180  0.17440  Biso   1.000  C
  O154     1.0000 0.74960  0.70190  0.50900  Biso   1.000  O
  C567     1.0000 0.64520  0.27170  0.68280  Biso   1.000  C
  O155     1.0000 0.32150  0.26410  0.90810  Biso   1.000  O
  C568     1.0000 0.68040  0.64050  0.83270  Biso   1.000  C
  C569     1.0000 0.63330  0.61260  0.90210  Biso   1.000  C
  H339     1.0000 0.63970  0.64270  0.91450  Biso   1.000  H
  C570     1.0000 0.85120  0.86160  0.90500  Biso   1.000  C
  C571     1.0000 0.82930  0.32350  0.35550  Biso   1.000  C
  C572     1.0000 0.85970  0.90000  0.87750  Biso   1.000  C
  H340     1.0000 0.84990  0.89760  0.84790  Biso   1.000  H
  C573     1.0000 0.82080  0.81820  0.88910  Biso   1.000  C
  C574     1.0000 0.66230  0.30500  0.64760  Biso   1.000  C
  C575     1.0000 0.73370  0.33140  0.59740  Biso   1.000  C
  H341     1.0000 0.77120  0.33210  0.59030  Biso   1.000  H
  C576     1.0000 0.06590  0.05730  0.89030  Biso   1.000  C
  H342     1.0000 0.06240  0.02440  0.88610  Biso   1.000  H
  C577     1.0000 0.86260  0.35620  0.37790  Biso   1.000  C
  H343     1.0000 0.89880  0.36140  0.36840  Biso   1.000  H
  C578     1.0000 0.71420  0.29980  0.63120  Biso   1.000  C
  H344     1.0000 0.73720  0.27560  0.64180  Biso   1.000  H
  C579     1.0000 0.63500  0.56070  0.84080  Biso   1.000  C
  H345     1.0000 0.64300  0.55490  0.81130  Biso   1.000  H
  C580     1.0000 0.33310  0.29810  0.88190  Biso   1.000  C
  C581     1.0000 0.75640  0.34250  0.40520  Biso   1.000  C
  H346     1.0000 0.71980  0.33790  0.41400  Biso   1.000  H
  O156     1.0000 0.17270  0.18130  0.85370  Biso   1.000  O
  C582     1.0000 0.04080  0.13160  0.92620  Biso   1.000  C
  H347     1.0000 0.02290  0.14800  0.94890  Biso   1.000  H
  C583     1.0000 0.75610  0.67410  0.53950  Biso   1.000  C
  C584     1.0000 0.10600  0.08370  0.86750  Biso   1.000  C
  H348     1.0000 0.13060  0.06710  0.84940  Biso   1.000  H
  C585     1.0000 0.54500  0.41500  0.08130  Biso   1.000  C
  H349     1.0000 0.50760  0.41200  0.07440  Biso   1.000  H
  C586     1.0000 0.07730  0.15680  0.89910  Biso   1.000  C
  H350     1.0000 0.07900  0.19020  0.90050  Biso   1.000  H
  C587     1.0000 0.63090  0.44900  0.06570  Biso   1.000  C
  H351     1.0000 0.65150  0.47120  0.04960  Biso   1.000  H
  C588     1.0000 0.56350  0.39840  0.12070  Biso   1.000  C
  H352     1.0000 0.53850  0.38380  0.13990  Biso   1.000  H
  C589     1.0000 0.64660  0.36670  0.59320  Biso   1.000  C
  H353     1.0000 0.62380  0.39170  0.58370  Biso   1.000  H
  C590     1.0000 0.64210  0.38260  0.17380  Biso   1.000  C
  C591     1.0000 0.37770  0.33420  0.89500  Biso   1.000  C
  C592     1.0000 0.41600  0.35090  0.86500  Biso   1.000  C
  H354     1.0000 0.41540  0.34020  0.83590  Biso   1.000  H
  C593     1.0000 0.45620  0.38420  0.87900  Biso   1.000  C
  H355     1.0000 0.48080  0.39730  0.85870  Biso   1.000  H
  C594     1.0000 0.37700  0.35140  0.93790  Biso   1.000  C
  H356     1.0000 0.34880  0.34260  0.95730  Biso   1.000  H
  C595     1.0000 0.41910  0.38210  0.95140  Biso   1.000  C
  H357     1.0000 0.41980  0.39210  0.98060  Biso   1.000  H
  C596     1.0000 0.11110  0.13180  0.87020  Biso   1.000  C
  O157     1.0000 0.18180  0.11500  0.81420  Biso   1.000  O
  C597     1.0000 0.16750  0.13810  0.84690  Biso   1.000  C
  H358     1.0000 0.71680  0.80790  0.73270  Biso   1.000  H
  C598     1.0000 0.41390  0.41380  0.89740  Biso   1.000  C
  H359     1.0000 0.40880  0.44650  0.89230  Biso   1.000  H
  C599     1.0000 0.37800  0.38140  0.87980  Biso   1.000  C
  H360     1.0000 0.35370  0.39080  0.85760  Biso   1.000  H
  C600     1.0000 0.41510  0.32090  0.92760  Biso   1.000  C
  H361     1.0000 0.41240  0.29060  0.94040  Biso   1.000  H
  C601     1.0000 0.45630  0.35220  0.94130  Biso   1.000  C
  H362     1.0000 0.48200  0.34240  0.96240  Biso   1.000  H
  O158     1.0000 0.80900  0.64220  0.82550  Biso   1.000  O
  C602     1.0000 0.84770  0.66390  0.84410  Biso   1.000  C
  O159     1.0000 0.84690  0.70880  0.84840  Biso   1.000  O
  O160     1.0000 0.82200  0.77940  0.91230  Biso   1.000  O
  O161     1.0000 0.69740  0.78310  0.91340  Biso   1.000  O
  H363     1.0000 0.78080  0.81670  0.73750  Biso   1.000  H
  H364     1.0000 0.74360  0.81160  0.77970  Biso   1.000  H
  Eu8      1.0000 0.24364  0.26293  0.36313  Biso   1.000  Eu
  O162     1.0000 0.10990  0.83000  0.69400  Biso   1.000  O
  O163     1.0000 0.24030  0.27100  0.28540  Biso   1.000  O
  O164     1.0000 0.31780  0.75320  0.20210  Biso   1.000  O
  C603     1.0000 0.40400  0.46660  0.40950  Biso   1.000  C
  O165     1.0000 0.31550  0.31790  0.34900  Biso   1.000  O
  C604     1.0000 0.28180  0.60850  0.03820  Biso   1.000  C
  C605     1.0000 0.24020  0.46030  0.05770  Biso   1.000  C
  H365     1.0000 0.23510  0.48100  0.08150  Biso   1.000  H
  O166     1.0000 0.31190  0.60810  0.68530  Biso   1.000  O
  C606     1.0000 0.28110  0.55880  0.04180  Biso   1.000  C
  H366     1.0000 0.29870  0.54410  0.06550  Biso   1.000  H
  C607     1.0000 0.43080  0.50520  0.43750  Biso   1.000  C
  C608     1.0000 0.49800  0.57080  0.44210  Biso   1.000  C
  C609     1.0000 0.23100  0.60260  0.96860  Biso   1.000  C
  C610     1.0000 0.26050  0.44720  0.98290  Biso   1.000  C
  H367     1.0000 0.26860  0.45900  0.95500  Biso   1.000  H
  C611     1.0000 0.03900  0.98340  0.42970  Biso   1.000  C
  H368     1.0000 0.03040  0.99470  0.40160  Biso   1.000  H
  C612     1.0000 0.47230  0.53320  0.41750  Biso   1.000  C
  H369     1.0000 0.48290  0.52730  0.38850  Biso   1.000  H
  C613     1.0000 0.04450  0.90310  0.58370  Biso   1.000  C
  H370     1.0000 0.00730  0.90070  0.57600  Biso   1.000  H
  C614     1.0000 0.10280  0.05410  0.43770  Biso   1.000  C
  C615     1.0000 0.15700  0.61870  0.91430  Biso   1.000  C
  H371     1.0000 0.13410  0.59650  0.92830  Biso   1.000  H
  C616     1.0000 0.11970  0.88380  0.63430  Biso   1.000  C
  C617     1.0000 0.13560  0.93410  0.57210  Biso   1.000  C
  H372     1.0000 0.16040  0.95240  0.55560  Biso   1.000  H
  C618     1.0000 0.11360  0.09090  0.46560  Biso   1.000  C
  H373     1.0000 0.10640  0.08750  0.49560  Biso   1.000  H
  C619     1.0000 0.13570  0.13440  0.44920  Biso   1.000  C
  H374     1.0000 0.14130  0.16030  0.46800  Biso   1.000  H
  O167     1.0000 0.68160  0.70520  0.34370  Biso   1.000  O
  C620     1.0000 0.22950  0.55320  0.97430  Biso   1.000  C
  H375     1.0000 0.21120  0.53440  0.95350  Biso   1.000  H
  C621     1.0000 0.37210  0.66380  0.12600  Biso   1.000  C
  H376     1.0000 0.40950  0.66310  0.13360  Biso   1.000  H
  C622     1.0000 0.07740  0.00690  0.45440  Biso   1.000  C
  C623     1.0000 0.06410  0.88100  0.62230  Biso   1.000  C
  H377     1.0000 0.03940  0.86430  0.64020  Biso   1.000  H
  C624     1.0000 0.25080  0.47870  0.01750  Biso   1.000  C
  C625     1.0000 0.25800  0.39820  0.99000  Biso   1.000  C
  H378     1.0000 0.26430  0.37740  0.96650  Biso   1.000  H
  C626     1.0000 0.15390  0.91350  0.61030  Biso   1.000  C
  H379     1.0000 0.18980  0.91950  0.62020  Biso   1.000  H
  C627     1.0000 0.35180  0.39540  0.35910  Biso   1.000  C
  C628     1.0000 0.06540  0.95020  0.51360  Biso   1.000  C
  C629     1.0000 0.02570  0.92610  0.48830  Biso   1.000  C
  H380     1.0000 0.00840  0.89910  0.50000  Biso   1.000  H
  C630     1.0000 0.43880  0.54950  0.50450  Biso   1.000  C
  C631     1.0000 0.24640  0.37930  0.03090  Biso   1.000  C
  C632     1.0000 0.34600  0.56970  0.60410  Biso   1.000  C
  H381     1.0000 0.30880  0.56470  0.61100  Biso   1.000  H
  C633     1.0000 0.41580  0.51300  0.47920  Biso   1.000  C
  H382     1.0000 0.38890  0.49330  0.49180  Biso   1.000  H
  C634     1.0000 0.25470  0.53090  0.01050  Biso   1.000  C
  C635     1.0000 0.41930  0.56330  0.55090  Biso   1.000  C
  O168     1.0000 0.38820  0.64720  0.69480  Biso   1.000  O
  O169     1.0000 0.40240  0.72930  0.19580  Biso   1.000  O
  O170     1.0000 0.19530  0.18500  0.35000  Biso   1.000  O
  O171     1.0000 0.18700  0.72960  0.79660  Biso   1.000  O
  O172     1.0000 0.10350  0.70710  0.80660  Biso   1.000  O
  C636     1.0000 0.09050  0.99150  0.49660  Biso   1.000  C
  H383     1.0000 0.11610  0.00850  0.51350  Biso   1.000  H
  O173     1.0000 0.20000  0.21010  0.41850  Biso   1.000  O
  C637     1.0000 0.38160  0.59740  0.63310  Biso   1.000  C
  O174     1.0000 0.23450  0.31350  0.07710  Biso   1.000  O
  C638     1.0000 0.39010  0.47480  0.36600  Biso   1.000  C
  H384     1.0000 0.39760  0.50460  0.35340  Biso   1.000  H
  O175     1.0000 0.19090  0.86880  0.68590  Biso   1.000  O
  C639     1.0000 0.47970  0.57810  0.48480  Biso   1.000  C
  H385     1.0000 0.49510  0.60310  0.50100  Biso   1.000  H
  C640     1.0000 0.11710  0.05720  0.39340  Biso   1.000  C
  H386     1.0000 0.11120  0.03130  0.37460  Biso   1.000  H
  C641     1.0000 0.25660  0.62860  0.00120  Biso   1.000  C
  H387     1.0000 0.25730  0.66190  0.99830  Biso   1.000  H
  C642     1.0000 0.22450  0.68150  0.86880  Biso   1.000  C
  H388     1.0000 0.24840  0.70140  0.85310  Biso   1.000  H
  O176     1.0000 0.30150  0.37140  0.29530  Biso   1.000  O
  C643     1.0000 0.01160  0.94140  0.44640  Biso   1.000  C
  C644     1.0000 0.54060  0.60190  0.42380  Biso   1.000  C
  C645     1.0000 0.39080  0.42270  0.42700  Biso   1.000  C
  H389     1.0000 0.39840  0.41680  0.45660  Biso   1.000  H
  C646     1.0000 0.20980  0.62610  0.92980  Biso   1.000  C
  C647     1.0000 0.96980  0.91710  0.42050  Biso   1.000  C
  C648     1.0000 0.23650  0.41060  0.06450  Biso   1.000  C
  H390     1.0000 0.22730  0.39890  0.09230  Biso   1.000  H
  C649     1.0000 0.08170  0.92910  0.55670  Biso   1.000  C
  C650     1.0000 0.30370  0.63880  0.07510  Biso   1.000  C
  C651     1.0000 0.15140  0.70690  0.81700  Biso   1.000  C
  C652     1.0000 0.14210  0.85820  0.67440  Biso   1.000  C
  O177     1.0000 0.25040  0.29810  0.00900  Biso   1.000  O
  C653     1.0000 0.35480  0.72830  0.18280  Biso   1.000  C
  O178     1.0000 0.67850  0.73590  0.40810  Biso   1.000  O
  C654     1.0000 0.31960  0.35950  0.33270  Biso   1.000  C
  C655     1.0000 0.36670  0.38740  0.40210  Biso   1.000  C
  H391     1.0000 0.36030  0.35730  0.41450  Biso   1.000  H
  C656     1.0000 0.14880  0.13840  0.40500  Biso   1.000  C
  C657     1.0000 0.17070  0.67650  0.85550  Biso   1.000  C
  C658     1.0000 0.14030  0.10000  0.37750  Biso   1.000  C
  H392     1.0000 0.15010  0.10240  0.34790  Biso   1.000  H
  C659     1.0000 0.17920  0.18180  0.38910  Biso   1.000  C
  C660     1.0000 0.33770  0.69500  0.14760  Biso   1.000  C
  C661     1.0000 0.26630  0.66860  0.09740  Biso   1.000  C
  H393     1.0000 0.22880  0.66790  0.09030  Biso   1.000  H
  C662     1.0000 0.93410  0.94270  0.39030  Biso   1.000  C
  H394     1.0000 0.93760  0.97560  0.38610  Biso   1.000  H
  C663     1.0000 0.13740  0.64380  0.87790  Biso   1.000  C
  H395     1.0000 0.10120  0.63860  0.86840  Biso   1.000  H
  C664     1.0000 0.28580  0.70020  0.13120  Biso   1.000  C
  H396     1.0000 0.26280  0.72440  0.14180  Biso   1.000  H
  C665     1.0000 0.36500  0.43930  0.34080  Biso   1.000  C
  H397     1.0000 0.35700  0.44510  0.31130  Biso   1.000  H
  C666     1.0000 0.66690  0.70190  0.38190  Biso   1.000  C
  C667     1.0000 0.24360  0.65750  0.90520  Biso   1.000  C
  H398     1.0000 0.28020  0.66210  0.91400  Biso   1.000  H
  O179     1.0000 0.82730  0.81870  0.35370  Biso   1.000  O
  C668     1.0000 0.95920  0.86840  0.42620  Biso   1.000  C
  H399     1.0000 0.97710  0.85200  0.44890  Biso   1.000  H
  C669     1.0000 0.24390  0.32590  0.03950  Biso   1.000  C
  C670     1.0000 0.89400  0.91630  0.36750  Biso   1.000  C
  H400     1.0000 0.86940  0.93290  0.34940  Biso   1.000  H
  C671     1.0000 0.45500  0.58500  0.58130  Biso   1.000  C
  H401     1.0000 0.49240  0.58800  0.57440  Biso   1.000  H
  C672     1.0000 0.92270  0.84320  0.39910  Biso   1.000  C
  H402     1.0000 0.92100  0.80980  0.40050  Biso   1.000  H
  C673     1.0000 0.36910  0.55100  0.56570  Biso   1.000  C
  H403     1.0000 0.34850  0.52880  0.54960  Biso   1.000  H
  C674     1.0000 0.43650  0.60160  0.62070  Biso   1.000  C
  H404     1.0000 0.46150  0.61620  0.63990  Biso   1.000  H
  C675     1.0000 0.35340  0.63330  0.09320  Biso   1.000  C
  H405     1.0000 0.37620  0.60830  0.08370  Biso   1.000  H
  C676     1.0000 0.35790  0.61740  0.67380  Biso   1.000  C
  C677     1.0000 0.62230  0.66580  0.39500  Biso   1.000  C
  C678     1.0000 0.58400  0.64910  0.36500  Biso   1.000  C
  H406     1.0000 0.58460  0.65980  0.33590  Biso   1.000  H
  C679     1.0000 0.54380  0.61580  0.37900  Biso   1.000  C
  H407     1.0000 0.51920  0.60270  0.35870  Biso   1.000  H
  C680     1.0000 0.62300  0.64860  0.43790  Biso   1.000  C
  H408     1.0000 0.65120  0.65740  0.45730  Biso   1.000  H
  C681     1.0000 0.58090  0.61790  0.45140  Biso   1.000  C
  H409     1.0000 0.58020  0.60790  0.48060  Biso   1.000  H
  C682     1.0000 0.88890  0.86820  0.37020  Biso   1.000  C
  O180     1.0000 0.81820  0.88500  0.31420  Biso   1.000  O
  C683     1.0000 0.83250  0.86190  0.34690  Biso   1.000  C
  H410     1.0000 0.28320  0.19210  0.23270  Biso   1.000  H
  C684     1.0000 0.58610  0.58620  0.39740  Biso   1.000  C
  H411     1.0000 0.59120  0.55350  0.39230  Biso   1.000  H
  C685     1.0000 0.62200  0.61860  0.37980  Biso   1.000  C
  H412     1.0000 0.64630  0.60920  0.35760  Biso   1.000  H
  C686     1.0000 0.58490  0.67910  0.42760  Biso   1.000  C
  H413     1.0000 0.58760  0.70940  0.44040  Biso   1.000  H
  C687     1.0000 0.54370  0.64780  0.44130  Biso   1.000  C
  H414     1.0000 0.51800  0.65760  0.46240  Biso   1.000  H
  O181     1.0000 0.19100  0.35780  0.32550  Biso   1.000  O
  C688     1.0000 0.15230  0.33610  0.34410  Biso   1.000  C
  O182     1.0000 0.15310  0.29120  0.34840  Biso   1.000  O
  O183     1.0000 0.17800  0.22060  0.41230  Biso   1.000  O
  O184     1.0000 0.30260  0.21690  0.41340  Biso   1.000  O
  H415     1.0000 0.21920  0.18330  0.23750  Biso   1.000  H
  H416     1.0000 0.25640  0.18840  0.27970  Biso   1.000  H
  Eu9      1.0000 0.87839  0.27268  0.75000  Biso   1.000  Eu
  Eu10     1.0000 0.12161  0.72732  0.25000  Biso   1.000  Eu
  Eu11     1.0000 0.12161  0.77268  0.75000  Biso   1.000  Eu
  Eu12     1.0000 0.87839  0.22732  0.25000  Biso   1.000  Eu
  Eu13     1.0000 0.77383  0.85184  0.25000  Biso   1.000  Eu
  C689     1.0000 0.74920  0.69930  0.25000  Biso   1.000  C
  C690     1.0000 0.75800  0.74730  0.25000  Biso   1.000  C
  Eu14     1.0000 0.22617  0.14816  0.75000  Biso   1.000  Eu
  C691     1.0000 0.25080  0.30070  0.75000  Biso   1.000  C
  C692     1.0000 0.24200  0.25270  0.75000  Biso   1.000  C
  Eu15     1.0000 0.22617  0.35184  0.25000  Biso   1.000  Eu
  C693     1.0000 0.25080  0.19930  0.25000  Biso   1.000  C
  C694     1.0000 0.24200  0.24730  0.25000  Biso   1.000  C
  Eu16     1.0000 0.77383  0.64816  0.75000  Biso   1.000  Eu
  C695     1.0000 0.74920  0.80070  0.75000  Biso   1.000  C
  C696     1.0000 0.75800  0.75270  0.75000  Biso   1.000  C
  Eu17     1.0000 0.61793  0.29552  0.25000  Biso   1.000  Eu
  Eu18     1.0000 0.38207  0.70448  0.75000  Biso   1.000  Eu
  Eu19     1.0000 0.38207  0.79552  0.25000  Biso   1.000  Eu
  Eu20     1.0000 0.61793  0.20448  0.75000  Biso   1.000  Eu
