data_image0
_cell_length_a       24.435
_cell_length_b       27.255
_cell_length_c       30.407
_cell_angle_alpha    90
_cell_angle_beta     90
_cell_angle_gamma    90

_symmetry_space_group_name_H-M    "P 1"
_symmetry_int_tables_number       1

loop_
  _symmetry_equiv_pos_as_xyz
  'x, y, z'

loop_
  _atom_site_label
  _atom_site_occupancy
  _atom_site_fract_x
  _atom_site_fract_y
  _atom_site_fract_z
  _atom_site_thermal_displace_type
  _atom_site_B_iso_or_equiv
  _atom_site_type_symbol
  Dy1      1.0000 0.74457  0.76063  0.36267  Biso   1.000  Dy
  O1       1.0000 0.69830  0.68250  0.35062  Biso   1.000  O
  O2       1.0000 0.74240  0.76897  0.28569  Biso   1.000  O
  O3       1.0000 0.67810  0.72090  0.41120  Biso   1.000  O
  O4       1.0000 0.66070  0.79740  0.34960  Biso   1.000  O
  O5       1.0000 0.73570  0.81510  0.41828  Biso   1.000  O
  O6       1.0000 0.81100  0.81810  0.34884  Biso   1.000  O
  O7       1.0000 0.82150  0.70620  0.34320  Biso   1.000  O
  O8       1.0000 0.80810  0.72330  0.41220  Biso   1.000  O
  C1       1.0000 0.68170  0.67970  0.38980  Biso   1.000  C
  C2       1.0000 0.65650  0.84220  0.34470  Biso   1.000  C
  C3       1.0000 0.74370  0.82880  0.45760  Biso   1.000  C
  C4       1.0000 0.65490  0.63470  0.40660  Biso   1.000  C
  O9       1.0000 0.68590  0.86650  0.31920  Biso   1.000  O
  C5       1.0000 0.61310  0.86920  0.37040  Biso   1.000  C
  O10      1.0000 0.73940  0.79960  0.48880  Biso   1.000  O
  C6       1.0000 0.74420  0.88270  0.46540  Biso   1.000  C
  C7       1.0000 0.64010  0.63080  0.45060  Biso   1.000  C
  C8       1.0000 0.64570  0.59460  0.37880  Biso   1.000  C
  C9       1.0000 0.60440  0.91840  0.36560  Biso   1.000  C
  C10      1.0000 0.58450  0.84380  0.40110  Biso   1.000  C
  C11      1.0000 0.73210  0.91510  0.43200  Biso   1.000  C
  C12      1.0000 0.75670  0.90090  0.50690  Biso   1.000  C
  H1       1.0000 0.64630  0.65710  0.46940  Biso   1.000  H
  C13      1.0000 0.61660  0.58870  0.46680  Biso   1.000  C
  C14      1.0000 0.62230  0.55230  0.39530  Biso   1.000  C
  H2       1.0000 0.65530  0.59650  0.34930  Biso   1.000  H
  H3       1.0000 0.62530  0.93620  0.34570  Biso   1.000  H
  C15      1.0000 0.56460  0.94200  0.39020  Biso   1.000  C
  C16      1.0000 0.54350  0.86620  0.42490  Biso   1.000  C
  H4       1.0000 0.59260  0.81100  0.40600  Biso   1.000  H
  C17      1.0000 0.73320  0.96480  0.43880  Biso   1.000  C
  H5       1.0000 0.72310  0.90300  0.40430  Biso   1.000  H
  C18      1.0000 0.75870  0.95140  0.51440  Biso   1.000  C
  H6       1.0000 0.76370  0.87930  0.52990  Biso   1.000  H
  C19      1.0000 0.60740  0.54810  0.43920  Biso   1.000  C
  H7       1.0000 0.60660  0.58710  0.49620  Biso   1.000  H
  H8       1.0000 0.61650  0.52590  0.37650  Biso   1.000  H
  C20      1.0000 0.53280  0.91560  0.41990  Biso   1.000  C
  H9       1.0000 0.55910  0.97560  0.38690  Biso   1.000  H
  H10      1.0000 0.52290  0.84780  0.44460  Biso   1.000  H
  H11      1.0000 0.72460  0.98600  0.41580  Biso   1.000  H
  C21      1.0000 0.74730  0.98380  0.48030  Biso   1.000  C
  H12      1.0000 0.76770  0.96330  0.54210  Biso   1.000  H
  C22      1.0000 0.57960  0.50350  0.45630  Biso   1.000  C
  C23      1.0000 0.48960  0.93970  0.44680  Biso   1.000  C
  C24      1.0000 0.74960  0.03770  0.48610  Biso   1.000  C
  C25      1.0000 0.59130  0.48590  0.49800  Biso   1.000  C
  C26      1.0000 0.53980  0.47980  0.43050  Biso   1.000  C
  C27      1.0000 0.47700  0.92300  0.48910  Biso   1.000  C
  C28      1.0000 0.72530  0.05970  0.52270  Biso   1.000  C
  C29      1.0000 0.77600  0.06700  0.45540  Biso   1.000  C
  H13      1.0000 0.61780  0.50130  0.51510  Biso   1.000  H
  C30      1.0000 0.56280  0.44470  0.51480  Biso   1.000  C
  H14      1.0000 0.53300  0.49090  0.40210  Biso   1.000  H
  H15      1.0000 0.49620  0.89630  0.50030  Biso   1.000  H
  H16      1.0000 0.70920  0.04020  0.54420  Biso   1.000  H
  C31      1.0000 0.72500  0.11160  0.52730  Biso   1.000  C
  C32      1.0000 0.77710  0.11780  0.45960  Biso   1.000  C
  H17      1.0000 0.79330  0.05230  0.43150  Biso   1.000  H
  C33      1.0000 0.57550  0.42380  0.55900  Biso   1.000  C
  C34      1.0000 0.69610  0.13400  0.56530  Biso   1.000  C
  C35      1.0000 0.75170  0.13840  0.49620  Biso   1.000  C
  C36      1.0000 0.80410  0.14730  0.42460  Biso   1.000  C
  C37      1.0000 0.62910  0.41750  0.57350  Biso   1.000  C
  C38      1.0000 0.53280  0.40730  0.58510  Biso   1.000  C
  C39      1.0000 0.64560  0.11640  0.57860  Biso   1.000  C
  C40      1.0000 0.71760  0.17490  0.58670  Biso   1.000  C
  H18      1.0000 0.75290  0.17230  0.49950  Biso   1.000  H
  C41      1.0000 0.78310  0.18820  0.40800  Biso   1.000  C
  C42      1.0000 0.85420  0.13130  0.40780  Biso   1.000  C
  H19      1.0000 0.65800  0.42790  0.55600  Biso   1.000  H
  C43      1.0000 0.63940  0.39610  0.61340  Biso   1.000  C
  C44      1.0000 0.54400  0.38460  0.62570  Biso   1.000  C
  H20      1.0000 0.49680  0.41130  0.57590  Biso   1.000  H
  H21      1.0000 0.63080  0.08900  0.56470  Biso   1.000  H
  C45      1.0000 0.61630  0.13910  0.61260  Biso   1.000  C
  C46      1.0000 0.68870  0.19500  0.62140  Biso   1.000  C
  H22      1.0000 0.75080  0.18840  0.57780  Biso   1.000  H
  C47      1.0000 0.81240  0.21550  0.37420  Biso   1.000  C
  H23      1.0000 0.74950  0.19950  0.41800  Biso   1.000  H
  H24      1.0000 0.87000  0.10290  0.41900  Biso   1.000  H
  C48      1.0000 0.88080  0.15680  0.37480  Biso   1.000  C
  C49      1.0000 0.59660  0.37870  0.63990  Biso   1.000  C
  H25      1.0000 0.67530  0.39310  0.62320  Biso   1.000  H
  H26      1.0000 0.51520  0.37350  0.64310  Biso   1.000  H
  H27      1.0000 0.58190  0.12730  0.62060  Biso   1.000  H
  C50      1.0000 0.63810  0.17840  0.63400  Biso   1.000  C
  H28      1.0000 0.70420  0.22100  0.63680  Biso   1.000  H
  H29      1.0000 0.79760  0.24470  0.36360  Biso   1.000  H
  C51      1.0000 0.86120  0.19920  0.35770  Biso   1.000  C
  H30      1.0000 0.91340  0.14430  0.36380  Biso   1.000  H
  C52      1.0000 0.60750  0.35150  0.68130  Biso   1.000  C
  C53      1.0000 0.60850  0.20280  0.67110  Biso   1.000  C
  C54      1.0000 0.89300  0.22540  0.32110  Biso   1.000  C
  O11      1.0000 0.56770  0.33110  0.70040  Biso   1.000  O
  O12      1.0000 0.65530  0.34800  0.69710  Biso   1.000  O
  O13      1.0000 0.63310  0.23530  0.69110  Biso   1.000  O
  O14      1.0000 0.56160  0.18640  0.68060  Biso   1.000  O
  O15      1.0000 0.86870  0.25860  0.30540  Biso   1.000  O
  O16      1.0000 0.93920  0.20870  0.31180  Biso   1.000  O
  O17      1.0000 0.20300  0.37150  0.29481  Biso   1.000  O
  C55      1.0000 0.18450  0.35960  0.33170  Biso   1.000  C
  C56      1.0000 0.15500  0.39920  0.35800  Biso   1.000  C
  C57      1.0000 0.14340  0.44360  0.33930  Biso   1.000  C
  C58      1.0000 0.14140  0.39080  0.40140  Biso   1.000  C
  C59      1.0000 0.11690  0.47990  0.36440  Biso   1.000  C
  H31      1.0000 0.15280  0.44980  0.31020  Biso   1.000  H
  C60      1.0000 0.11730  0.42580  0.42640  Biso   1.000  C
  H32      1.0000 0.14890  0.36030  0.41390  Biso   1.000  H
  H33      1.0000 0.10770  0.50980  0.35150  Biso   1.000  H
  C61      1.0000 0.10460  0.47160  0.40790  Biso   1.000  C
  H34      1.0000 0.10910  0.41960  0.45570  Biso   1.000  H
  C62      1.0000 0.07690  0.51050  0.43450  Biso   1.000  C
  C63      1.0000 0.09330  0.51910  0.47890  Biso   1.000  C
  C64      1.0000 0.03520  0.53840  0.41700  Biso   1.000  C
  C65      1.0000 0.06870  0.55450  0.50390  Biso   1.000  C
  H35      1.0000 0.12130  0.50030  0.49110  Biso   1.000  H
  C66      1.0000 0.00840  0.57450  0.44200  Biso   1.000  C
  H36      1.0000 0.02460  0.53330  0.38800  Biso   1.000  H
  C67      1.0000 0.08610  0.56530  0.55000  Biso   1.000  C
  C68      1.0000 0.02580  0.58180  0.48510  Biso   1.000  C
  C69      1.0000 0.96220  0.60480  0.42430  Biso   1.000  C
  C70      1.0000 0.03990  0.57670  0.58100  Biso   1.000  C
  C71      1.0000 0.13190  0.57320  0.56190  Biso   1.000  C
  H37      1.0000 0.00850  0.60560  0.50200  Biso   1.000  H
  C72      1.0000 0.96070  0.62090  0.38180  Biso   1.000  C
  C73      1.0000 0.92110  0.61890  0.45150  Biso   1.000  C
  H38      1.0000 0.00370  0.57300  0.57220  Biso   1.000  H
  C74      1.0000 0.05220  0.59260  0.62280  Biso   1.000  C
  C75      1.0000 0.14560  0.59370  0.60480  Biso   1.000  C
  H39      1.0000 0.16040  0.56590  0.54270  Biso   1.000  H
  H40      1.0000 0.98840  0.61180  0.36250  Biso   1.000  H
  C76      1.0000 0.91770  0.65130  0.36670  Biso   1.000  C
  H41      1.0000 0.91960  0.60570  0.47970  Biso   1.000  H
  C77      1.0000 0.88150  0.65200  0.43890  Biso   1.000  C
  C78      1.0000 0.10960  0.59810  0.63480  Biso   1.000  C
  H42      1.0000 0.02460  0.59980  0.64290  Biso   1.000  H
  H43      1.0000 0.18130  0.60380  0.61040  Biso   1.000  H
  H44      1.0000 0.91580  0.66050  0.33730  Biso   1.000  H
  C79      1.0000 0.87820  0.66720  0.39650  Biso   1.000  C
  H45      1.0000 0.85690  0.66400  0.45960  Biso   1.000  H
  C80      1.0000 0.11600  0.62620  0.67950  Biso   1.000  C
  C81      1.0000 0.83410  0.70030  0.38270  Biso   1.000  C
  O18      1.0000 0.16290  0.62720  0.69490  Biso   1.000  O
  O19      1.0000 0.07050  0.64090  0.70090  Biso   1.000  O
  H46      1.0000 0.75580  0.68230  0.22020  Biso   1.000  H
  H47      1.0000 0.72250  0.67870  0.26420  Biso   1.000  H
  H48      1.0000 0.78620  0.68570  0.26550  Biso   1.000  H
  O20      1.0000 0.76190  0.80150  0.48730  Biso   1.000  O
  O21      1.0000 0.69650  0.71260  0.41850  Biso   1.000  O
  Dy2      1.0000 0.25543  0.23937  0.86267  Biso   1.000  Dy
  O22      1.0000 0.30170  0.31750  0.85062  Biso   1.000  O
  O23      1.0000 0.25760  0.23103  0.78569  Biso   1.000  O
  O24      1.0000 0.32190  0.27910  0.91120  Biso   1.000  O
  O25      1.0000 0.33930  0.20260  0.84960  Biso   1.000  O
  O26      1.0000 0.26430  0.18490  0.91828  Biso   1.000  O
  O27      1.0000 0.18900  0.18190  0.84884  Biso   1.000  O
  O28      1.0000 0.17850  0.29380  0.84320  Biso   1.000  O
  O29      1.0000 0.19190  0.27670  0.91220  Biso   1.000  O
  C82      1.0000 0.31830  0.32030  0.88980  Biso   1.000  C
  C83      1.0000 0.34350  0.15780  0.84470  Biso   1.000  C
  C84      1.0000 0.25630  0.17120  0.95760  Biso   1.000  C
  C85      1.0000 0.34510  0.36530  0.90660  Biso   1.000  C
  O30      1.0000 0.31410  0.13350  0.81920  Biso   1.000  O
  C86      1.0000 0.38690  0.13080  0.87040  Biso   1.000  C
  O31      1.0000 0.26060  0.20040  0.98880  Biso   1.000  O
  C87      1.0000 0.25580  0.11730  0.96540  Biso   1.000  C
  C88      1.0000 0.35990  0.36920  0.95060  Biso   1.000  C
  C89      1.0000 0.35430  0.40540  0.87880  Biso   1.000  C
  C90      1.0000 0.39560  0.08160  0.86560  Biso   1.000  C
  C91      1.0000 0.41550  0.15620  0.90110  Biso   1.000  C
  C92      1.0000 0.26790  0.08490  0.93200  Biso   1.000  C
  C93      1.0000 0.24330  0.09910  0.00690  Biso   1.000  C
  H49      1.0000 0.35370  0.34290  0.96940  Biso   1.000  H
  C94      1.0000 0.38340  0.41130  0.96680  Biso   1.000  C
  C95      1.0000 0.37770  0.44770  0.89530  Biso   1.000  C
  H50      1.0000 0.34470  0.40350  0.84930  Biso   1.000  H
  H51      1.0000 0.37470  0.06380  0.84570  Biso   1.000  H
  C96      1.0000 0.43540  0.05800  0.89020  Biso   1.000  C
  C97      1.0000 0.45650  0.13380  0.92490  Biso   1.000  C
  H52      1.0000 0.40740  0.18900  0.90600  Biso   1.000  H
  C98      1.0000 0.26680  0.03520  0.93880  Biso   1.000  C
  H53      1.0000 0.27690  0.09700  0.90430  Biso   1.000  H
  C99      1.0000 0.24130  0.04860  0.01440  Biso   1.000  C
  H54      1.0000 0.23630  0.12070  0.02990  Biso   1.000  H
  C100     1.0000 0.39260  0.45190  0.93920  Biso   1.000  C
  H55      1.0000 0.39340  0.41290  0.99620  Biso   1.000  H
  H56      1.0000 0.38350  0.47410  0.87650  Biso   1.000  H
  C101     1.0000 0.46720  0.08440  0.91990  Biso   1.000  C
  H57      1.0000 0.44090  0.02440  0.88690  Biso   1.000  H
  H58      1.0000 0.47710  0.15220  0.94460  Biso   1.000  H
  H59      1.0000 0.27540  0.01400  0.91580  Biso   1.000  H
  C102     1.0000 0.25270  0.01620  0.98030  Biso   1.000  C
  H60      1.0000 0.23230  0.03670  0.04210  Biso   1.000  H
  C103     1.0000 0.42040  0.49650  0.95630  Biso   1.000  C
  C104     1.0000 0.51040  0.06030  0.94680  Biso   1.000  C
  C105     1.0000 0.25040  0.96230  0.98610  Biso   1.000  C
  C106     1.0000 0.40870  0.51410  0.99800  Biso   1.000  C
  C107     1.0000 0.46020  0.52020  0.93050  Biso   1.000  C
  C108     1.0000 0.52300  0.07700  0.98910  Biso   1.000  C
  C109     1.0000 0.27470  0.94030  0.02270  Biso   1.000  C
  C110     1.0000 0.22400  0.93300  0.95540  Biso   1.000  C
  H61      1.0000 0.38220  0.49870  0.01510  Biso   1.000  H
  C111     1.0000 0.43720  0.55530  0.01480  Biso   1.000  C
  H62      1.0000 0.46700  0.50910  0.90210  Biso   1.000  H
  H63      1.0000 0.50380  0.10370  0.00030  Biso   1.000  H
  H64      1.0000 0.29080  0.95980  0.04420  Biso   1.000  H
  C112     1.0000 0.27500  0.88840  0.02730  Biso   1.000  C
  C113     1.0000 0.22290  0.88220  0.95960  Biso   1.000  C
  H65      1.0000 0.20670  0.94770  0.93150  Biso   1.000  H
  C114     1.0000 0.42450  0.57620  0.05900  Biso   1.000  C
  C115     1.0000 0.30390  0.86600  0.06530  Biso   1.000  C
  C116     1.0000 0.24830  0.86160  0.99620  Biso   1.000  C
  C117     1.0000 0.19590  0.85270  0.92460  Biso   1.000  C
  C118     1.0000 0.37090  0.58250  0.07350  Biso   1.000  C
  C119     1.0000 0.46720  0.59270  0.08510  Biso   1.000  C
  C120     1.0000 0.35440  0.88360  0.07860  Biso   1.000  C
  C121     1.0000 0.28240  0.82510  0.08670  Biso   1.000  C
  H66      1.0000 0.24710  0.82770  0.99950  Biso   1.000  H
  C122     1.0000 0.21690  0.81180  0.90800  Biso   1.000  C
  C123     1.0000 0.14580  0.86870  0.90780  Biso   1.000  C
  H67      1.0000 0.34200  0.57210  0.05600  Biso   1.000  H
  C124     1.0000 0.36060  0.60390  0.11340  Biso   1.000  C
  C125     1.0000 0.45600  0.61540  0.12570  Biso   1.000  C
  H68      1.0000 0.50320  0.58870  0.07590  Biso   1.000  H
  H69      1.0000 0.36920  0.91100  0.06470  Biso   1.000  H
  C126     1.0000 0.38370  0.86090  0.11260  Biso   1.000  C
  C127     1.0000 0.31130  0.80500  0.12140  Biso   1.000  C
  H70      1.0000 0.24920  0.81160  0.07780  Biso   1.000  H
  C128     1.0000 0.18760  0.78450  0.87420  Biso   1.000  C
  H71      1.0000 0.25050  0.80050  0.91800  Biso   1.000  H
  H72      1.0000 0.13000  0.89710  0.91900  Biso   1.000  H
  C129     1.0000 0.11920  0.84320  0.87480  Biso   1.000  C
  C130     1.0000 0.40340  0.62130  0.13990  Biso   1.000  C
  H73      1.0000 0.32470  0.60690  0.12320  Biso   1.000  H
  H74      1.0000 0.48480  0.62650  0.14310  Biso   1.000  H
  H75      1.0000 0.41810  0.87270  0.12060  Biso   1.000  H
  C131     1.0000 0.36190  0.82160  0.13400  Biso   1.000  C
  H76      1.0000 0.29580  0.77900  0.13680  Biso   1.000  H
  H77      1.0000 0.20240  0.75530  0.86360  Biso   1.000  H
  C132     1.0000 0.13880  0.80080  0.85770  Biso   1.000  C
  H78      1.0000 0.08660  0.85570  0.86380  Biso   1.000  H
  C133     1.0000 0.39250  0.64850  0.18130  Biso   1.000  C
  C134     1.0000 0.39150  0.79720  0.17110  Biso   1.000  C
  C135     1.0000 0.10700  0.77460  0.82110  Biso   1.000  C
  O32      1.0000 0.43230  0.66890  0.20040  Biso   1.000  O
  O33      1.0000 0.34470  0.65200  0.19710  Biso   1.000  O
  O34      1.0000 0.36690  0.76470  0.19110  Biso   1.000  O
  O35      1.0000 0.43840  0.81360  0.18060  Biso   1.000  O
  O36      1.0000 0.13130  0.74140  0.80540  Biso   1.000  O
  O37      1.0000 0.06080  0.79130  0.81180  Biso   1.000  O
  O38      1.0000 0.79700  0.62850  0.79481  Biso   1.000  O
  C136     1.0000 0.81550  0.64040  0.83170  Biso   1.000  C
  C137     1.0000 0.84500  0.60080  0.85800  Biso   1.000  C
  C138     1.0000 0.85660  0.55640  0.83930  Biso   1.000  C
  C139     1.0000 0.85860  0.60920  0.90140  Biso   1.000  C
  C140     1.0000 0.88310  0.52010  0.86440  Biso   1.000  C
  H79      1.0000 0.84720  0.55020  0.81020  Biso   1.000  H
  C141     1.0000 0.88270  0.57420  0.92640  Biso   1.000  C
  H80      1.0000 0.85110  0.63970  0.91390  Biso   1.000  H
  H81      1.0000 0.89230  0.49020  0.85150  Biso   1.000  H
  C142     1.0000 0.89540  0.52840  0.90790  Biso   1.000  C
  H82      1.0000 0.89090  0.58040  0.95570  Biso   1.000  H
  C143     1.0000 0.92310  0.48950  0.93450  Biso   1.000  C
  C144     1.0000 0.90670  0.48090  0.97890  Biso   1.000  C
  C145     1.0000 0.96480  0.46160  0.91700  Biso   1.000  C
  C146     1.0000 0.93130  0.44550  0.00390  Biso   1.000  C
  H83      1.0000 0.87870  0.49970  0.99110  Biso   1.000  H
  C147     1.0000 0.99160  0.42550  0.94200  Biso   1.000  C
  H84      1.0000 0.97540  0.46670  0.88800  Biso   1.000  H
  C148     1.0000 0.91390  0.43470  0.05000  Biso   1.000  C
  C149     1.0000 0.97420  0.41820  0.98510  Biso   1.000  C
  C150     1.0000 0.03780  0.39520  0.92430  Biso   1.000  C
  C151     1.0000 0.96010  0.42330  0.08100  Biso   1.000  C
  C152     1.0000 0.86810  0.42680  0.06190  Biso   1.000  C
  H85      1.0000 0.99150  0.39440  0.00200  Biso   1.000  H
  C153     1.0000 0.03930  0.37910  0.88180  Biso   1.000  C
  C154     1.0000 0.07890  0.38110  0.95150  Biso   1.000  C
  H86      1.0000 0.99630  0.42700  0.07220  Biso   1.000  H
  C155     1.0000 0.94780  0.40740  0.12280  Biso   1.000  C
  C156     1.0000 0.85440  0.40630  0.10480  Biso   1.000  C
  H87      1.0000 0.83960  0.43410  0.04270  Biso   1.000  H
  H88      1.0000 0.01160  0.38820  0.86250  Biso   1.000  H
  C157     1.0000 0.08230  0.34870  0.86670  Biso   1.000  C
  H89      1.0000 0.08040  0.39430  0.97970  Biso   1.000  H
  C158     1.0000 0.11850  0.34800  0.93890  Biso   1.000  C
  C159     1.0000 0.89040  0.40190  0.13480  Biso   1.000  C
  H90      1.0000 0.97540  0.40020  0.14290  Biso   1.000  H
  H91      1.0000 0.81870  0.39620  0.11040  Biso   1.000  H
  H92      1.0000 0.08420  0.33950  0.83730  Biso   1.000  H
  C160     1.0000 0.12180  0.33280  0.89650  Biso   1.000  C
  H93      1.0000 0.14310  0.33600  0.95960  Biso   1.000  H
  C161     1.0000 0.88400  0.37380  0.17950  Biso   1.000  C
  C162     1.0000 0.16590  0.29970  0.88270  Biso   1.000  C
  O39      1.0000 0.83710  0.37280  0.19490  Biso   1.000  O
  O40      1.0000 0.92950  0.35910  0.20090  Biso   1.000  O
  H94      1.0000 0.24420  0.31770  0.72020  Biso   1.000  H
  H95      1.0000 0.27750  0.32130  0.76420  Biso   1.000  H
  H96      1.0000 0.21380  0.31430  0.76550  Biso   1.000  H
  O41      1.0000 0.23810  0.19850  0.98730  Biso   1.000  O
  O42      1.0000 0.30350  0.28740  0.91850  Biso   1.000  O
  Dy3      1.0000 0.25543  0.26063  0.13733  Biso   1.000  Dy
  O43      1.0000 0.30170  0.18250  0.14938  Biso   1.000  O
  O44      1.0000 0.25760  0.26897  0.21431  Biso   1.000  O
  O45      1.0000 0.32190  0.22090  0.08880  Biso   1.000  O
  O46      1.0000 0.33930  0.29740  0.15040  Biso   1.000  O
  O47      1.0000 0.26430  0.31510  0.08172  Biso   1.000  O
  O48      1.0000 0.18900  0.31810  0.15116  Biso   1.000  O
  O49      1.0000 0.17850  0.20620  0.15680  Biso   1.000  O
  O50      1.0000 0.19190  0.22330  0.08780  Biso   1.000  O
  C163     1.0000 0.31830  0.17970  0.11020  Biso   1.000  C
  C164     1.0000 0.34350  0.34220  0.15530  Biso   1.000  C
  C165     1.0000 0.25630  0.32880  0.04240  Biso   1.000  C
  C166     1.0000 0.34510  0.13470  0.09340  Biso   1.000  C
  O51      1.0000 0.31410  0.36650  0.18080  Biso   1.000  O
  C167     1.0000 0.38690  0.36920  0.12960  Biso   1.000  C
  O52      1.0000 0.26060  0.29960  0.01120  Biso   1.000  O
  C168     1.0000 0.25580  0.38270  0.03460  Biso   1.000  C
  C169     1.0000 0.35990  0.13080  0.04940  Biso   1.000  C
  C170     1.0000 0.35430  0.09460  0.12120  Biso   1.000  C
  C171     1.0000 0.39560  0.41840  0.13440  Biso   1.000  C
  C172     1.0000 0.41550  0.34380  0.09890  Biso   1.000  C
  C173     1.0000 0.26790  0.41510  0.06800  Biso   1.000  C
  C174     1.0000 0.24330  0.40090  0.99310  Biso   1.000  C
  H97      1.0000 0.35370  0.15710  0.03060  Biso   1.000  H
  C175     1.0000 0.38340  0.08870  0.03320  Biso   1.000  C
  C176     1.0000 0.37770  0.05230  0.10470  Biso   1.000  C
  H98      1.0000 0.34470  0.09650  0.15070  Biso   1.000  H
  H99      1.0000 0.37470  0.43620  0.15430  Biso   1.000  H
  C177     1.0000 0.43540  0.44200  0.10980  Biso   1.000  C
  C178     1.0000 0.45650  0.36620  0.07510  Biso   1.000  C
  H100     1.0000 0.40740  0.31100  0.09400  Biso   1.000  H
  C179     1.0000 0.26680  0.46480  0.06120  Biso   1.000  C
  H101     1.0000 0.27690  0.40300  0.09570  Biso   1.000  H
  C180     1.0000 0.24130  0.45140  0.98560  Biso   1.000  C
  H102     1.0000 0.23630  0.37930  0.97010  Biso   1.000  H
  C181     1.0000 0.39260  0.04810  0.06080  Biso   1.000  C
  H103     1.0000 0.39340  0.08710  0.00380  Biso   1.000  H
  H104     1.0000 0.38350  0.02590  0.12350  Biso   1.000  H
  C182     1.0000 0.46720  0.41560  0.08010  Biso   1.000  C
  H105     1.0000 0.44090  0.47560  0.11310  Biso   1.000  H
  H106     1.0000 0.47710  0.34780  0.05540  Biso   1.000  H
  H107     1.0000 0.27540  0.48600  0.08420  Biso   1.000  H
  C183     1.0000 0.25270  0.48380  0.01970  Biso   1.000  C
  H108     1.0000 0.23230  0.46330  0.95790  Biso   1.000  H
  C184     1.0000 0.42040  0.00350  0.04370  Biso   1.000  C
  C185     1.0000 0.51040  0.43970  0.05320  Biso   1.000  C
  C186     1.0000 0.25040  0.53770  0.01390  Biso   1.000  C
  C187     1.0000 0.40870  0.98590  0.00200  Biso   1.000  C
  C188     1.0000 0.46020  0.97980  0.06950  Biso   1.000  C
  C189     1.0000 0.52300  0.42300  0.01090  Biso   1.000  C
  C190     1.0000 0.27470  0.55970  0.97730  Biso   1.000  C
  C191     1.0000 0.22400  0.56700  0.04460  Biso   1.000  C
  H109     1.0000 0.38220  0.00130  0.98490  Biso   1.000  H
  C192     1.0000 0.43720  0.94470  0.98520  Biso   1.000  C
  H110     1.0000 0.46700  0.99090  0.09790  Biso   1.000  H
  H111     1.0000 0.50380  0.39630  0.99970  Biso   1.000  H
  H112     1.0000 0.29080  0.54020  0.95580  Biso   1.000  H
  C193     1.0000 0.27500  0.61160  0.97270  Biso   1.000  C
  C194     1.0000 0.22290  0.61780  0.04040  Biso   1.000  C
  H113     1.0000 0.20670  0.55230  0.06850  Biso   1.000  H
  C195     1.0000 0.42450  0.92380  0.94100  Biso   1.000  C
  C196     1.0000 0.30390  0.63400  0.93470  Biso   1.000  C
  C197     1.0000 0.24830  0.63840  0.00380  Biso   1.000  C
  C198     1.0000 0.19590  0.64730  0.07540  Biso   1.000  C
  C199     1.0000 0.37090  0.91750  0.92650  Biso   1.000  C
  C200     1.0000 0.46720  0.90730  0.91490  Biso   1.000  C
  C201     1.0000 0.35440  0.61640  0.92140  Biso   1.000  C
  C202     1.0000 0.28240  0.67490  0.91330  Biso   1.000  C
  H114     1.0000 0.24710  0.67230  0.00050  Biso   1.000  H
  C203     1.0000 0.21690  0.68820  0.09200  Biso   1.000  C
  C204     1.0000 0.14580  0.63130  0.09220  Biso   1.000  C
  H115     1.0000 0.34200  0.92790  0.94400  Biso   1.000  H
  C205     1.0000 0.36060  0.89610  0.88660  Biso   1.000  C
  C206     1.0000 0.45600  0.88460  0.87430  Biso   1.000  C
  H116     1.0000 0.50320  0.91130  0.92410  Biso   1.000  H
  H117     1.0000 0.36920  0.58900  0.93530  Biso   1.000  H
  C207     1.0000 0.38370  0.63910  0.88740  Biso   1.000  C
  C208     1.0000 0.31130  0.69500  0.87860  Biso   1.000  C
  H118     1.0000 0.24920  0.68840  0.92220  Biso   1.000  H
  C209     1.0000 0.18760  0.71550  0.12580  Biso   1.000  C
  H119     1.0000 0.25050  0.69950  0.08200  Biso   1.000  H
  H120     1.0000 0.13000  0.60290  0.08100  Biso   1.000  H
  C210     1.0000 0.11920  0.65680  0.12520  Biso   1.000  C
  C211     1.0000 0.40340  0.87870  0.86010  Biso   1.000  C
  H121     1.0000 0.32470  0.89310  0.87680  Biso   1.000  H
  H122     1.0000 0.48480  0.87350  0.85690  Biso   1.000  H
  H123     1.0000 0.41810  0.62730  0.87940  Biso   1.000  H
  C212     1.0000 0.36190  0.67840  0.86600  Biso   1.000  C
  H124     1.0000 0.29580  0.72100  0.86320  Biso   1.000  H
  H125     1.0000 0.20240  0.74470  0.13640  Biso   1.000  H
  C213     1.0000 0.13880  0.69920  0.14230  Biso   1.000  C
  H126     1.0000 0.08660  0.64430  0.13620  Biso   1.000  H
  C214     1.0000 0.39250  0.85150  0.81870  Biso   1.000  C
  C215     1.0000 0.39150  0.70280  0.82890  Biso   1.000  C
  C216     1.0000 0.10700  0.72540  0.17890  Biso   1.000  C
  O53      1.0000 0.43230  0.83110  0.79960  Biso   1.000  O
  O54      1.0000 0.34470  0.84800  0.80290  Biso   1.000  O
  O55      1.0000 0.36690  0.73530  0.80890  Biso   1.000  O
  O56      1.0000 0.43840  0.68640  0.81940  Biso   1.000  O
  O57      1.0000 0.13130  0.75860  0.19460  Biso   1.000  O
  O58      1.0000 0.06080  0.70870  0.18820  Biso   1.000  O
  O59      1.0000 0.79700  0.87150  0.20519  Biso   1.000  O
  C217     1.0000 0.81550  0.85960  0.16830  Biso   1.000  C
  C218     1.0000 0.84500  0.89920  0.14200  Biso   1.000  C
  C219     1.0000 0.85660  0.94360  0.16070  Biso   1.000  C
  C220     1.0000 0.85860  0.89080  0.09860  Biso   1.000  C
  C221     1.0000 0.88310  0.97990  0.13560  Biso   1.000  C
  H127     1.0000 0.84720  0.94980  0.18980  Biso   1.000  H
  C222     1.0000 0.88270  0.92580  0.07360  Biso   1.000  C
  H128     1.0000 0.85110  0.86030  0.08610  Biso   1.000  H
  H129     1.0000 0.89230  0.00980  0.14850  Biso   1.000  H
  C223     1.0000 0.89540  0.97160  0.09210  Biso   1.000  C
  H130     1.0000 0.89090  0.91960  0.04430  Biso   1.000  H
  C224     1.0000 0.92310  0.01050  0.06550  Biso   1.000  C
  C225     1.0000 0.90670  0.01910  0.02110  Biso   1.000  C
  C226     1.0000 0.96480  0.03840  0.08300  Biso   1.000  C
  C227     1.0000 0.93130  0.05450  0.99610  Biso   1.000  C
  H131     1.0000 0.87870  0.00030  0.00890  Biso   1.000  H
  C228     1.0000 0.99160  0.07450  0.05800  Biso   1.000  C
  H132     1.0000 0.97540  0.03330  0.11200  Biso   1.000  H
  C229     1.0000 0.91390  0.06530  0.95000  Biso   1.000  C
  C230     1.0000 0.97420  0.08180  0.01490  Biso   1.000  C
  C231     1.0000 0.03780  0.10480  0.07570  Biso   1.000  C
  C232     1.0000 0.96010  0.07670  0.91900  Biso   1.000  C
  C233     1.0000 0.86810  0.07320  0.93810  Biso   1.000  C
  H133     1.0000 0.99150  0.10560  0.99800  Biso   1.000  H
  C234     1.0000 0.03930  0.12090  0.11820  Biso   1.000  C
  C235     1.0000 0.07890  0.11890  0.04850  Biso   1.000  C
  H134     1.0000 0.99630  0.07300  0.92780  Biso   1.000  H
  C236     1.0000 0.94780  0.09260  0.87720  Biso   1.000  C
  C237     1.0000 0.85440  0.09370  0.89520  Biso   1.000  C
  H135     1.0000 0.83960  0.06590  0.95730  Biso   1.000  H
  H136     1.0000 0.01160  0.11180  0.13750  Biso   1.000  H
  C238     1.0000 0.08230  0.15130  0.13330  Biso   1.000  C
  H137     1.0000 0.08040  0.10570  0.02030  Biso   1.000  H
  C239     1.0000 0.11850  0.15200  0.06110  Biso   1.000  C
  C240     1.0000 0.89040  0.09810  0.86520  Biso   1.000  C
  H138     1.0000 0.97540  0.09980  0.85710  Biso   1.000  H
  H139     1.0000 0.81870  0.10380  0.88960  Biso   1.000  H
  H140     1.0000 0.08420  0.16050  0.16270  Biso   1.000  H
  C241     1.0000 0.12180  0.16720  0.10350  Biso   1.000  C
  H141     1.0000 0.14310  0.16400  0.04040  Biso   1.000  H
  C242     1.0000 0.88400  0.12620  0.82050  Biso   1.000  C
  C243     1.0000 0.16590  0.20030  0.11730  Biso   1.000  C
  O60      1.0000 0.83710  0.12720  0.80510  Biso   1.000  O
  O61      1.0000 0.92950  0.14090  0.79910  Biso   1.000  O
  H142     1.0000 0.24420  0.18230  0.27980  Biso   1.000  H
  H143     1.0000 0.27750  0.17870  0.23580  Biso   1.000  H
  H144     1.0000 0.21380  0.18570  0.23450  Biso   1.000  H
  O62      1.0000 0.23810  0.30150  0.01270  Biso   1.000  O
  O63      1.0000 0.30350  0.21260  0.08150  Biso   1.000  O
  Dy4      1.0000 0.74457  0.73937  0.63733  Biso   1.000  Dy
  O64      1.0000 0.69830  0.81750  0.64938  Biso   1.000  O
  O65      1.0000 0.74240  0.73103  0.71431  Biso   1.000  O
  O66      1.0000 0.67810  0.77910  0.58880  Biso   1.000  O
  O67      1.0000 0.66070  0.70260  0.65040  Biso   1.000  O
  O68      1.0000 0.73570  0.68490  0.58172  Biso   1.000  O
  O69      1.0000 0.81100  0.68190  0.65116  Biso   1.000  O
  O70      1.0000 0.82150  0.79380  0.65680  Biso   1.000  O
  O71      1.0000 0.80810  0.77670  0.58780  Biso   1.000  O
  C244     1.0000 0.68170  0.82030  0.61020  Biso   1.000  C
  C245     1.0000 0.65650  0.65780  0.65530  Biso   1.000  C
  C246     1.0000 0.74370  0.67120  0.54240  Biso   1.000  C
  C247     1.0000 0.65490  0.86530  0.59340  Biso   1.000  C
  O72      1.0000 0.68590  0.63350  0.68080  Biso   1.000  O
  C248     1.0000 0.61310  0.63080  0.62960  Biso   1.000  C
  O73      1.0000 0.73940  0.70040  0.51120  Biso   1.000  O
  C249     1.0000 0.74420  0.61730  0.53460  Biso   1.000  C
  C250     1.0000 0.64010  0.86920  0.54940  Biso   1.000  C
  C251     1.0000 0.64570  0.90540  0.62120  Biso   1.000  C
  C252     1.0000 0.60440  0.58160  0.63440  Biso   1.000  C
  C253     1.0000 0.58450  0.65620  0.59890  Biso   1.000  C
  C254     1.0000 0.73210  0.58490  0.56800  Biso   1.000  C
  C255     1.0000 0.75670  0.59910  0.49310  Biso   1.000  C
  H145     1.0000 0.64630  0.84290  0.53060  Biso   1.000  H
  C256     1.0000 0.61660  0.91130  0.53320  Biso   1.000  C
  C257     1.0000 0.62230  0.94770  0.60470  Biso   1.000  C
  H146     1.0000 0.65530  0.90350  0.65070  Biso   1.000  H
  H147     1.0000 0.62530  0.56380  0.65430  Biso   1.000  H
  C258     1.0000 0.56460  0.55800  0.60980  Biso   1.000  C
  C259     1.0000 0.54350  0.63380  0.57510  Biso   1.000  C
  H148     1.0000 0.59260  0.68900  0.59400  Biso   1.000  H
  C260     1.0000 0.73320  0.53520  0.56120  Biso   1.000  C
  H149     1.0000 0.72310  0.59700  0.59570  Biso   1.000  H
  C261     1.0000 0.75870  0.54860  0.48560  Biso   1.000  C
  H150     1.0000 0.76370  0.62070  0.47010  Biso   1.000  H
  C262     1.0000 0.60740  0.95190  0.56080  Biso   1.000  C
  H151     1.0000 0.60660  0.91290  0.50380  Biso   1.000  H
  H152     1.0000 0.61650  0.97410  0.62350  Biso   1.000  H
  C263     1.0000 0.53280  0.58440  0.58010  Biso   1.000  C
  H153     1.0000 0.55910  0.52440  0.61310  Biso   1.000  H
  H154     1.0000 0.52290  0.65220  0.55540  Biso   1.000  H
  H155     1.0000 0.72460  0.51400  0.58420  Biso   1.000  H
  C264     1.0000 0.74730  0.51620  0.51970  Biso   1.000  C
  H156     1.0000 0.76770  0.53670  0.45790  Biso   1.000  H
  C265     1.0000 0.57960  0.99650  0.54370  Biso   1.000  C
  C266     1.0000 0.48960  0.56030  0.55320  Biso   1.000  C
  C267     1.0000 0.74960  0.46230  0.51390  Biso   1.000  C
  C268     1.0000 0.59130  0.01410  0.50200  Biso   1.000  C
  C269     1.0000 0.53980  0.02020  0.56950  Biso   1.000  C
  C270     1.0000 0.47700  0.57700  0.51090  Biso   1.000  C
  C271     1.0000 0.72530  0.44030  0.47730  Biso   1.000  C
  C272     1.0000 0.77600  0.43300  0.54460  Biso   1.000  C
  H157     1.0000 0.61780  0.99870  0.48490  Biso   1.000  H
  C273     1.0000 0.56280  0.05530  0.48520  Biso   1.000  C
  H158     1.0000 0.53300  0.00910  0.59790  Biso   1.000  H
  H159     1.0000 0.49620  0.60370  0.49970  Biso   1.000  H
  H160     1.0000 0.70920  0.45980  0.45580  Biso   1.000  H
  C274     1.0000 0.72500  0.38840  0.47270  Biso   1.000  C
  C275     1.0000 0.77710  0.38220  0.54040  Biso   1.000  C
  H161     1.0000 0.79330  0.44770  0.56850  Biso   1.000  H
  C276     1.0000 0.57550  0.07620  0.44100  Biso   1.000  C
  C277     1.0000 0.69610  0.36600  0.43470  Biso   1.000  C
  C278     1.0000 0.75170  0.36160  0.50380  Biso   1.000  C
  C279     1.0000 0.80410  0.35270  0.57540  Biso   1.000  C
  C280     1.0000 0.62910  0.08250  0.42650  Biso   1.000  C
  C281     1.0000 0.53280  0.09270  0.41490  Biso   1.000  C
  C282     1.0000 0.64560  0.38360  0.42140  Biso   1.000  C
  C283     1.0000 0.71760  0.32510  0.41330  Biso   1.000  C
  H162     1.0000 0.75290  0.32770  0.50050  Biso   1.000  H
  C284     1.0000 0.78310  0.31180  0.59200  Biso   1.000  C
  C285     1.0000 0.85420  0.36870  0.59220  Biso   1.000  C
  H163     1.0000 0.65800  0.07210  0.44400  Biso   1.000  H
  C286     1.0000 0.63940  0.10390  0.38660  Biso   1.000  C
  C287     1.0000 0.54400  0.11540  0.37430  Biso   1.000  C
  H164     1.0000 0.49680  0.08870  0.42410  Biso   1.000  H
  H165     1.0000 0.63080  0.41100  0.43530  Biso   1.000  H
  C288     1.0000 0.61630  0.36090  0.38740  Biso   1.000  C
  C289     1.0000 0.68870  0.30500  0.37860  Biso   1.000  C
  H166     1.0000 0.75080  0.31160  0.42220  Biso   1.000  H
  C290     1.0000 0.81240  0.28450  0.62580  Biso   1.000  C
  H167     1.0000 0.74950  0.30050  0.58200  Biso   1.000  H
  H168     1.0000 0.87000  0.39710  0.58100  Biso   1.000  H
  C291     1.0000 0.88080  0.34320  0.62520  Biso   1.000  C
  C292     1.0000 0.59660  0.12130  0.36010  Biso   1.000  C
  H169     1.0000 0.67530  0.10690  0.37680  Biso   1.000  H
  H170     1.0000 0.51520  0.12650  0.35690  Biso   1.000  H
  H171     1.0000 0.58190  0.37270  0.37940  Biso   1.000  H
  C293     1.0000 0.63810  0.32160  0.36600  Biso   1.000  C
  H172     1.0000 0.70420  0.27900  0.36320  Biso   1.000  H
  H173     1.0000 0.79760  0.25530  0.63640  Biso   1.000  H
  C294     1.0000 0.86120  0.30080  0.64230  Biso   1.000  C
  H174     1.0000 0.91340  0.35570  0.63620  Biso   1.000  H
  C295     1.0000 0.60750  0.14850  0.31870  Biso   1.000  C
  C296     1.0000 0.60850  0.29720  0.32890  Biso   1.000  C
  C297     1.0000 0.89300  0.27460  0.67890  Biso   1.000  C
  O74      1.0000 0.56770  0.16890  0.29960  Biso   1.000  O
  O75      1.0000 0.65530  0.15200  0.30290  Biso   1.000  O
  O76      1.0000 0.63310  0.26470  0.30890  Biso   1.000  O
  O77      1.0000 0.56160  0.31360  0.31940  Biso   1.000  O
  O78      1.0000 0.86870  0.24140  0.69460  Biso   1.000  O
  O79      1.0000 0.93920  0.29130  0.68820  Biso   1.000  O
  O80      1.0000 0.20300  0.12850  0.70519  Biso   1.000  O
  C298     1.0000 0.18450  0.14040  0.66830  Biso   1.000  C
  C299     1.0000 0.15500  0.10080  0.64200  Biso   1.000  C
  C300     1.0000 0.14340  0.05640  0.66070  Biso   1.000  C
  C301     1.0000 0.14140  0.10920  0.59860  Biso   1.000  C
  C302     1.0000 0.11690  0.02010  0.63560  Biso   1.000  C
  H175     1.0000 0.15280  0.05020  0.68980  Biso   1.000  H
  C303     1.0000 0.11730  0.07420  0.57360  Biso   1.000  C
  H176     1.0000 0.14890  0.13970  0.58610  Biso   1.000  H
  H177     1.0000 0.10770  0.99020  0.64850  Biso   1.000  H
  C304     1.0000 0.10460  0.02840  0.59210  Biso   1.000  C
  H178     1.0000 0.10910  0.08040  0.54430  Biso   1.000  H
  C305     1.0000 0.07690  0.98950  0.56550  Biso   1.000  C
  C306     1.0000 0.09330  0.98090  0.52110  Biso   1.000  C
  C307     1.0000 0.03520  0.96160  0.58300  Biso   1.000  C
  C308     1.0000 0.06870  0.94550  0.49610  Biso   1.000  C
  H179     1.0000 0.12130  0.99970  0.50890  Biso   1.000  H
  C309     1.0000 0.00840  0.92550  0.55800  Biso   1.000  C
  H180     1.0000 0.02460  0.96670  0.61200  Biso   1.000  H
  C310     1.0000 0.08610  0.93470  0.45000  Biso   1.000  C
  C311     1.0000 0.02580  0.91820  0.51490  Biso   1.000  C
  C312     1.0000 0.96220  0.89520  0.57570  Biso   1.000  C
  C313     1.0000 0.03990  0.92330  0.41900  Biso   1.000  C
  C314     1.0000 0.13190  0.92680  0.43810  Biso   1.000  C
  H181     1.0000 0.00850  0.89440  0.49800  Biso   1.000  H
  C315     1.0000 0.96070  0.87910  0.61820  Biso   1.000  C
  C316     1.0000 0.92110  0.88110  0.54850  Biso   1.000  C
  H182     1.0000 0.00370  0.92700  0.42780  Biso   1.000  H
  C317     1.0000 0.05220  0.90740  0.37720  Biso   1.000  C
  C318     1.0000 0.14560  0.90630  0.39520  Biso   1.000  C
  H183     1.0000 0.16040  0.93410  0.45730  Biso   1.000  H
  H184     1.0000 0.98840  0.88820  0.63750  Biso   1.000  H
  C319     1.0000 0.91770  0.84870  0.63330  Biso   1.000  C
  H185     1.0000 0.91960  0.89430  0.52030  Biso   1.000  H
  C320     1.0000 0.88150  0.84800  0.56110  Biso   1.000  C
  C321     1.0000 0.10960  0.90190  0.36520  Biso   1.000  C
  H186     1.0000 0.02460  0.90020  0.35710  Biso   1.000  H
  H187     1.0000 0.18130  0.89620  0.38960  Biso   1.000  H
  H188     1.0000 0.91580  0.83950  0.66270  Biso   1.000  H
  C322     1.0000 0.87820  0.83280  0.60350  Biso   1.000  C
  H189     1.0000 0.85690  0.83600  0.54040  Biso   1.000  H
  C323     1.0000 0.11600  0.87380  0.32050  Biso   1.000  C
  C324     1.0000 0.83410  0.79970  0.61730  Biso   1.000  C
  O81      1.0000 0.16290  0.87280  0.30510  Biso   1.000  O
  O82      1.0000 0.07050  0.85910  0.29910  Biso   1.000  O
  H190     1.0000 0.75580  0.81770  0.77980  Biso   1.000  H
  H191     1.0000 0.72250  0.82130  0.73580  Biso   1.000  H
  H192     1.0000 0.78620  0.81430  0.73450  Biso   1.000  H
  O83      1.0000 0.76190  0.69850  0.51270  Biso   1.000  O
  O84      1.0000 0.69650  0.78740  0.58150  Biso   1.000  O
  Dy5      1.0000 0.25543  0.23937  0.63733  Biso   1.000  Dy
  O85      1.0000 0.30170  0.31750  0.64938  Biso   1.000  O
  O86      1.0000 0.25760  0.23103  0.71431  Biso   1.000  O
  O87      1.0000 0.32190  0.27910  0.58880  Biso   1.000  O
  O88      1.0000 0.33930  0.20260  0.65040  Biso   1.000  O
  O89      1.0000 0.26430  0.18490  0.58172  Biso   1.000  O
  O90      1.0000 0.18900  0.18190  0.65116  Biso   1.000  O
  O91      1.0000 0.17850  0.29380  0.65680  Biso   1.000  O
  O92      1.0000 0.19190  0.27670  0.58780  Biso   1.000  O
  C325     1.0000 0.31830  0.32030  0.61020  Biso   1.000  C
  C326     1.0000 0.34350  0.15780  0.65530  Biso   1.000  C
  C327     1.0000 0.25630  0.17120  0.54240  Biso   1.000  C
  C328     1.0000 0.34510  0.36530  0.59340  Biso   1.000  C
  O93      1.0000 0.31410  0.13350  0.68080  Biso   1.000  O
  C329     1.0000 0.38690  0.13080  0.62960  Biso   1.000  C
  O94      1.0000 0.26060  0.20040  0.51120  Biso   1.000  O
  C330     1.0000 0.25580  0.11730  0.53460  Biso   1.000  C
  C331     1.0000 0.35990  0.36920  0.54940  Biso   1.000  C
  C332     1.0000 0.35430  0.40540  0.62120  Biso   1.000  C
  C333     1.0000 0.39560  0.08160  0.63440  Biso   1.000  C
  C334     1.0000 0.41550  0.15620  0.59890  Biso   1.000  C
  C335     1.0000 0.26790  0.08490  0.56800  Biso   1.000  C
  C336     1.0000 0.24330  0.09910  0.49310  Biso   1.000  C
  H193     1.0000 0.35370  0.34290  0.53060  Biso   1.000  H
  C337     1.0000 0.38340  0.41130  0.53320  Biso   1.000  C
  C338     1.0000 0.37770  0.44770  0.60470  Biso   1.000  C
  H194     1.0000 0.34470  0.40350  0.65070  Biso   1.000  H
  H195     1.0000 0.37470  0.06380  0.65430  Biso   1.000  H
  C339     1.0000 0.43540  0.05800  0.60980  Biso   1.000  C
  C340     1.0000 0.45650  0.13380  0.57510  Biso   1.000  C
  H196     1.0000 0.40740  0.18900  0.59400  Biso   1.000  H
  C341     1.0000 0.26680  0.03520  0.56120  Biso   1.000  C
  H197     1.0000 0.27690  0.09700  0.59570  Biso   1.000  H
  C342     1.0000 0.24130  0.04860  0.48560  Biso   1.000  C
  H198     1.0000 0.23630  0.12070  0.47010  Biso   1.000  H
  C343     1.0000 0.39260  0.45190  0.56080  Biso   1.000  C
  H199     1.0000 0.39340  0.41290  0.50380  Biso   1.000  H
  H200     1.0000 0.38350  0.47410  0.62350  Biso   1.000  H
  C344     1.0000 0.46720  0.08440  0.58010  Biso   1.000  C
  H201     1.0000 0.44090  0.02440  0.61310  Biso   1.000  H
  H202     1.0000 0.47710  0.15220  0.55540  Biso   1.000  H
  H203     1.0000 0.27540  0.01400  0.58420  Biso   1.000  H
  C345     1.0000 0.25270  0.01620  0.51970  Biso   1.000  C
  H204     1.0000 0.23230  0.03670  0.45790  Biso   1.000  H
  C346     1.0000 0.42040  0.49650  0.54370  Biso   1.000  C
  C347     1.0000 0.51040  0.06030  0.55320  Biso   1.000  C
  C348     1.0000 0.25040  0.96230  0.51390  Biso   1.000  C
  C349     1.0000 0.40870  0.51410  0.50200  Biso   1.000  C
  C350     1.0000 0.46020  0.52020  0.56950  Biso   1.000  C
  C351     1.0000 0.52300  0.07700  0.51090  Biso   1.000  C
  C352     1.0000 0.27470  0.94030  0.47730  Biso   1.000  C
  C353     1.0000 0.22400  0.93300  0.54460  Biso   1.000  C
  H205     1.0000 0.38220  0.49870  0.48490  Biso   1.000  H
  C354     1.0000 0.43720  0.55530  0.48520  Biso   1.000  C
  H206     1.0000 0.46700  0.50910  0.59790  Biso   1.000  H
  H207     1.0000 0.50380  0.10370  0.49970  Biso   1.000  H
  H208     1.0000 0.29080  0.95980  0.45580  Biso   1.000  H
  C355     1.0000 0.27500  0.88840  0.47270  Biso   1.000  C
  C356     1.0000 0.22290  0.88220  0.54040  Biso   1.000  C
  H209     1.0000 0.20670  0.94770  0.56850  Biso   1.000  H
  C357     1.0000 0.42450  0.57620  0.44100  Biso   1.000  C
  C358     1.0000 0.30390  0.86600  0.43470  Biso   1.000  C
  C359     1.0000 0.24830  0.86160  0.50380  Biso   1.000  C
  C360     1.0000 0.19590  0.85270  0.57540  Biso   1.000  C
  C361     1.0000 0.37090  0.58250  0.42650  Biso   1.000  C
  C362     1.0000 0.46720  0.59270  0.41490  Biso   1.000  C
  C363     1.0000 0.35440  0.88360  0.42140  Biso   1.000  C
  C364     1.0000 0.28240  0.82510  0.41330  Biso   1.000  C
  H210     1.0000 0.24710  0.82770  0.50050  Biso   1.000  H
  C365     1.0000 0.21690  0.81180  0.59200  Biso   1.000  C
  C366     1.0000 0.14580  0.86870  0.59220  Biso   1.000  C
  H211     1.0000 0.34200  0.57210  0.44400  Biso   1.000  H
  C367     1.0000 0.36060  0.60390  0.38660  Biso   1.000  C
  C368     1.0000 0.45600  0.61540  0.37430  Biso   1.000  C
  H212     1.0000 0.50320  0.58870  0.42410  Biso   1.000  H
  H213     1.0000 0.36920  0.91100  0.43530  Biso   1.000  H
  C369     1.0000 0.38370  0.86090  0.38740  Biso   1.000  C
  C370     1.0000 0.31130  0.80500  0.37860  Biso   1.000  C
  H214     1.0000 0.24920  0.81160  0.42220  Biso   1.000  H
  C371     1.0000 0.18760  0.78450  0.62580  Biso   1.000  C
  H215     1.0000 0.25050  0.80050  0.58200  Biso   1.000  H
  H216     1.0000 0.13000  0.89710  0.58100  Biso   1.000  H
  C372     1.0000 0.11920  0.84320  0.62520  Biso   1.000  C
  C373     1.0000 0.40340  0.62130  0.36010  Biso   1.000  C
  H217     1.0000 0.32470  0.60690  0.37680  Biso   1.000  H
  H218     1.0000 0.48480  0.62650  0.35690  Biso   1.000  H
  H219     1.0000 0.41810  0.87270  0.37940  Biso   1.000  H
  C374     1.0000 0.36190  0.82160  0.36600  Biso   1.000  C
  H220     1.0000 0.29580  0.77900  0.36320  Biso   1.000  H
  H221     1.0000 0.20240  0.75530  0.63640  Biso   1.000  H
  C375     1.0000 0.13880  0.80080  0.64230  Biso   1.000  C
  H222     1.0000 0.08660  0.85570  0.63620  Biso   1.000  H
  C376     1.0000 0.39250  0.64850  0.31870  Biso   1.000  C
  C377     1.0000 0.39150  0.79720  0.32890  Biso   1.000  C
  C378     1.0000 0.10700  0.77460  0.67890  Biso   1.000  C
  O95      1.0000 0.43230  0.66890  0.29960  Biso   1.000  O
  O96      1.0000 0.34470  0.65200  0.30290  Biso   1.000  O
  O97      1.0000 0.36690  0.76470  0.30890  Biso   1.000  O
  O98      1.0000 0.43840  0.81360  0.31940  Biso   1.000  O
  O99      1.0000 0.13130  0.74140  0.69460  Biso   1.000  O
  O100     1.0000 0.06080  0.79130  0.68820  Biso   1.000  O
  O101     1.0000 0.79700  0.62850  0.70519  Biso   1.000  O
  C379     1.0000 0.81550  0.64040  0.66830  Biso   1.000  C
  C380     1.0000 0.84500  0.60080  0.64200  Biso   1.000  C
  C381     1.0000 0.85660  0.55640  0.66070  Biso   1.000  C
  C382     1.0000 0.85860  0.60920  0.59860  Biso   1.000  C
  C383     1.0000 0.88310  0.52010  0.63560  Biso   1.000  C
  H223     1.0000 0.84720  0.55020  0.68980  Biso   1.000  H
  C384     1.0000 0.88270  0.57420  0.57360  Biso   1.000  C
  H224     1.0000 0.85110  0.63970  0.58610  Biso   1.000  H
  H225     1.0000 0.89230  0.49020  0.64850  Biso   1.000  H
  C385     1.0000 0.89540  0.52840  0.59210  Biso   1.000  C
  H226     1.0000 0.89090  0.58040  0.54430  Biso   1.000  H
  C386     1.0000 0.92310  0.48950  0.56550  Biso   1.000  C
  C387     1.0000 0.90670  0.48090  0.52110  Biso   1.000  C
  C388     1.0000 0.96480  0.46160  0.58300  Biso   1.000  C
  C389     1.0000 0.93130  0.44550  0.49610  Biso   1.000  C
  H227     1.0000 0.87870  0.49970  0.50890  Biso   1.000  H
  C390     1.0000 0.99160  0.42550  0.55800  Biso   1.000  C
  H228     1.0000 0.97540  0.46670  0.61200  Biso   1.000  H
  C391     1.0000 0.91390  0.43470  0.45000  Biso   1.000  C
  C392     1.0000 0.97420  0.41820  0.51490  Biso   1.000  C
  C393     1.0000 0.03780  0.39520  0.57570  Biso   1.000  C
  C394     1.0000 0.96010  0.42330  0.41900  Biso   1.000  C
  C395     1.0000 0.86810  0.42680  0.43810  Biso   1.000  C
  H229     1.0000 0.99150  0.39440  0.49800  Biso   1.000  H
  C396     1.0000 0.03930  0.37910  0.61820  Biso   1.000  C
  C397     1.0000 0.07890  0.38110  0.54850  Biso   1.000  C
  H230     1.0000 0.99630  0.42700  0.42780  Biso   1.000  H
  C398     1.0000 0.94780  0.40740  0.37720  Biso   1.000  C
  C399     1.0000 0.85440  0.40630  0.39520  Biso   1.000  C
  H231     1.0000 0.83960  0.43410  0.45730  Biso   1.000  H
  H232     1.0000 0.01160  0.38820  0.63750  Biso   1.000  H
  C400     1.0000 0.08230  0.34870  0.63330  Biso   1.000  C
  H233     1.0000 0.08040  0.39430  0.52030  Biso   1.000  H
  C401     1.0000 0.11850  0.34800  0.56110  Biso   1.000  C
  C402     1.0000 0.89040  0.40190  0.36520  Biso   1.000  C
  H234     1.0000 0.97540  0.40020  0.35710  Biso   1.000  H
  H235     1.0000 0.81870  0.39620  0.38960  Biso   1.000  H
  H236     1.0000 0.08420  0.33950  0.66270  Biso   1.000  H
  C403     1.0000 0.12180  0.33280  0.60350  Biso   1.000  C
  H237     1.0000 0.14310  0.33600  0.54040  Biso   1.000  H
  C404     1.0000 0.88400  0.37380  0.32050  Biso   1.000  C
  C405     1.0000 0.16590  0.29970  0.61730  Biso   1.000  C
  O102     1.0000 0.83710  0.37280  0.30510  Biso   1.000  O
  O103     1.0000 0.92950  0.35910  0.29910  Biso   1.000  O
  H238     1.0000 0.24420  0.31770  0.77980  Biso   1.000  H
  H239     1.0000 0.27750  0.32130  0.73580  Biso   1.000  H
  H240     1.0000 0.21380  0.31430  0.73450  Biso   1.000  H
  O104     1.0000 0.23810  0.19850  0.51270  Biso   1.000  O
  O105     1.0000 0.30350  0.28740  0.58150  Biso   1.000  O
  Dy6      1.0000 0.74457  0.76063  0.13733  Biso   1.000  Dy
  O106     1.0000 0.69830  0.68250  0.14938  Biso   1.000  O
  O107     1.0000 0.74240  0.76897  0.21431  Biso   1.000  O
  O108     1.0000 0.67810  0.72090  0.08880  Biso   1.000  O
  O109     1.0000 0.66070  0.79740  0.15040  Biso   1.000  O
  O110     1.0000 0.73570  0.81510  0.08172  Biso   1.000  O
  O111     1.0000 0.81100  0.81810  0.15116  Biso   1.000  O
  O112     1.0000 0.82150  0.70620  0.15680  Biso   1.000  O
  O113     1.0000 0.80810  0.72330  0.08780  Biso   1.000  O
  C406     1.0000 0.68170  0.67970  0.11020  Biso   1.000  C
  C407     1.0000 0.65650  0.84220  0.15530  Biso   1.000  C
  C408     1.0000 0.74370  0.82880  0.04240  Biso   1.000  C
  C409     1.0000 0.65490  0.63470  0.09340  Biso   1.000  C
  O114     1.0000 0.68590  0.86650  0.18080  Biso   1.000  O
  C410     1.0000 0.61310  0.86920  0.12960  Biso   1.000  C
  O115     1.0000 0.73940  0.79960  0.01120  Biso   1.000  O
  C411     1.0000 0.74420  0.88270  0.03460  Biso   1.000  C
  C412     1.0000 0.64010  0.63080  0.04940  Biso   1.000  C
  C413     1.0000 0.64570  0.59460  0.12120  Biso   1.000  C
  C414     1.0000 0.60440  0.91840  0.13440  Biso   1.000  C
  C415     1.0000 0.58450  0.84380  0.09890  Biso   1.000  C
  C416     1.0000 0.73210  0.91510  0.06800  Biso   1.000  C
  C417     1.0000 0.75670  0.90090  0.99310  Biso   1.000  C
  H241     1.0000 0.64630  0.65710  0.03060  Biso   1.000  H
  C418     1.0000 0.61660  0.58870  0.03320  Biso   1.000  C
  C419     1.0000 0.62230  0.55230  0.10470  Biso   1.000  C
  H242     1.0000 0.65530  0.59650  0.15070  Biso   1.000  H
  H243     1.0000 0.62530  0.93620  0.15430  Biso   1.000  H
  C420     1.0000 0.56460  0.94200  0.10980  Biso   1.000  C
  C421     1.0000 0.54350  0.86620  0.07510  Biso   1.000  C
  H244     1.0000 0.59260  0.81100  0.09400  Biso   1.000  H
  C422     1.0000 0.73320  0.96480  0.06120  Biso   1.000  C
  H245     1.0000 0.72310  0.90300  0.09570  Biso   1.000  H
  C423     1.0000 0.75870  0.95140  0.98560  Biso   1.000  C
  H246     1.0000 0.76370  0.87930  0.97010  Biso   1.000  H
  C424     1.0000 0.60740  0.54810  0.06080  Biso   1.000  C
  H247     1.0000 0.60660  0.58710  0.00380  Biso   1.000  H
  H248     1.0000 0.61650  0.52590  0.12350  Biso   1.000  H
  C425     1.0000 0.53280  0.91560  0.08010  Biso   1.000  C
  H249     1.0000 0.55910  0.97560  0.11310  Biso   1.000  H
  H250     1.0000 0.52290  0.84780  0.05540  Biso   1.000  H
  H251     1.0000 0.72460  0.98600  0.08420  Biso   1.000  H
  C426     1.0000 0.74730  0.98380  0.01970  Biso   1.000  C
  H252     1.0000 0.76770  0.96330  0.95790  Biso   1.000  H
  C427     1.0000 0.57960  0.50350  0.04370  Biso   1.000  C
  C428     1.0000 0.48960  0.93970  0.05320  Biso   1.000  C
  C429     1.0000 0.74960  0.03770  0.01390  Biso   1.000  C
  C430     1.0000 0.59130  0.48590  0.00200  Biso   1.000  C
  C431     1.0000 0.53980  0.47980  0.06950  Biso   1.000  C
  C432     1.0000 0.47700  0.92300  0.01090  Biso   1.000  C
  C433     1.0000 0.72530  0.05970  0.97730  Biso   1.000  C
  C434     1.0000 0.77600  0.06700  0.04460  Biso   1.000  C
  H253     1.0000 0.61780  0.50130  0.98490  Biso   1.000  H
  C435     1.0000 0.56280  0.44470  0.98520  Biso   1.000  C
  H254     1.0000 0.53300  0.49090  0.09790  Biso   1.000  H
  H255     1.0000 0.49620  0.89630  0.99970  Biso   1.000  H
  H256     1.0000 0.70920  0.04020  0.95580  Biso   1.000  H
  C436     1.0000 0.72500  0.11160  0.97270  Biso   1.000  C
  C437     1.0000 0.77710  0.11780  0.04040  Biso   1.000  C
  H257     1.0000 0.79330  0.05230  0.06850  Biso   1.000  H
  C438     1.0000 0.57550  0.42380  0.94100  Biso   1.000  C
  C439     1.0000 0.69610  0.13400  0.93470  Biso   1.000  C
  C440     1.0000 0.75170  0.13840  0.00380  Biso   1.000  C
  C441     1.0000 0.80410  0.14730  0.07540  Biso   1.000  C
  C442     1.0000 0.62910  0.41750  0.92650  Biso   1.000  C
  C443     1.0000 0.53280  0.40730  0.91490  Biso   1.000  C
  C444     1.0000 0.64560  0.11640  0.92140  Biso   1.000  C
  C445     1.0000 0.71760  0.17490  0.91330  Biso   1.000  C
  H258     1.0000 0.75290  0.17230  0.00050  Biso   1.000  H
  C446     1.0000 0.78310  0.18820  0.09200  Biso   1.000  C
  C447     1.0000 0.85420  0.13130  0.09220  Biso   1.000  C
  H259     1.0000 0.65800  0.42790  0.94400  Biso   1.000  H
  C448     1.0000 0.63940  0.39610  0.88660  Biso   1.000  C
  C449     1.0000 0.54400  0.38460  0.87430  Biso   1.000  C
  H260     1.0000 0.49680  0.41130  0.92410  Biso   1.000  H
  H261     1.0000 0.63080  0.08900  0.93530  Biso   1.000  H
  C450     1.0000 0.61630  0.13910  0.88740  Biso   1.000  C
  C451     1.0000 0.68870  0.19500  0.87860  Biso   1.000  C
  H262     1.0000 0.75080  0.18840  0.92220  Biso   1.000  H
  C452     1.0000 0.81240  0.21550  0.12580  Biso   1.000  C
  H263     1.0000 0.74950  0.19950  0.08200  Biso   1.000  H
  H264     1.0000 0.87000  0.10290  0.08100  Biso   1.000  H
  C453     1.0000 0.88080  0.15680  0.12520  Biso   1.000  C
  C454     1.0000 0.59660  0.37870  0.86010  Biso   1.000  C
  H265     1.0000 0.67530  0.39310  0.87680  Biso   1.000  H
  H266     1.0000 0.51520  0.37350  0.85690  Biso   1.000  H
  H267     1.0000 0.58190  0.12730  0.87940  Biso   1.000  H
  C455     1.0000 0.63810  0.17840  0.86600  Biso   1.000  C
  H268     1.0000 0.70420  0.22100  0.86320  Biso   1.000  H
  H269     1.0000 0.79760  0.24470  0.13640  Biso   1.000  H
  C456     1.0000 0.86120  0.19920  0.14230  Biso   1.000  C
  H270     1.0000 0.91340  0.14430  0.13620  Biso   1.000  H
  C457     1.0000 0.60750  0.35150  0.81870  Biso   1.000  C
  C458     1.0000 0.60850  0.20280  0.82890  Biso   1.000  C
  C459     1.0000 0.89300  0.22540  0.17890  Biso   1.000  C
  O116     1.0000 0.56770  0.33110  0.79960  Biso   1.000  O
  O117     1.0000 0.65530  0.34800  0.80290  Biso   1.000  O
  O118     1.0000 0.63310  0.23530  0.80890  Biso   1.000  O
  O119     1.0000 0.56160  0.18640  0.81940  Biso   1.000  O
  O120     1.0000 0.86870  0.25860  0.19460  Biso   1.000  O
  O121     1.0000 0.93920  0.20870  0.18820  Biso   1.000  O
  O122     1.0000 0.20300  0.37150  0.20519  Biso   1.000  O
  C460     1.0000 0.18450  0.35960  0.16830  Biso   1.000  C
  C461     1.0000 0.15500  0.39920  0.14200  Biso   1.000  C
  C462     1.0000 0.14340  0.44360  0.16070  Biso   1.000  C
  C463     1.0000 0.14140  0.39080  0.09860  Biso   1.000  C
  C464     1.0000 0.11690  0.47990  0.13560  Biso   1.000  C
  H271     1.0000 0.15280  0.44980  0.18980  Biso   1.000  H
  C465     1.0000 0.11730  0.42580  0.07360  Biso   1.000  C
  H272     1.0000 0.14890  0.36030  0.08610  Biso   1.000  H
  H273     1.0000 0.10770  0.50980  0.14850  Biso   1.000  H
  C466     1.0000 0.10460  0.47160  0.09210  Biso   1.000  C
  H274     1.0000 0.10910  0.41960  0.04430  Biso   1.000  H
  C467     1.0000 0.07690  0.51050  0.06550  Biso   1.000  C
  C468     1.0000 0.09330  0.51910  0.02110  Biso   1.000  C
  C469     1.0000 0.03520  0.53840  0.08300  Biso   1.000  C
  C470     1.0000 0.06870  0.55450  0.99610  Biso   1.000  C
  H275     1.0000 0.12130  0.50030  0.00890  Biso   1.000  H
  C471     1.0000 0.00840  0.57450  0.05800  Biso   1.000  C
  H276     1.0000 0.02460  0.53330  0.11200  Biso   1.000  H
  C472     1.0000 0.08610  0.56530  0.95000  Biso   1.000  C
  C473     1.0000 0.02580  0.58180  0.01490  Biso   1.000  C
  C474     1.0000 0.96220  0.60480  0.07570  Biso   1.000  C
  C475     1.0000 0.03990  0.57670  0.91900  Biso   1.000  C
  C476     1.0000 0.13190  0.57320  0.93810  Biso   1.000  C
  H277     1.0000 0.00850  0.60560  0.99800  Biso   1.000  H
  C477     1.0000 0.96070  0.62090  0.11820  Biso   1.000  C
  C478     1.0000 0.92110  0.61890  0.04850  Biso   1.000  C
  H278     1.0000 0.00370  0.57300  0.92780  Biso   1.000  H
  C479     1.0000 0.05220  0.59260  0.87720  Biso   1.000  C
  C480     1.0000 0.14560  0.59370  0.89520  Biso   1.000  C
  H279     1.0000 0.16040  0.56590  0.95730  Biso   1.000  H
  H280     1.0000 0.98840  0.61180  0.13750  Biso   1.000  H
  C481     1.0000 0.91770  0.65130  0.13330  Biso   1.000  C
  H281     1.0000 0.91960  0.60570  0.02030  Biso   1.000  H
  C482     1.0000 0.88150  0.65200  0.06110  Biso   1.000  C
  C483     1.0000 0.10960  0.59810  0.86520  Biso   1.000  C
  H282     1.0000 0.02460  0.59980  0.85710  Biso   1.000  H
  H283     1.0000 0.18130  0.60380  0.88960  Biso   1.000  H
  H284     1.0000 0.91580  0.66050  0.16270  Biso   1.000  H
  C484     1.0000 0.87820  0.66720  0.10350  Biso   1.000  C
  H285     1.0000 0.85690  0.66400  0.04040  Biso   1.000  H
  C485     1.0000 0.11600  0.62620  0.82050  Biso   1.000  C
  C486     1.0000 0.83410  0.70030  0.11730  Biso   1.000  C
  O123     1.0000 0.16290  0.62720  0.80510  Biso   1.000  O
  O124     1.0000 0.07050  0.64090  0.79910  Biso   1.000  O
  H286     1.0000 0.75580  0.68230  0.27980  Biso   1.000  H
  H287     1.0000 0.72250  0.67870  0.23580  Biso   1.000  H
  H288     1.0000 0.78620  0.68570  0.23450  Biso   1.000  H
  O125     1.0000 0.76190  0.80150  0.01270  Biso   1.000  O
  O126     1.0000 0.69650  0.71260  0.08150  Biso   1.000  O
  Dy7      1.0000 0.74457  0.73937  0.86267  Biso   1.000  Dy
  O127     1.0000 0.69830  0.81750  0.85062  Biso   1.000  O
  O128     1.0000 0.74240  0.73103  0.78569  Biso   1.000  O
  O129     1.0000 0.67810  0.77910  0.91120  Biso   1.000  O
  O130     1.0000 0.66070  0.70260  0.84960  Biso   1.000  O
  O131     1.0000 0.73570  0.68490  0.91828  Biso   1.000  O
  O132     1.0000 0.81100  0.68190  0.84884  Biso   1.000  O
  O133     1.0000 0.82150  0.79380  0.84320  Biso   1.000  O
  O134     1.0000 0.80810  0.77670  0.91220  Biso   1.000  O
  C487     1.0000 0.68170  0.82030  0.88980  Biso   1.000  C
  C488     1.0000 0.65650  0.65780  0.84470  Biso   1.000  C
  C489     1.0000 0.74370  0.67120  0.95760  Biso   1.000  C
  C490     1.0000 0.65490  0.86530  0.90660  Biso   1.000  C
  O135     1.0000 0.68590  0.63350  0.81920  Biso   1.000  O
  C491     1.0000 0.61310  0.63080  0.87040  Biso   1.000  C
  O136     1.0000 0.73940  0.70040  0.98880  Biso   1.000  O
  C492     1.0000 0.74420  0.61730  0.96540  Biso   1.000  C
  C493     1.0000 0.64010  0.86920  0.95060  Biso   1.000  C
  C494     1.0000 0.64570  0.90540  0.87880  Biso   1.000  C
  C495     1.0000 0.60440  0.58160  0.86560  Biso   1.000  C
  C496     1.0000 0.58450  0.65620  0.90110  Biso   1.000  C
  C497     1.0000 0.73210  0.58490  0.93200  Biso   1.000  C
  C498     1.0000 0.75670  0.59910  0.00690  Biso   1.000  C
  H289     1.0000 0.64630  0.84290  0.96940  Biso   1.000  H
  C499     1.0000 0.61660  0.91130  0.96680  Biso   1.000  C
  C500     1.0000 0.62230  0.94770  0.89530  Biso   1.000  C
  H290     1.0000 0.65530  0.90350  0.84930  Biso   1.000  H
  H291     1.0000 0.62530  0.56380  0.84570  Biso   1.000  H
  C501     1.0000 0.56460  0.55800  0.89020  Biso   1.000  C
  C502     1.0000 0.54350  0.63380  0.92490  Biso   1.000  C
  H292     1.0000 0.59260  0.68900  0.90600  Biso   1.000  H
  C503     1.0000 0.73320  0.53520  0.93880  Biso   1.000  C
  H293     1.0000 0.72310  0.59700  0.90430  Biso   1.000  H
  C504     1.0000 0.75870  0.54860  0.01440  Biso   1.000  C
  H294     1.0000 0.76370  0.62070  0.02990  Biso   1.000  H
  C505     1.0000 0.60740  0.95190  0.93920  Biso   1.000  C
  H295     1.0000 0.60660  0.91290  0.99620  Biso   1.000  H
  H296     1.0000 0.61650  0.97410  0.87650  Biso   1.000  H
  C506     1.0000 0.53280  0.58440  0.91990  Biso   1.000  C
  H297     1.0000 0.55910  0.52440  0.88690  Biso   1.000  H
  H298     1.0000 0.52290  0.65220  0.94460  Biso   1.000  H
  H299     1.0000 0.72460  0.51400  0.91580  Biso   1.000  H
  C507     1.0000 0.74730  0.51620  0.98030  Biso   1.000  C
  H300     1.0000 0.76770  0.53670  0.04210  Biso   1.000  H
  C508     1.0000 0.57960  0.99650  0.95630  Biso   1.000  C
  C509     1.0000 0.48960  0.56030  0.94680  Biso   1.000  C
  C510     1.0000 0.74960  0.46230  0.98610  Biso   1.000  C
  C511     1.0000 0.59130  0.01410  0.99800  Biso   1.000  C
  C512     1.0000 0.53980  0.02020  0.93050  Biso   1.000  C
  C513     1.0000 0.47700  0.57700  0.98910  Biso   1.000  C
  C514     1.0000 0.72530  0.44030  0.02270  Biso   1.000  C
  C515     1.0000 0.77600  0.43300  0.95540  Biso   1.000  C
  H301     1.0000 0.61780  0.99870  0.01510  Biso   1.000  H
  C516     1.0000 0.56280  0.05530  0.01480  Biso   1.000  C
  H302     1.0000 0.53300  0.00910  0.90210  Biso   1.000  H
  H303     1.0000 0.49620  0.60370  0.00030  Biso   1.000  H
  H304     1.0000 0.70920  0.45980  0.04420  Biso   1.000  H
  C517     1.0000 0.72500  0.38840  0.02730  Biso   1.000  C
  C518     1.0000 0.77710  0.38220  0.95960  Biso   1.000  C
  H305     1.0000 0.79330  0.44770  0.93150  Biso   1.000  H
  C519     1.0000 0.57550  0.07620  0.05900  Biso   1.000  C
  C520     1.0000 0.69610  0.36600  0.06530  Biso   1.000  C
  C521     1.0000 0.75170  0.36160  0.99620  Biso   1.000  C
  C522     1.0000 0.80410  0.35270  0.92460  Biso   1.000  C
  C523     1.0000 0.62910  0.08250  0.07350  Biso   1.000  C
  C524     1.0000 0.53280  0.09270  0.08510  Biso   1.000  C
  C525     1.0000 0.64560  0.38360  0.07860  Biso   1.000  C
  C526     1.0000 0.71760  0.32510  0.08670  Biso   1.000  C
  H306     1.0000 0.75290  0.32770  0.99950  Biso   1.000  H
  C527     1.0000 0.78310  0.31180  0.90800  Biso   1.000  C
  C528     1.0000 0.85420  0.36870  0.90780  Biso   1.000  C
  H307     1.0000 0.65800  0.07210  0.05600  Biso   1.000  H
  C529     1.0000 0.63940  0.10390  0.11340  Biso   1.000  C
  C530     1.0000 0.54400  0.11540  0.12570  Biso   1.000  C
  H308     1.0000 0.49680  0.08870  0.07590  Biso   1.000  H
  H309     1.0000 0.63080  0.41100  0.06470  Biso   1.000  H
  C531     1.0000 0.61630  0.36090  0.11260  Biso   1.000  C
  C532     1.0000 0.68870  0.30500  0.12140  Biso   1.000  C
  H310     1.0000 0.75080  0.31160  0.07780  Biso   1.000  H
  C533     1.0000 0.81240  0.28450  0.87420  Biso   1.000  C
  H311     1.0000 0.74950  0.30050  0.91800  Biso   1.000  H
  H312     1.0000 0.87000  0.39710  0.91900  Biso   1.000  H
  C534     1.0000 0.88080  0.34320  0.87480  Biso   1.000  C
  C535     1.0000 0.59660  0.12130  0.13990  Biso   1.000  C
  H313     1.0000 0.67530  0.10690  0.12320  Biso   1.000  H
  H314     1.0000 0.51520  0.12650  0.14310  Biso   1.000  H
  H315     1.0000 0.58190  0.37270  0.12060  Biso   1.000  H
  C536     1.0000 0.63810  0.32160  0.13400  Biso   1.000  C
  H316     1.0000 0.70420  0.27900  0.13680  Biso   1.000  H
  H317     1.0000 0.79760  0.25530  0.86360  Biso   1.000  H
  C537     1.0000 0.86120  0.30080  0.85770  Biso   1.000  C
  H318     1.0000 0.91340  0.35570  0.86380  Biso   1.000  H
  C538     1.0000 0.60750  0.14850  0.18130  Biso   1.000  C
  C539     1.0000 0.60850  0.29720  0.17110  Biso   1.000  C
  C540     1.0000 0.89300  0.27460  0.82110  Biso   1.000  C
  O137     1.0000 0.56770  0.16890  0.20040  Biso   1.000  O
  O138     1.0000 0.65530  0.15200  0.19710  Biso   1.000  O
  O139     1.0000 0.63310  0.26470  0.19110  Biso   1.000  O
  O140     1.0000 0.56160  0.31360  0.18060  Biso   1.000  O
  O141     1.0000 0.86870  0.24140  0.80540  Biso   1.000  O
  O142     1.0000 0.93920  0.29130  0.81180  Biso   1.000  O
  O143     1.0000 0.20300  0.12850  0.79481  Biso   1.000  O
  C541     1.0000 0.18450  0.14040  0.83170  Biso   1.000  C
  C542     1.0000 0.15500  0.10080  0.85800  Biso   1.000  C
  C543     1.0000 0.14340  0.05640  0.83930  Biso   1.000  C
  C544     1.0000 0.14140  0.10920  0.90140  Biso   1.000  C
  C545     1.0000 0.11690  0.02010  0.86440  Biso   1.000  C
  H319     1.0000 0.15280  0.05020  0.81020  Biso   1.000  H
  C546     1.0000 0.11730  0.07420  0.92640  Biso   1.000  C
  H320     1.0000 0.14890  0.13970  0.91390  Biso   1.000  H
  H321     1.0000 0.10770  0.99020  0.85150  Biso   1.000  H
  C547     1.0000 0.10460  0.02840  0.90790  Biso   1.000  C
  H322     1.0000 0.10910  0.08040  0.95570  Biso   1.000  H
  C548     1.0000 0.07690  0.98950  0.93450  Biso   1.000  C
  C549     1.0000 0.09330  0.98090  0.97890  Biso   1.000  C
  C550     1.0000 0.03520  0.96160  0.91700  Biso   1.000  C
  C551     1.0000 0.06870  0.94550  0.00390  Biso   1.000  C
  H323     1.0000 0.12130  0.99970  0.99110  Biso   1.000  H
  C552     1.0000 0.00840  0.92550  0.94200  Biso   1.000  C
  H324     1.0000 0.02460  0.96670  0.88800  Biso   1.000  H
  C553     1.0000 0.08610  0.93470  0.05000  Biso   1.000  C
  C554     1.0000 0.02580  0.91820  0.98510  Biso   1.000  C
  C555     1.0000 0.96220  0.89520  0.92430  Biso   1.000  C
  C556     1.0000 0.03990  0.92330  0.08100  Biso   1.000  C
  C557     1.0000 0.13190  0.92680  0.06190  Biso   1.000  C
  H325     1.0000 0.00850  0.89440  0.00200  Biso   1.000  H
  C558     1.0000 0.96070  0.87910  0.88180  Biso   1.000  C
  C559     1.0000 0.92110  0.88110  0.95150  Biso   1.000  C
  H326     1.0000 0.00370  0.92700  0.07220  Biso   1.000  H
  C560     1.0000 0.05220  0.90740  0.12280  Biso   1.000  C
  C561     1.0000 0.14560  0.90630  0.10480  Biso   1.000  C
  H327     1.0000 0.16040  0.93410  0.04270  Biso   1.000  H
  H328     1.0000 0.98840  0.88820  0.86250  Biso   1.000  H
  C562     1.0000 0.91770  0.84870  0.86670  Biso   1.000  C
  H329     1.0000 0.91960  0.89430  0.97970  Biso   1.000  H
  C563     1.0000 0.88150  0.84800  0.93890  Biso   1.000  C
  C564     1.0000 0.10960  0.90190  0.13480  Biso   1.000  C
  H330     1.0000 0.02460  0.90020  0.14290  Biso   1.000  H
  H331     1.0000 0.18130  0.89620  0.11040  Biso   1.000  H
  H332     1.0000 0.91580  0.83950  0.83730  Biso   1.000  H
  C565     1.0000 0.87820  0.83280  0.89650  Biso   1.000  C
  H333     1.0000 0.85690  0.83600  0.95960  Biso   1.000  H
  C566     1.0000 0.11600  0.87380  0.17950  Biso   1.000  C
  C567     1.0000 0.83410  0.79970  0.88270  Biso   1.000  C
  O144     1.0000 0.16290  0.87280  0.19490  Biso   1.000  O
  O145     1.0000 0.07050  0.85910  0.20090  Biso   1.000  O
  H334     1.0000 0.75580  0.81770  0.72020  Biso   1.000  H
  H335     1.0000 0.72250  0.82130  0.76420  Biso   1.000  H
  H336     1.0000 0.78620  0.81430  0.76550  Biso   1.000  H
  O146     1.0000 0.76190  0.69850  0.98730  Biso   1.000  O
  O147     1.0000 0.69650  0.78740  0.91850  Biso   1.000  O
  Dy8      1.0000 0.25543  0.26063  0.36267  Biso   1.000  Dy
  O148     1.0000 0.30170  0.18250  0.35062  Biso   1.000  O
  O149     1.0000 0.25760  0.26897  0.28569  Biso   1.000  O
  O150     1.0000 0.32190  0.22090  0.41120  Biso   1.000  O
  O151     1.0000 0.33930  0.29740  0.34960  Biso   1.000  O
  O152     1.0000 0.26430  0.31510  0.41828  Biso   1.000  O
  O153     1.0000 0.18900  0.31810  0.34884  Biso   1.000  O
  O154     1.0000 0.17850  0.20620  0.34320  Biso   1.000  O
  O155     1.0000 0.19190  0.22330  0.41220  Biso   1.000  O
  C568     1.0000 0.31830  0.17970  0.38980  Biso   1.000  C
  C569     1.0000 0.34350  0.34220  0.34470  Biso   1.000  C
  C570     1.0000 0.25630  0.32880  0.45760  Biso   1.000  C
  C571     1.0000 0.34510  0.13470  0.40660  Biso   1.000  C
  O156     1.0000 0.31410  0.36650  0.31920  Biso   1.000  O
  C572     1.0000 0.38690  0.36920  0.37040  Biso   1.000  C
  O157     1.0000 0.26060  0.29960  0.48880  Biso   1.000  O
  C573     1.0000 0.25580  0.38270  0.46540  Biso   1.000  C
  C574     1.0000 0.35990  0.13080  0.45060  Biso   1.000  C
  C575     1.0000 0.35430  0.09460  0.37880  Biso   1.000  C
  C576     1.0000 0.39560  0.41840  0.36560  Biso   1.000  C
  C577     1.0000 0.41550  0.34380  0.40110  Biso   1.000  C
  C578     1.0000 0.26790  0.41510  0.43200  Biso   1.000  C
  C579     1.0000 0.24330  0.40090  0.50690  Biso   1.000  C
  H337     1.0000 0.35370  0.15710  0.46940  Biso   1.000  H
  C580     1.0000 0.38340  0.08870  0.46680  Biso   1.000  C
  C581     1.0000 0.37770  0.05230  0.39530  Biso   1.000  C
  H338     1.0000 0.34470  0.09650  0.34930  Biso   1.000  H
  H339     1.0000 0.37470  0.43620  0.34570  Biso   1.000  H
  C582     1.0000 0.43540  0.44200  0.39020  Biso   1.000  C
  C583     1.0000 0.45650  0.36620  0.42490  Biso   1.000  C
  H340     1.0000 0.40740  0.31100  0.40600  Biso   1.000  H
  C584     1.0000 0.26680  0.46480  0.43880  Biso   1.000  C
  H341     1.0000 0.27690  0.40300  0.40430  Biso   1.000  H
  C585     1.0000 0.24130  0.45140  0.51440  Biso   1.000  C
  H342     1.0000 0.23630  0.37930  0.52990  Biso   1.000  H
  C586     1.0000 0.39260  0.04810  0.43920  Biso   1.000  C
  H343     1.0000 0.39340  0.08710  0.49620  Biso   1.000  H
  H344     1.0000 0.38350  0.02590  0.37650  Biso   1.000  H
  C587     1.0000 0.46720  0.41560  0.41990  Biso   1.000  C
  H345     1.0000 0.44090  0.47560  0.38690  Biso   1.000  H
  H346     1.0000 0.47710  0.34780  0.44460  Biso   1.000  H
  H347     1.0000 0.27540  0.48600  0.41580  Biso   1.000  H
  C588     1.0000 0.25270  0.48380  0.48030  Biso   1.000  C
  H348     1.0000 0.23230  0.46330  0.54210  Biso   1.000  H
  C589     1.0000 0.42040  0.00350  0.45630  Biso   1.000  C
  C590     1.0000 0.51040  0.43970  0.44680  Biso   1.000  C
  C591     1.0000 0.25040  0.53770  0.48610  Biso   1.000  C
  C592     1.0000 0.40870  0.98590  0.49800  Biso   1.000  C
  C593     1.0000 0.46020  0.97980  0.43050  Biso   1.000  C
  C594     1.0000 0.52300  0.42300  0.48910  Biso   1.000  C
  C595     1.0000 0.27470  0.55970  0.52270  Biso   1.000  C
  C596     1.0000 0.22400  0.56700  0.45540  Biso   1.000  C
  H349     1.0000 0.38220  0.00130  0.51510  Biso   1.000  H
  C597     1.0000 0.43720  0.94470  0.51480  Biso   1.000  C
  H350     1.0000 0.46700  0.99090  0.40210  Biso   1.000  H
  H351     1.0000 0.50380  0.39630  0.50030  Biso   1.000  H
  H352     1.0000 0.29080  0.54020  0.54420  Biso   1.000  H
  C598     1.0000 0.27500  0.61160  0.52730  Biso   1.000  C
  C599     1.0000 0.22290  0.61780  0.45960  Biso   1.000  C
  H353     1.0000 0.20670  0.55230  0.43150  Biso   1.000  H
  C600     1.0000 0.42450  0.92380  0.55900  Biso   1.000  C
  C601     1.0000 0.30390  0.63400  0.56530  Biso   1.000  C
  C602     1.0000 0.24830  0.63840  0.49620  Biso   1.000  C
  C603     1.0000 0.19590  0.64730  0.42460  Biso   1.000  C
  C604     1.0000 0.37090  0.91750  0.57350  Biso   1.000  C
  C605     1.0000 0.46720  0.90730  0.58510  Biso   1.000  C
  C606     1.0000 0.35440  0.61640  0.57860  Biso   1.000  C
  C607     1.0000 0.28240  0.67490  0.58670  Biso   1.000  C
  H354     1.0000 0.24710  0.67230  0.49950  Biso   1.000  H
  C608     1.0000 0.21690  0.68820  0.40800  Biso   1.000  C
  C609     1.0000 0.14580  0.63130  0.40780  Biso   1.000  C
  H355     1.0000 0.34200  0.92790  0.55600  Biso   1.000  H
  C610     1.0000 0.36060  0.89610  0.61340  Biso   1.000  C
  C611     1.0000 0.45600  0.88460  0.62570  Biso   1.000  C
  H356     1.0000 0.50320  0.91130  0.57590  Biso   1.000  H
  H357     1.0000 0.36920  0.58900  0.56470  Biso   1.000  H
  C612     1.0000 0.38370  0.63910  0.61260  Biso   1.000  C
  C613     1.0000 0.31130  0.69500  0.62140  Biso   1.000  C
  H358     1.0000 0.24920  0.68840  0.57780  Biso   1.000  H
  C614     1.0000 0.18760  0.71550  0.37420  Biso   1.000  C
  H359     1.0000 0.25050  0.69950  0.41800  Biso   1.000  H
  H360     1.0000 0.13000  0.60290  0.41900  Biso   1.000  H
  C615     1.0000 0.11920  0.65680  0.37480  Biso   1.000  C
  C616     1.0000 0.40340  0.87870  0.63990  Biso   1.000  C
  H361     1.0000 0.32470  0.89310  0.62320  Biso   1.000  H
  H362     1.0000 0.48480  0.87350  0.64310  Biso   1.000  H
  H363     1.0000 0.41810  0.62730  0.62060  Biso   1.000  H
  C617     1.0000 0.36190  0.67840  0.63400  Biso   1.000  C
  H364     1.0000 0.29580  0.72100  0.63680  Biso   1.000  H
  H365     1.0000 0.20240  0.74470  0.36360  Biso   1.000  H
  C618     1.0000 0.13880  0.69920  0.35770  Biso   1.000  C
  H366     1.0000 0.08660  0.64430  0.36380  Biso   1.000  H
  C619     1.0000 0.39250  0.85150  0.68130  Biso   1.000  C
  C620     1.0000 0.39150  0.70280  0.67110  Biso   1.000  C
  C621     1.0000 0.10700  0.72540  0.32110  Biso   1.000  C
  O158     1.0000 0.43230  0.83110  0.70040  Biso   1.000  O
  O159     1.0000 0.34470  0.84800  0.69710  Biso   1.000  O
  O160     1.0000 0.36690  0.73530  0.69110  Biso   1.000  O
  O161     1.0000 0.43840  0.68640  0.68060  Biso   1.000  O
  O162     1.0000 0.13130  0.75860  0.30540  Biso   1.000  O
  O163     1.0000 0.06080  0.70870  0.31180  Biso   1.000  O
  O164     1.0000 0.79700  0.87150  0.29481  Biso   1.000  O
  C622     1.0000 0.81550  0.85960  0.33170  Biso   1.000  C
  C623     1.0000 0.84500  0.89920  0.35800  Biso   1.000  C
  C624     1.0000 0.85660  0.94360  0.33930  Biso   1.000  C
  C625     1.0000 0.85860  0.89080  0.40140  Biso   1.000  C
  C626     1.0000 0.88310  0.97990  0.36440  Biso   1.000  C
  H367     1.0000 0.84720  0.94980  0.31020  Biso   1.000  H
  C627     1.0000 0.88270  0.92580  0.42640  Biso   1.000  C
  H368     1.0000 0.85110  0.86030  0.41390  Biso   1.000  H
  H369     1.0000 0.89230  0.00980  0.35150  Biso   1.000  H
  C628     1.0000 0.89540  0.97160  0.40790  Biso   1.000  C
  H370     1.0000 0.89090  0.91960  0.45570  Biso   1.000  H
  C629     1.0000 0.92310  0.01050  0.43450  Biso   1.000  C
  C630     1.0000 0.90670  0.01910  0.47890  Biso   1.000  C
  C631     1.0000 0.96480  0.03840  0.41700  Biso   1.000  C
  C632     1.0000 0.93130  0.05450  0.50390  Biso   1.000  C
  H371     1.0000 0.87870  0.00030  0.49110  Biso   1.000  H
  C633     1.0000 0.99160  0.07450  0.44200  Biso   1.000  C
  H372     1.0000 0.97540  0.03330  0.38800  Biso   1.000  H
  C634     1.0000 0.91390  0.06530  0.55000  Biso   1.000  C
  C635     1.0000 0.97420  0.08180  0.48510  Biso   1.000  C
  C636     1.0000 0.03780  0.10480  0.42430  Biso   1.000  C
  C637     1.0000 0.96010  0.07670  0.58100  Biso   1.000  C
  C638     1.0000 0.86810  0.07320  0.56190  Biso   1.000  C
  H373     1.0000 0.99150  0.10560  0.50200  Biso   1.000  H
  C639     1.0000 0.03930  0.12090  0.38180  Biso   1.000  C
  C640     1.0000 0.07890  0.11890  0.45150  Biso   1.000  C
  H374     1.0000 0.99630  0.07300  0.57220  Biso   1.000  H
  C641     1.0000 0.94780  0.09260  0.62280  Biso   1.000  C
  C642     1.0000 0.85440  0.09370  0.60480  Biso   1.000  C
  H375     1.0000 0.83960  0.06590  0.54270  Biso   1.000  H
  H376     1.0000 0.01160  0.11180  0.36250  Biso   1.000  H
  C643     1.0000 0.08230  0.15130  0.36670  Biso   1.000  C
  H377     1.0000 0.08040  0.10570  0.47970  Biso   1.000  H
  C644     1.0000 0.11850  0.15200  0.43890  Biso   1.000  C
  C645     1.0000 0.89040  0.09810  0.63480  Biso   1.000  C
  H378     1.0000 0.97540  0.09980  0.64290  Biso   1.000  H
  H379     1.0000 0.81870  0.10380  0.61040  Biso   1.000  H
  H380     1.0000 0.08420  0.16050  0.33730  Biso   1.000  H
  C646     1.0000 0.12180  0.16720  0.39650  Biso   1.000  C
  H381     1.0000 0.14310  0.16400  0.45960  Biso   1.000  H
  C647     1.0000 0.88400  0.12620  0.67950  Biso   1.000  C
  C648     1.0000 0.16590  0.20030  0.38270  Biso   1.000  C
  O165     1.0000 0.83710  0.12720  0.69490  Biso   1.000  O
  O166     1.0000 0.92950  0.14090  0.70090  Biso   1.000  O
  H382     1.0000 0.24420  0.18230  0.22020  Biso   1.000  H
  H383     1.0000 0.27750  0.17870  0.26420  Biso   1.000  H
  H384     1.0000 0.21380  0.18570  0.26550  Biso   1.000  H
  O167     1.0000 0.23810  0.30150  0.48730  Biso   1.000  O
  O168     1.0000 0.30350  0.21260  0.41850  Biso   1.000  O
  C649     1.0000 0.74630  0.74430  0.25000  Biso   1.000  C
  Dy9      1.0000 0.72428  0.85048  0.25000  Biso   1.000  Dy
  C650     1.0000 0.75320  0.69390  0.25000  Biso   1.000  C
  Dy10     1.0000 0.87278  0.31286  0.25000  Biso   1.000  Dy
  C651     1.0000 0.25370  0.25570  0.75000  Biso   1.000  C
  Dy11     1.0000 0.27572  0.14952  0.75000  Biso   1.000  Dy
  C652     1.0000 0.24680  0.30610  0.75000  Biso   1.000  C
  Dy12     1.0000 0.12722  0.68714  0.75000  Biso   1.000  Dy
  C653     1.0000 0.25370  0.24430  0.25000  Biso   1.000  C
  Dy13     1.0000 0.27572  0.35048  0.25000  Biso   1.000  Dy
  C654     1.0000 0.24680  0.19390  0.25000  Biso   1.000  C
  Dy14     1.0000 0.12722  0.81286  0.25000  Biso   1.000  Dy
  C655     1.0000 0.74630  0.75570  0.75000  Biso   1.000  C
  Dy15     1.0000 0.72428  0.64952  0.75000  Biso   1.000  Dy
  C656     1.0000 0.75320  0.80610  0.75000  Biso   1.000  C
  Dy16     1.0000 0.87278  0.18714  0.75000  Biso   1.000  Dy
  Dy17     1.0000 0.62513  0.28651  0.75000  Biso   1.000  Dy
  Dy18     1.0000 0.37487  0.71349  0.25000  Biso   1.000  Dy
  Dy19     1.0000 0.37487  0.78651  0.75000  Biso   1.000  Dy
  Dy20     1.0000 0.62513  0.21349  0.25000  Biso   1.000  Dy
