data_image0
_cell_length_a       41.275
_cell_length_b       13.1665
_cell_length_c       24.798
_cell_angle_alpha    90
_cell_angle_beta     90
_cell_angle_gamma    90

_symmetry_space_group_name_H-M    "P 1"
_symmetry_int_tables_number       1

loop_
  _symmetry_equiv_pos_as_xyz
  'x, y, z'

loop_
  _atom_site_label
  _atom_site_occupancy
  _atom_site_fract_x
  _atom_site_fract_y
  _atom_site_fract_z
  _atom_site_thermal_displace_type
  _atom_site_B_iso_or_equiv
  _atom_site_type_symbol
  Ni1      1.0000 0.07975  0.61824  0.95193  Biso   1.000  Ni
  Ni2      1.0000 0.13109  0.67477  0.86253  Biso   1.000  Ni
  Ni3      1.0000 0.09512  0.21769  0.97422  Biso   1.000  Ni
  Ni4      1.0000 0.21963  0.31250  0.07145  Biso   1.000  Ni
  Ni5      1.0000 0.11025  0.82631  0.95433  Biso   1.000  Ni
  Ni6      1.0000 0.06494  0.76882  0.85563  Biso   1.000  Ni
  Ni7      1.0000 0.23112  0.15459  0.16707  Biso   1.000  Ni
  Ni8      1.0000 0.09743  0.75696  0.15458  Biso   1.000  Ni
  K1       1.0000 0.10184  0.22628  0.81105  Biso   1.000  K
  K2       1.0000 0.18214  0.40411  0.79596  Biso   1.000  K
  K3       1.0000 0.03739  0.46654  0.04725  Biso   1.000  K
  K4       1.0000 0.31883  0.81300  0.13506  Biso   1.000  K
  K5       1.0000 0.09326  0.47810  0.18099  Biso   1.000  K
  K6       1.0000 0.12552  0.45870  0.68729  Biso   1.000  K
  K7       1.0000 0.23878  0.81300  0.83130  Biso   1.000  K
  O1       1.0000 0.11240  0.68320  0.37000  Biso   1.000  O
  O2       1.0000 0.08260  0.62670  0.86880  Biso   1.000  O
  O3       1.0000 0.06417  0.76900  0.93960  Biso   1.000  O
  O4       1.0000 0.12495  0.67670  0.94590  Biso   1.000  O
  O5       1.0000 0.06675  0.74030  0.77330  Biso   1.000  O
  O6       1.0000 0.01682  0.74080  0.85130  Biso   1.000  O
  O7       1.0000 0.06255  0.58190  0.33180  Biso   1.000  O
  O8       1.0000 0.06449  0.65160  0.18400  Biso   1.000  O
  H1       1.0000 0.04750  0.65060  0.16450  Biso   1.000  H
  H2       1.0000 0.05910  0.66630  0.21610  Biso   1.000  H
  O9       1.0000 0.11845  0.65270  0.10390  Biso   1.000  O
  O10      1.0000 0.06335  0.80880  0.10100  Biso   1.000  O
  O11      1.0000 0.13078  0.86220  0.12640  Biso   1.000  O
  H3       1.0000 0.14990  0.83900  0.13020  Biso   1.000  H
  H4       1.0000 0.12920  0.91670  0.14450  Biso   1.000  H
  O12      1.0000 0.07827  0.63580  0.70590  Biso   1.000  O
  O13      1.0000 0.12950  0.69630  0.21010  Biso   1.000  O
  O14      1.0000 0.11358  0.37170  0.41410  Biso   1.000  O
  O15      1.0000 0.08066  0.31530  0.91350  Biso   1.000  O
  O16      1.0000 0.07929  0.30330  0.03890  Biso   1.000  O
  O17      1.0000 0.22326  0.32580  0.31600  Biso   1.000  O
  O18      1.0000 0.27973  0.32850  0.92330  Biso   1.000  O
  O19      1.0000 0.21874  0.37740  0.88460  Biso   1.000  O
  H5       1.0000 0.23000  0.43040  0.89050  Biso   1.000  H
  H6       1.0000 0.20670  0.36660  0.91180  Biso   1.000  H
  O20      1.0000 0.22149  0.31020  0.15490  Biso   1.000  O
  O21      1.0000 0.28328  0.21680  0.98990  Biso   1.000  O
  O22      1.0000 0.22324  0.46200  0.05140  Biso   1.000  O
  O23      1.0000 0.16998  0.31260  0.07140  Biso   1.000  O
  O24      1.0000 0.26946  0.33830  0.08370  Biso   1.000  O
  O25      1.0000 0.18312  0.16280  0.18750  Biso   1.000  O
  O26      1.0000 0.26675  0.49870  0.16380  Biso   1.000  O
  O27      1.0000 0.08801  0.46550  0.95180  Biso   1.000  O
  O28      1.0000 0.13384  0.80160  0.27960  Biso   1.000  O
  O29      1.0000 0.17884  0.70300  0.86830  Biso   1.000  O
  O30      1.0000 0.08477  0.61870  0.03620  Biso   1.000  O
  O31      1.0000 0.03081  0.60560  0.96810  Biso   1.000  O
  O32      1.0000 0.10238  0.52260  0.44990  Biso   1.000  O
  O33      1.0000 0.15652  0.83590  0.98330  Biso   1.000  O
  O34      1.0000 0.09795  0.83690  0.03420  Biso   1.000  O
  O35      1.0000 0.14568  0.26740  0.22040  Biso   1.000  O
  O36      1.0000 0.25907  0.35280  0.24960  Biso   1.000  O
  O37      1.0000 0.11097  0.41980  0.78870  Biso   1.000  O
  O38      1.0000 0.13617  0.52590  0.84440  Biso   1.000  O
  O39      1.0000 0.12477  0.38120  0.10220  Biso   1.000  O
  O40      1.0000 0.25717  0.56970  0.01070  Biso   1.000  O
  O41      1.0000 0.22228  0.70230  0.92040  Biso   1.000  O
  O42      1.0000 0.19197  0.74290  0.02990  Biso   1.000  O
  O43      1.0000 0.96962  0.73290  0.89120  Biso   1.000  O
  O44      1.0000 0.99474  0.69140  0.01580  Biso   1.000  O
  O45      1.0000 0.09307  0.47000  0.28830  Biso   1.000  O
  O46      1.0000 0.29780  0.62940  0.14940  Biso   1.000  O
  O47      1.0000 0.23360  0.97540  0.89620  Biso   1.000  O
  O48      1.0000 0.27010  0.84050  0.21150  Biso   1.000  O
  H7       1.0000 0.27850  0.85620  0.24170  Biso   1.000  H
  H8       1.0000 0.25740  0.88760  0.20120  Biso   1.000  H
  O49      1.0000 0.16180  0.23670  0.85200  Biso   1.000  O
  H9       1.0000 0.17480  0.17570  0.84320  Biso   1.000  H
  H10      1.0000 0.16180  0.24800  0.89140  Biso   1.000  H
  O50      1.0000 0.02400  0.39760  0.20890  Biso   1.000  O
  O51      1.0000 0.20280  0.60390  0.77040  Biso   1.000  O
  C1       1.0000 0.13510  0.71410  0.25850  Biso   1.000  C
  C2       1.0000 0.14440  0.62430  0.29380  Biso   1.000  C
  H11      1.0000 0.16590  0.63850  0.30980  Biso   1.000  H
  H12      1.0000 0.14680  0.56390  0.27040  Biso   1.000  H
  C3       1.0000 0.12110  0.59770  0.33940  Biso   1.000  C
  C4       1.0000 0.13870  0.51700  0.37450  Biso   1.000  C
  H13      1.0000 0.14780  0.46400  0.35060  Biso   1.000  H
  H14      1.0000 0.15700  0.55000  0.39350  Biso   1.000  H
  C5       1.0000 0.11670  0.46720  0.41570  Biso   1.000  C
  C6       1.0000 0.08990  0.54630  0.31740  Biso   1.000  C
  C7       1.0000 0.16780  0.75200  0.00000  Biso   1.000  C
  C8       1.0000 0.15150  0.65210  0.97950  Biso   1.000  C
  C9       1.0000 0.14090  0.58090  0.02520  Biso   1.000  C
  H15      1.0000 0.13510  0.51420  0.00960  Biso   1.000  H
  H16      1.0000 0.15950  0.57030  0.04990  Biso   1.000  H
  C10      1.0000 0.11250  0.62040  0.05740  Biso   1.000  C
  C11      1.0000 0.01030  0.84130  0.93100  Biso   1.000  C
  H17      1.0000 0.99180  0.86500  0.95310  Biso   1.000  H
  H18      1.0000 0.02020  0.90150  0.91370  Biso   1.000  H
  C12      1.0000 0.03538  0.79040  0.96780  Biso   1.000  C
  C13      1.0000 0.04140  0.86280  0.01600  Biso   1.000  C
  H19      1.0000 0.04550  0.93190  0.00190  Biso   1.000  H
  H20      1.0000 0.02140  0.86590  0.03810  Biso   1.000  H
  C14      1.0000 0.06960  0.83260  0.05260  Biso   1.000  C
  C15      1.0000 0.28690  0.30450  0.97150  Biso   1.000  C
  C16      1.0000 0.30170  0.38860  0.00600  Biso   1.000  C
  H21      1.0000 0.30590  0.44820  0.98270  Biso   1.000  H
  H22      1.0000 0.32280  0.36470  0.02000  Biso   1.000  H
  C17      1.0000 0.25160  0.49020  0.03700  Biso   1.000  C
  C18      1.0000 0.17250  0.25120  0.19870  Biso   1.000  C
  C19      1.0000 0.23120  0.35540  0.26910  Biso   1.000  C
  C20      1.0000 0.07700  0.41020  0.91470  Biso   1.000  C
  C21      1.0000 0.05830  0.45730  0.86880  Biso   1.000  C
  H23      1.0000 0.03820  0.48830  0.88330  Biso   1.000  H
  H24      1.0000 0.05180  0.40310  0.84330  Biso   1.000  H
  C22      1.0000 0.07760  0.53990  0.83730  Biso   1.000  C
  C23      1.0000 0.05780  0.56330  0.78660  Biso   1.000  C
  H25      1.0000 0.05790  0.50210  0.76340  Biso   1.000  H
  H26      1.0000 0.03510  0.57540  0.79760  Biso   1.000  H
  C24      1.0000 0.11090  0.49130  0.82190  Biso   1.000  C
  C25      1.0000 0.01930  0.68890  0.98640  Biso   1.000  C
  C26      1.0000 0.99780  0.76930  0.88730  Biso   1.000  C
  C27      1.0000 0.17820  0.59490  0.94700  Biso   1.000  C
  H27      1.0000 0.19440  0.56540  0.97200  Biso   1.000  H
  H28      1.0000 0.16840  0.53900  0.92590  Biso   1.000  H
  C28      1.0000 0.19460  0.67050  0.90930  Biso   1.000  C
  C29      1.0000 0.28060  0.42270  0.05400  Biso   1.000  C
  C30      1.0000 0.30330  0.49210  0.08790  Biso   1.000  C
  H29      1.0000 0.32180  0.45070  0.10060  Biso   1.000  H
  H30      1.0000 0.31210  0.54550  0.06400  Biso   1.000  H
  C31      1.0000 0.28810  0.54330  0.13650  Biso   1.000  C
  C32      1.0000 0.19410  0.34290  0.18450  Biso   1.000  C
  C33      1.0000 0.20390  0.40180  0.23610  Biso   1.000  C
  H31      1.0000 0.21030  0.47140  0.22550  Biso   1.000  H
  H32      1.0000 0.18450  0.40780  0.25950  Biso   1.000  H
  C34      1.0000 0.15480  0.36630  0.10490  Biso   1.000  C
  C35      1.0000 0.06870  0.65180  0.75330  Biso   1.000  C
  C36      1.0000 0.17390  0.41920  0.14980  Biso   1.000  C
  H33      1.0000 0.15870  0.45610  0.17360  Biso   1.000  H
  H34      1.0000 0.18880  0.46960  0.13350  Biso   1.000  H
  O52      1.0000 0.08110  0.21960  0.69790  Biso   1.000  O
  K8       1.0000 0.23010  0.82440  0.82560  Biso   1.000  K
  O53      1.0000 0.02800  0.45630  0.15640  Biso   1.000  O
  O54      1.0000 0.18190  0.57030  0.74800  Biso   1.000  O
  Ni9      1.0000 0.42025  0.88176  0.95193  Biso   1.000  Ni
  Ni10     1.0000 0.36891  0.82523  0.86253  Biso   1.000  Ni
  Ni11     1.0000 0.40488  0.28231  0.97422  Biso   1.000  Ni
  Ni12     1.0000 0.28037  0.18750  0.07145  Biso   1.000  Ni
  Ni13     1.0000 0.38975  0.67369  0.95433  Biso   1.000  Ni
  Ni14     1.0000 0.43506  0.73118  0.85563  Biso   1.000  Ni
  Ni15     1.0000 0.26888  0.34541  0.16707  Biso   1.000  Ni
  Ni16     1.0000 0.40257  0.74304  0.15458  Biso   1.000  Ni
  K9       1.0000 0.39816  0.27372  0.81105  Biso   1.000  K
  K10      1.0000 0.31786  0.09589  0.79596  Biso   1.000  K
  K11      1.0000 0.46261  0.03346  0.04725  Biso   1.000  K
  K12      1.0000 0.18117  0.68700  0.13506  Biso   1.000  K
  K13      1.0000 0.40674  0.02190  0.18099  Biso   1.000  K
  K14      1.0000 0.37448  0.04130  0.68729  Biso   1.000  K
  K15      1.0000 0.26122  0.68700  0.83130  Biso   1.000  K
  O55      1.0000 0.38760  0.81680  0.37000  Biso   1.000  O
  O56      1.0000 0.41740  0.87330  0.86880  Biso   1.000  O
  O57      1.0000 0.43583  0.73100  0.93960  Biso   1.000  O
  O58      1.0000 0.37505  0.82330  0.94590  Biso   1.000  O
  O59      1.0000 0.43325  0.75970  0.77330  Biso   1.000  O
  O60      1.0000 0.48318  0.75920  0.85130  Biso   1.000  O
  O61      1.0000 0.43745  0.91810  0.33180  Biso   1.000  O
  O62      1.0000 0.43551  0.84840  0.18400  Biso   1.000  O
  H35      1.0000 0.45250  0.84940  0.16450  Biso   1.000  H
  H36      1.0000 0.44090  0.83370  0.21610  Biso   1.000  H
  O63      1.0000 0.38155  0.84730  0.10390  Biso   1.000  O
  O64      1.0000 0.43665  0.69120  0.10100  Biso   1.000  O
  O65      1.0000 0.36922  0.63780  0.12640  Biso   1.000  O
  H37      1.0000 0.35010  0.66100  0.13020  Biso   1.000  H
  H38      1.0000 0.37080  0.58330  0.14450  Biso   1.000  H
  O66      1.0000 0.42173  0.86420  0.70590  Biso   1.000  O
  O67      1.0000 0.37050  0.80370  0.21010  Biso   1.000  O
  O68      1.0000 0.38642  0.12830  0.41410  Biso   1.000  O
  O69      1.0000 0.41934  0.18470  0.91350  Biso   1.000  O
  O70      1.0000 0.42071  0.19670  0.03890  Biso   1.000  O
  O71      1.0000 0.27674  0.17420  0.31600  Biso   1.000  O
  O72      1.0000 0.22027  0.17150  0.92330  Biso   1.000  O
  O73      1.0000 0.28126  0.12260  0.88460  Biso   1.000  O
  H39      1.0000 0.27000  0.06960  0.89050  Biso   1.000  H
  H40      1.0000 0.29330  0.13340  0.91180  Biso   1.000  H
  O74      1.0000 0.27851  0.18980  0.15490  Biso   1.000  O
  O75      1.0000 0.21672  0.28320  0.98990  Biso   1.000  O
  O76      1.0000 0.27676  0.03800  0.05140  Biso   1.000  O
  O77      1.0000 0.33002  0.18740  0.07140  Biso   1.000  O
  O78      1.0000 0.23054  0.16170  0.08370  Biso   1.000  O
  O79      1.0000 0.31688  0.33720  0.18750  Biso   1.000  O
  O80      1.0000 0.23325  0.00130  0.16380  Biso   1.000  O
  O81      1.0000 0.41199  0.03450  0.95180  Biso   1.000  O
  O82      1.0000 0.36616  0.69840  0.27960  Biso   1.000  O
  O83      1.0000 0.32116  0.79700  0.86830  Biso   1.000  O
  O84      1.0000 0.41523  0.88130  0.03620  Biso   1.000  O
  O85      1.0000 0.46919  0.89440  0.96810  Biso   1.000  O
  O86      1.0000 0.39762  0.97740  0.44990  Biso   1.000  O
  O87      1.0000 0.34348  0.66410  0.98330  Biso   1.000  O
  O88      1.0000 0.40205  0.66310  0.03420  Biso   1.000  O
  O89      1.0000 0.35432  0.23260  0.22040  Biso   1.000  O
  O90      1.0000 0.24093  0.14720  0.24960  Biso   1.000  O
  O91      1.0000 0.38903  0.08020  0.78870  Biso   1.000  O
  O92      1.0000 0.36383  0.97410  0.84440  Biso   1.000  O
  O93      1.0000 0.37523  0.11880  0.10220  Biso   1.000  O
  O94      1.0000 0.24283  0.93030  0.01070  Biso   1.000  O
  O95      1.0000 0.27772  0.79770  0.92040  Biso   1.000  O
  O96      1.0000 0.30803  0.75710  0.02990  Biso   1.000  O
  O97      1.0000 0.53038  0.76710  0.89120  Biso   1.000  O
  O98      1.0000 0.50526  0.80860  0.01580  Biso   1.000  O
  O99      1.0000 0.40693  0.03000  0.28830  Biso   1.000  O
  O100     1.0000 0.20220  0.87060  0.14940  Biso   1.000  O
  O101     1.0000 0.26640  0.52460  0.89620  Biso   1.000  O
  O102     1.0000 0.22990  0.65950  0.21150  Biso   1.000  O
  H41      1.0000 0.22150  0.64380  0.24170  Biso   1.000  H
  H42      1.0000 0.24260  0.61240  0.20120  Biso   1.000  H
  O103     1.0000 0.33820  0.26330  0.85200  Biso   1.000  O
  H43      1.0000 0.32520  0.32430  0.84320  Biso   1.000  H
  H44      1.0000 0.33820  0.25200  0.89140  Biso   1.000  H
  O104     1.0000 0.47600  0.10240  0.20890  Biso   1.000  O
  O105     1.0000 0.29720  0.89610  0.77040  Biso   1.000  O
  C37      1.0000 0.36490  0.78590  0.25850  Biso   1.000  C
  C38      1.0000 0.35560  0.87570  0.29380  Biso   1.000  C
  H45      1.0000 0.33410  0.86150  0.30980  Biso   1.000  H
  H46      1.0000 0.35320  0.93610  0.27040  Biso   1.000  H
  C39      1.0000 0.37890  0.90230  0.33940  Biso   1.000  C
  C40      1.0000 0.36130  0.98300  0.37450  Biso   1.000  C
  H47      1.0000 0.35220  0.03600  0.35060  Biso   1.000  H
  H48      1.0000 0.34300  0.95000  0.39350  Biso   1.000  H
  C41      1.0000 0.38330  0.03280  0.41570  Biso   1.000  C
  C42      1.0000 0.41010  0.95370  0.31740  Biso   1.000  C
  C43      1.0000 0.33220  0.74800  0.00000  Biso   1.000  C
  C44      1.0000 0.34850  0.84790  0.97950  Biso   1.000  C
  C45      1.0000 0.35910  0.91910  0.02520  Biso   1.000  C
  H49      1.0000 0.36490  0.98580  0.00960  Biso   1.000  H
  H50      1.0000 0.34050  0.92970  0.04990  Biso   1.000  H
  C46      1.0000 0.38750  0.87960  0.05740  Biso   1.000  C
  C47      1.0000 0.48970  0.65870  0.93100  Biso   1.000  C
  H51      1.0000 0.50820  0.63500  0.95310  Biso   1.000  H
  H52      1.0000 0.47980  0.59850  0.91370  Biso   1.000  H
  C48      1.0000 0.46462  0.70960  0.96780  Biso   1.000  C
  C49      1.0000 0.45860  0.63720  0.01600  Biso   1.000  C
  H53      1.0000 0.45450  0.56810  0.00190  Biso   1.000  H
  H54      1.0000 0.47860  0.63410  0.03810  Biso   1.000  H
  C50      1.0000 0.43040  0.66740  0.05260  Biso   1.000  C
  C51      1.0000 0.21310  0.19550  0.97150  Biso   1.000  C
  C52      1.0000 0.19830  0.11140  0.00600  Biso   1.000  C
  H55      1.0000 0.19410  0.05180  0.98270  Biso   1.000  H
  H56      1.0000 0.17720  0.13530  0.02000  Biso   1.000  H
  C53      1.0000 0.24840  0.00980  0.03700  Biso   1.000  C
  C54      1.0000 0.32750  0.24880  0.19870  Biso   1.000  C
  C55      1.0000 0.26880  0.14460  0.26910  Biso   1.000  C
  C56      1.0000 0.42300  0.08980  0.91470  Biso   1.000  C
  C57      1.0000 0.44170  0.04270  0.86880  Biso   1.000  C
  H57      1.0000 0.46180  0.01170  0.88330  Biso   1.000  H
  H58      1.0000 0.44820  0.09690  0.84330  Biso   1.000  H
  C58      1.0000 0.42240  0.96010  0.83730  Biso   1.000  C
  C59      1.0000 0.44220  0.93670  0.78660  Biso   1.000  C
  H59      1.0000 0.44210  0.99790  0.76340  Biso   1.000  H
  H60      1.0000 0.46490  0.92460  0.79760  Biso   1.000  H
  C60      1.0000 0.38910  0.00870  0.82190  Biso   1.000  C
  C61      1.0000 0.48070  0.81110  0.98640  Biso   1.000  C
  C62      1.0000 0.50220  0.73070  0.88730  Biso   1.000  C
  C63      1.0000 0.32180  0.90510  0.94700  Biso   1.000  C
  H61      1.0000 0.30560  0.93460  0.97200  Biso   1.000  H
  H62      1.0000 0.33160  0.96100  0.92590  Biso   1.000  H
  C64      1.0000 0.30540  0.82950  0.90930  Biso   1.000  C
  C65      1.0000 0.21940  0.07730  0.05400  Biso   1.000  C
  C66      1.0000 0.19670  0.00790  0.08790  Biso   1.000  C
  H63      1.0000 0.17820  0.04930  0.10060  Biso   1.000  H
  H64      1.0000 0.18790  0.95450  0.06400  Biso   1.000  H
  C67      1.0000 0.21190  0.95670  0.13650  Biso   1.000  C
  C68      1.0000 0.30590  0.15710  0.18450  Biso   1.000  C
  C69      1.0000 0.29610  0.09820  0.23610  Biso   1.000  C
  H65      1.0000 0.28970  0.02860  0.22550  Biso   1.000  H
  H66      1.0000 0.31550  0.09220  0.25950  Biso   1.000  H
  C70      1.0000 0.34520  0.13370  0.10490  Biso   1.000  C
  C71      1.0000 0.43130  0.84820  0.75330  Biso   1.000  C
  C72      1.0000 0.32610  0.08080  0.14980  Biso   1.000  C
  H67      1.0000 0.34130  0.04390  0.17360  Biso   1.000  H
  H68      1.0000 0.31120  0.03040  0.13350  Biso   1.000  H
  O106     1.0000 0.41890  0.28040  0.69790  Biso   1.000  O
  K16      1.0000 0.26990  0.67560  0.82560  Biso   1.000  K
  O107     1.0000 0.47200  0.04370  0.15640  Biso   1.000  O
  O108     1.0000 0.31810  0.92970  0.74800  Biso   1.000  O
  Ni17     1.0000 0.92025  0.11824  0.54807  Biso   1.000  Ni
  Ni18     1.0000 0.86891  0.17477  0.63747  Biso   1.000  Ni
  Ni19     1.0000 0.90488  0.71769  0.52578  Biso   1.000  Ni
  Ni20     1.0000 0.78037  0.81250  0.42855  Biso   1.000  Ni
  Ni21     1.0000 0.88975  0.32631  0.54567  Biso   1.000  Ni
  Ni22     1.0000 0.93506  0.26882  0.64437  Biso   1.000  Ni
  Ni23     1.0000 0.76888  0.65459  0.33293  Biso   1.000  Ni
  Ni24     1.0000 0.90257  0.25696  0.34542  Biso   1.000  Ni
  K17      1.0000 0.89816  0.72628  0.68895  Biso   1.000  K
  K18      1.0000 0.81786  0.90411  0.70404  Biso   1.000  K
  K19      1.0000 0.96261  0.96654  0.45275  Biso   1.000  K
  K20      1.0000 0.68117  0.31300  0.36494  Biso   1.000  K
  K21      1.0000 0.90674  0.97810  0.31901  Biso   1.000  K
  K22      1.0000 0.87448  0.95870  0.81271  Biso   1.000  K
  K23      1.0000 0.76122  0.31300  0.66870  Biso   1.000  K
  O109     1.0000 0.88760  0.18320  0.13000  Biso   1.000  O
  O110     1.0000 0.91740  0.12670  0.63120  Biso   1.000  O
  O111     1.0000 0.93583  0.26900  0.56040  Biso   1.000  O
  O112     1.0000 0.87505  0.17670  0.55410  Biso   1.000  O
  O113     1.0000 0.93325  0.24030  0.72670  Biso   1.000  O
  O114     1.0000 0.98318  0.24080  0.64870  Biso   1.000  O
  O115     1.0000 0.93745  0.08190  0.16820  Biso   1.000  O
  O116     1.0000 0.93551  0.15160  0.31600  Biso   1.000  O
  H69      1.0000 0.95250  0.15060  0.33550  Biso   1.000  H
  H70      1.0000 0.94090  0.16630  0.28390  Biso   1.000  H
  O117     1.0000 0.88155  0.15270  0.39610  Biso   1.000  O
  O118     1.0000 0.93665  0.30880  0.39900  Biso   1.000  O
  O119     1.0000 0.86922  0.36220  0.37360  Biso   1.000  O
  H71      1.0000 0.85010  0.33900  0.36980  Biso   1.000  H
  H72      1.0000 0.87080  0.41670  0.35550  Biso   1.000  H
  O120     1.0000 0.92173  0.13580  0.79410  Biso   1.000  O
  O121     1.0000 0.87050  0.19630  0.28990  Biso   1.000  O
  O122     1.0000 0.88642  0.87170  0.08590  Biso   1.000  O
  O123     1.0000 0.91934  0.81530  0.58650  Biso   1.000  O
  O124     1.0000 0.92071  0.80330  0.46110  Biso   1.000  O
  O125     1.0000 0.77674  0.82580  0.18400  Biso   1.000  O
  O126     1.0000 0.72027  0.82850  0.57670  Biso   1.000  O
  O127     1.0000 0.78126  0.87740  0.61540  Biso   1.000  O
  H73      1.0000 0.77000  0.93040  0.60950  Biso   1.000  H
  H74      1.0000 0.79330  0.86660  0.58820  Biso   1.000  H
  O128     1.0000 0.77851  0.81020  0.34510  Biso   1.000  O
  O129     1.0000 0.71672  0.71680  0.51010  Biso   1.000  O
  O130     1.0000 0.77676  0.96200  0.44860  Biso   1.000  O
  O131     1.0000 0.83002  0.81260  0.42860  Biso   1.000  O
  O132     1.0000 0.73054  0.83830  0.41630  Biso   1.000  O
  O133     1.0000 0.81688  0.66280  0.31250  Biso   1.000  O
  O134     1.0000 0.73325  0.99870  0.33620  Biso   1.000  O
  O135     1.0000 0.91199  0.96550  0.54820  Biso   1.000  O
  O136     1.0000 0.86616  0.30160  0.22040  Biso   1.000  O
  O137     1.0000 0.82116  0.20300  0.63170  Biso   1.000  O
  O138     1.0000 0.91523  0.11870  0.46380  Biso   1.000  O
  O139     1.0000 0.96919  0.10560  0.53190  Biso   1.000  O
  O140     1.0000 0.89762  0.02260  0.05010  Biso   1.000  O
  O141     1.0000 0.84348  0.33590  0.51670  Biso   1.000  O
  O142     1.0000 0.90205  0.33690  0.46580  Biso   1.000  O
  O143     1.0000 0.85432  0.76740  0.27960  Biso   1.000  O
  O144     1.0000 0.74093  0.85280  0.25040  Biso   1.000  O
  O145     1.0000 0.88903  0.91980  0.71130  Biso   1.000  O
  O146     1.0000 0.86383  0.02590  0.65560  Biso   1.000  O
  O147     1.0000 0.87523  0.88120  0.39780  Biso   1.000  O
  O148     1.0000 0.74283  0.06970  0.48930  Biso   1.000  O
  O149     1.0000 0.77772  0.20230  0.57960  Biso   1.000  O
  O150     1.0000 0.80803  0.24290  0.47010  Biso   1.000  O
  O151     1.0000 0.03038  0.23290  0.60880  Biso   1.000  O
  O152     1.0000 0.00526  0.19140  0.48420  Biso   1.000  O
  O153     1.0000 0.90693  0.97000  0.21170  Biso   1.000  O
  O154     1.0000 0.70220  0.12940  0.35060  Biso   1.000  O
  O155     1.0000 0.76640  0.47540  0.60380  Biso   1.000  O
  O156     1.0000 0.72990  0.34050  0.28850  Biso   1.000  O
  H75      1.0000 0.72150  0.35620  0.25830  Biso   1.000  H
  H76      1.0000 0.74260  0.38760  0.29880  Biso   1.000  H
  O157     1.0000 0.83820  0.73670  0.64800  Biso   1.000  O
  H77      1.0000 0.82520  0.67570  0.65680  Biso   1.000  H
  H78      1.0000 0.83820  0.74800  0.60860  Biso   1.000  H
  O158     1.0000 0.97600  0.89760  0.29110  Biso   1.000  O
  O159     1.0000 0.79720  0.10390  0.72960  Biso   1.000  O
  C73      1.0000 0.86490  0.21410  0.24150  Biso   1.000  C
  C74      1.0000 0.85560  0.12430  0.20620  Biso   1.000  C
  H79      1.0000 0.83410  0.13850  0.19020  Biso   1.000  H
  H80      1.0000 0.85320  0.06390  0.22960  Biso   1.000  H
  C75      1.0000 0.87890  0.09770  0.16060  Biso   1.000  C
  C76      1.0000 0.86130  0.01700  0.12550  Biso   1.000  C
  H81      1.0000 0.85220  0.96400  0.14940  Biso   1.000  H
  H82      1.0000 0.84300  0.05000  0.10650  Biso   1.000  H
  C77      1.0000 0.88330  0.96720  0.08430  Biso   1.000  C
  C78      1.0000 0.91010  0.04630  0.18260  Biso   1.000  C
  C79      1.0000 0.83220  0.25200  0.50000  Biso   1.000  C
  C80      1.0000 0.84850  0.15210  0.52050  Biso   1.000  C
  C81      1.0000 0.85910  0.08090  0.47480  Biso   1.000  C
  H83      1.0000 0.86490  0.01420  0.49040  Biso   1.000  H
  H84      1.0000 0.84050  0.07030  0.45010  Biso   1.000  H
  C82      1.0000 0.88750  0.12040  0.44260  Biso   1.000  C
  C83      1.0000 0.98970  0.34130  0.56900  Biso   1.000  C
  H85      1.0000 0.00820  0.36500  0.54690  Biso   1.000  H
  H86      1.0000 0.97980  0.40150  0.58630  Biso   1.000  H
  C84      1.0000 0.96462  0.29040  0.53220  Biso   1.000  C
  C85      1.0000 0.95860  0.36280  0.48400  Biso   1.000  C
  H87      1.0000 0.95450  0.43190  0.49810  Biso   1.000  H
  H88      1.0000 0.97860  0.36590  0.46190  Biso   1.000  H
  C86      1.0000 0.93040  0.33260  0.44740  Biso   1.000  C
  C87      1.0000 0.71310  0.80450  0.52850  Biso   1.000  C
  C88      1.0000 0.69830  0.88860  0.49400  Biso   1.000  C
  H89      1.0000 0.69410  0.94820  0.51730  Biso   1.000  H
  H90      1.0000 0.67720  0.86470  0.48000  Biso   1.000  H
  C89      1.0000 0.74840  0.99020  0.46300  Biso   1.000  C
  C90      1.0000 0.82750  0.75120  0.30130  Biso   1.000  C
  C91      1.0000 0.76880  0.85540  0.23090  Biso   1.000  C
  C92      1.0000 0.92300  0.91020  0.58530  Biso   1.000  C
  C93      1.0000 0.94170  0.95730  0.63120  Biso   1.000  C
  H91      1.0000 0.96180  0.98830  0.61670  Biso   1.000  H
  H92      1.0000 0.94820  0.90310  0.65670  Biso   1.000  H
  C94      1.0000 0.92240  0.03990  0.66270  Biso   1.000  C
  C95      1.0000 0.94220  0.06330  0.71340  Biso   1.000  C
  H93      1.0000 0.94210  0.00210  0.73660  Biso   1.000  H
  H94      1.0000 0.96490  0.07540  0.70240  Biso   1.000  H
  C96      1.0000 0.88910  0.99130  0.67810  Biso   1.000  C
  C97      1.0000 0.98070  0.18890  0.51360  Biso   1.000  C
  C98      1.0000 0.00220  0.26930  0.61270  Biso   1.000  C
  C99      1.0000 0.82180  0.09490  0.55300  Biso   1.000  C
  H95      1.0000 0.80560  0.06540  0.52800  Biso   1.000  H
  H96      1.0000 0.83160  0.03900  0.57410  Biso   1.000  H
  C100     1.0000 0.80540  0.17050  0.59070  Biso   1.000  C
  C101     1.0000 0.71940  0.92270  0.44600  Biso   1.000  C
  C102     1.0000 0.69670  0.99210  0.41210  Biso   1.000  C
  H97      1.0000 0.67820  0.95070  0.39940  Biso   1.000  H
  H98      1.0000 0.68790  0.04550  0.43600  Biso   1.000  H
  C103     1.0000 0.71190  0.04330  0.36350  Biso   1.000  C
  C104     1.0000 0.80590  0.84290  0.31550  Biso   1.000  C
  C105     1.0000 0.79610  0.90180  0.26390  Biso   1.000  C
  H99      1.0000 0.78970  0.97140  0.27450  Biso   1.000  H
  H100     1.0000 0.81550  0.90780  0.24050  Biso   1.000  H
  C106     1.0000 0.84520  0.86630  0.39510  Biso   1.000  C
  C107     1.0000 0.93130  0.15180  0.74670  Biso   1.000  C
  C108     1.0000 0.82610  0.91920  0.35020  Biso   1.000  C
  H101     1.0000 0.84130  0.95610  0.32640  Biso   1.000  H
  H102     1.0000 0.81120  0.96960  0.36650  Biso   1.000  H
  O160     1.0000 0.91890  0.71960  0.80210  Biso   1.000  O
  K24      1.0000 0.76990  0.32440  0.67440  Biso   1.000  K
  O161     1.0000 0.97200  0.95630  0.34360  Biso   1.000  O
  O162     1.0000 0.81810  0.07030  0.75200  Biso   1.000  O
  Ni25     1.0000 0.57975  0.38176  0.54807  Biso   1.000  Ni
  Ni26     1.0000 0.63109  0.32523  0.63747  Biso   1.000  Ni
  Ni27     1.0000 0.59512  0.78231  0.52578  Biso   1.000  Ni
  Ni28     1.0000 0.71963  0.68750  0.42855  Biso   1.000  Ni
  Ni29     1.0000 0.61025  0.17369  0.54567  Biso   1.000  Ni
  Ni30     1.0000 0.56494  0.23118  0.64437  Biso   1.000  Ni
  Ni31     1.0000 0.73112  0.84541  0.33293  Biso   1.000  Ni
  Ni32     1.0000 0.59743  0.24304  0.34542  Biso   1.000  Ni
  K25      1.0000 0.60184  0.77372  0.68895  Biso   1.000  K
  K26      1.0000 0.68214  0.59589  0.70404  Biso   1.000  K
  K27      1.0000 0.53739  0.53346  0.45275  Biso   1.000  K
  K28      1.0000 0.81883  0.18700  0.36494  Biso   1.000  K
  K29      1.0000 0.59326  0.52190  0.31901  Biso   1.000  K
  K30      1.0000 0.62552  0.54130  0.81271  Biso   1.000  K
  K31      1.0000 0.73878  0.18700  0.66870  Biso   1.000  K
  O163     1.0000 0.61240  0.31680  0.13000  Biso   1.000  O
  O164     1.0000 0.58260  0.37330  0.63120  Biso   1.000  O
  O165     1.0000 0.56417  0.23100  0.56040  Biso   1.000  O
  O166     1.0000 0.62495  0.32330  0.55410  Biso   1.000  O
  O167     1.0000 0.56675  0.25970  0.72670  Biso   1.000  O
  O168     1.0000 0.51682  0.25920  0.64870  Biso   1.000  O
  O169     1.0000 0.56255  0.41810  0.16820  Biso   1.000  O
  O170     1.0000 0.56449  0.34840  0.31600  Biso   1.000  O
  H103     1.0000 0.54750  0.34940  0.33550  Biso   1.000  H
  H104     1.0000 0.55910  0.33370  0.28390  Biso   1.000  H
  O171     1.0000 0.61845  0.34730  0.39610  Biso   1.000  O
  O172     1.0000 0.56335  0.19120  0.39900  Biso   1.000  O
  O173     1.0000 0.63078  0.13780  0.37360  Biso   1.000  O
  H105     1.0000 0.64990  0.16100  0.36980  Biso   1.000  H
  H106     1.0000 0.62920  0.08330  0.35550  Biso   1.000  H
  O174     1.0000 0.57827  0.36420  0.79410  Biso   1.000  O
  O175     1.0000 0.62950  0.30370  0.28990  Biso   1.000  O
  O176     1.0000 0.61358  0.62830  0.08590  Biso   1.000  O
  O177     1.0000 0.58066  0.68470  0.58650  Biso   1.000  O
  O178     1.0000 0.57929  0.69670  0.46110  Biso   1.000  O
  O179     1.0000 0.72326  0.67420  0.18400  Biso   1.000  O
  O180     1.0000 0.77973  0.67150  0.57670  Biso   1.000  O
  O181     1.0000 0.71874  0.62260  0.61540  Biso   1.000  O
  H107     1.0000 0.73000  0.56960  0.60950  Biso   1.000  H
  H108     1.0000 0.70670  0.63340  0.58820  Biso   1.000  H
  O182     1.0000 0.72149  0.68980  0.34510  Biso   1.000  O
  O183     1.0000 0.78328  0.78320  0.51010  Biso   1.000  O
  O184     1.0000 0.72324  0.53800  0.44860  Biso   1.000  O
  O185     1.0000 0.66998  0.68740  0.42860  Biso   1.000  O
  O186     1.0000 0.76946  0.66170  0.41630  Biso   1.000  O
  O187     1.0000 0.68312  0.83720  0.31250  Biso   1.000  O
  O188     1.0000 0.76675  0.50130  0.33620  Biso   1.000  O
  O189     1.0000 0.58801  0.53450  0.54820  Biso   1.000  O
  O190     1.0000 0.63384  0.19840  0.22040  Biso   1.000  O
  O191     1.0000 0.67884  0.29700  0.63170  Biso   1.000  O
  O192     1.0000 0.58477  0.38130  0.46380  Biso   1.000  O
  O193     1.0000 0.53081  0.39440  0.53190  Biso   1.000  O
  O194     1.0000 0.60238  0.47740  0.05010  Biso   1.000  O
  O195     1.0000 0.65652  0.16410  0.51670  Biso   1.000  O
  O196     1.0000 0.59795  0.16310  0.46580  Biso   1.000  O
  O197     1.0000 0.64568  0.73260  0.27960  Biso   1.000  O
  O198     1.0000 0.75907  0.64720  0.25040  Biso   1.000  O
  O199     1.0000 0.61097  0.58020  0.71130  Biso   1.000  O
  O200     1.0000 0.63617  0.47410  0.65560  Biso   1.000  O
  O201     1.0000 0.62477  0.61880  0.39780  Biso   1.000  O
  O202     1.0000 0.75717  0.43030  0.48930  Biso   1.000  O
  O203     1.0000 0.72228  0.29770  0.57960  Biso   1.000  O
  O204     1.0000 0.69197  0.25710  0.47010  Biso   1.000  O
  O205     1.0000 0.46962  0.26710  0.60880  Biso   1.000  O
  O206     1.0000 0.49474  0.30860  0.48420  Biso   1.000  O
  O207     1.0000 0.59307  0.53000  0.21170  Biso   1.000  O
  O208     1.0000 0.79780  0.37060  0.35060  Biso   1.000  O
  O209     1.0000 0.73360  0.02460  0.60380  Biso   1.000  O
  O210     1.0000 0.77010  0.15950  0.28850  Biso   1.000  O
  H109     1.0000 0.77850  0.14380  0.25830  Biso   1.000  H
  H110     1.0000 0.75740  0.11240  0.29880  Biso   1.000  H
  O211     1.0000 0.66180  0.76330  0.64800  Biso   1.000  O
  H111     1.0000 0.67480  0.82430  0.65680  Biso   1.000  H
  H112     1.0000 0.66180  0.75200  0.60860  Biso   1.000  H
  O212     1.0000 0.52400  0.60240  0.29110  Biso   1.000  O
  O213     1.0000 0.70280  0.39610  0.72960  Biso   1.000  O
  C109     1.0000 0.63510  0.28590  0.24150  Biso   1.000  C
  C110     1.0000 0.64440  0.37570  0.20620  Biso   1.000  C
  H113     1.0000 0.66590  0.36150  0.19020  Biso   1.000  H
  H114     1.0000 0.64680  0.43610  0.22960  Biso   1.000  H
  C111     1.0000 0.62110  0.40230  0.16060  Biso   1.000  C
  C112     1.0000 0.63870  0.48300  0.12550  Biso   1.000  C
  H115     1.0000 0.64780  0.53600  0.14940  Biso   1.000  H
  H116     1.0000 0.65700  0.45000  0.10650  Biso   1.000  H
  C113     1.0000 0.61670  0.53280  0.08430  Biso   1.000  C
  C114     1.0000 0.58990  0.45370  0.18260  Biso   1.000  C
  C115     1.0000 0.66780  0.24800  0.50000  Biso   1.000  C
  C116     1.0000 0.65150  0.34790  0.52050  Biso   1.000  C
  C117     1.0000 0.64090  0.41910  0.47480  Biso   1.000  C
  H117     1.0000 0.63510  0.48580  0.49040  Biso   1.000  H
  H118     1.0000 0.65950  0.42970  0.45010  Biso   1.000  H
  C118     1.0000 0.61250  0.37960  0.44260  Biso   1.000  C
  C119     1.0000 0.51030  0.15870  0.56900  Biso   1.000  C
  H119     1.0000 0.49180  0.13500  0.54690  Biso   1.000  H
  H120     1.0000 0.52020  0.09850  0.58630  Biso   1.000  H
  C120     1.0000 0.53538  0.20960  0.53220  Biso   1.000  C
  C121     1.0000 0.54140  0.13720  0.48400  Biso   1.000  C
  H121     1.0000 0.54550  0.06810  0.49810  Biso   1.000  H
  H122     1.0000 0.52140  0.13410  0.46190  Biso   1.000  H
  C122     1.0000 0.56960  0.16740  0.44740  Biso   1.000  C
  C123     1.0000 0.78690  0.69550  0.52850  Biso   1.000  C
  C124     1.0000 0.80170  0.61140  0.49400  Biso   1.000  C
  H123     1.0000 0.80590  0.55180  0.51730  Biso   1.000  H
  H124     1.0000 0.82280  0.63530  0.48000  Biso   1.000  H
  C125     1.0000 0.75160  0.50980  0.46300  Biso   1.000  C
  C126     1.0000 0.67250  0.74880  0.30130  Biso   1.000  C
  C127     1.0000 0.73120  0.64460  0.23090  Biso   1.000  C
  C128     1.0000 0.57700  0.58980  0.58530  Biso   1.000  C
  C129     1.0000 0.55830  0.54270  0.63120  Biso   1.000  C
  H125     1.0000 0.53820  0.51170  0.61670  Biso   1.000  H
  H126     1.0000 0.55180  0.59690  0.65670  Biso   1.000  H
  C130     1.0000 0.57760  0.46010  0.66270  Biso   1.000  C
  C131     1.0000 0.55780  0.43670  0.71340  Biso   1.000  C
  H127     1.0000 0.55790  0.49790  0.73660  Biso   1.000  H
  H128     1.0000 0.53510  0.42460  0.70240  Biso   1.000  H
  C132     1.0000 0.61090  0.50870  0.67810  Biso   1.000  C
  C133     1.0000 0.51930  0.31110  0.51360  Biso   1.000  C
  C134     1.0000 0.49780  0.23070  0.61270  Biso   1.000  C
  C135     1.0000 0.67820  0.40510  0.55300  Biso   1.000  C
  H129     1.0000 0.69440  0.43460  0.52800  Biso   1.000  H
  H130     1.0000 0.66840  0.46100  0.57410  Biso   1.000  H
  C136     1.0000 0.69460  0.32950  0.59070  Biso   1.000  C
  C137     1.0000 0.78060  0.57730  0.44600  Biso   1.000  C
  C138     1.0000 0.80330  0.50790  0.41210  Biso   1.000  C
  H131     1.0000 0.82180  0.54930  0.39940  Biso   1.000  H
  H132     1.0000 0.81210  0.45450  0.43600  Biso   1.000  H
  C139     1.0000 0.78810  0.45670  0.36350  Biso   1.000  C
  C140     1.0000 0.69410  0.65710  0.31550  Biso   1.000  C
  C141     1.0000 0.70390  0.59820  0.26390  Biso   1.000  C
  H133     1.0000 0.71030  0.52860  0.27450  Biso   1.000  H
  H134     1.0000 0.68450  0.59220  0.24050  Biso   1.000  H
  C142     1.0000 0.65480  0.63370  0.39510  Biso   1.000  C
  C143     1.0000 0.56870  0.34820  0.74670  Biso   1.000  C
  C144     1.0000 0.67390  0.58080  0.35020  Biso   1.000  C
  H135     1.0000 0.65870  0.54390  0.32640  Biso   1.000  H
  H136     1.0000 0.68880  0.53040  0.36650  Biso   1.000  H
  O214     1.0000 0.58110  0.78040  0.80210  Biso   1.000  O
  K32      1.0000 0.73010  0.17560  0.67440  Biso   1.000  K
  O215     1.0000 0.52800  0.54370  0.34360  Biso   1.000  O
  O216     1.0000 0.68190  0.42970  0.75200  Biso   1.000  O
  Ni33     1.0000 0.92025  0.38176  0.04807  Biso   1.000  Ni
  Ni34     1.0000 0.86891  0.32523  0.13747  Biso   1.000  Ni
  Ni35     1.0000 0.90488  0.78231  0.02578  Biso   1.000  Ni
  Ni36     1.0000 0.78037  0.68750  0.92855  Biso   1.000  Ni
  Ni37     1.0000 0.88975  0.17369  0.04567  Biso   1.000  Ni
  Ni38     1.0000 0.93506  0.23118  0.14437  Biso   1.000  Ni
  Ni39     1.0000 0.76888  0.84541  0.83293  Biso   1.000  Ni
  Ni40     1.0000 0.90257  0.24304  0.84542  Biso   1.000  Ni
  K33      1.0000 0.89816  0.77372  0.18895  Biso   1.000  K
  K34      1.0000 0.81786  0.59589  0.20404  Biso   1.000  K
  K35      1.0000 0.96261  0.53346  0.95275  Biso   1.000  K
  K36      1.0000 0.68117  0.18700  0.86494  Biso   1.000  K
  K37      1.0000 0.90674  0.52190  0.81901  Biso   1.000  K
  K38      1.0000 0.87448  0.54130  0.31271  Biso   1.000  K
  K39      1.0000 0.76122  0.18700  0.16870  Biso   1.000  K
  O217     1.0000 0.88760  0.31680  0.63000  Biso   1.000  O
  O218     1.0000 0.91740  0.37330  0.13120  Biso   1.000  O
  O219     1.0000 0.93583  0.23100  0.06040  Biso   1.000  O
  O220     1.0000 0.87505  0.32330  0.05410  Biso   1.000  O
  O221     1.0000 0.93325  0.25970  0.22670  Biso   1.000  O
  O222     1.0000 0.98318  0.25920  0.14870  Biso   1.000  O
  O223     1.0000 0.93745  0.41810  0.66820  Biso   1.000  O
  O224     1.0000 0.93551  0.34840  0.81600  Biso   1.000  O
  H137     1.0000 0.95250  0.34940  0.83550  Biso   1.000  H
  H138     1.0000 0.94090  0.33370  0.78390  Biso   1.000  H
  O225     1.0000 0.88155  0.34730  0.89610  Biso   1.000  O
  O226     1.0000 0.93665  0.19120  0.89900  Biso   1.000  O
  O227     1.0000 0.86922  0.13780  0.87360  Biso   1.000  O
  H139     1.0000 0.85010  0.16100  0.86980  Biso   1.000  H
  H140     1.0000 0.87080  0.08330  0.85550  Biso   1.000  H
  O228     1.0000 0.92173  0.36420  0.29410  Biso   1.000  O
  O229     1.0000 0.87050  0.30370  0.78990  Biso   1.000  O
  O230     1.0000 0.88642  0.62830  0.58590  Biso   1.000  O
  O231     1.0000 0.91934  0.68470  0.08650  Biso   1.000  O
  O232     1.0000 0.92071  0.69670  0.96110  Biso   1.000  O
  O233     1.0000 0.77674  0.67420  0.68400  Biso   1.000  O
  O234     1.0000 0.72027  0.67150  0.07670  Biso   1.000  O
  O235     1.0000 0.78126  0.62260  0.11540  Biso   1.000  O
  H141     1.0000 0.77000  0.56960  0.10950  Biso   1.000  H
  H142     1.0000 0.79330  0.63340  0.08820  Biso   1.000  H
  O236     1.0000 0.77851  0.68980  0.84510  Biso   1.000  O
  O237     1.0000 0.71672  0.78320  0.01010  Biso   1.000  O
  O238     1.0000 0.77676  0.53800  0.94860  Biso   1.000  O
  O239     1.0000 0.83002  0.68740  0.92860  Biso   1.000  O
  O240     1.0000 0.73054  0.66170  0.91630  Biso   1.000  O
  O241     1.0000 0.81688  0.83720  0.81250  Biso   1.000  O
  O242     1.0000 0.73325  0.50130  0.83620  Biso   1.000  O
  O243     1.0000 0.91199  0.53450  0.04820  Biso   1.000  O
  O244     1.0000 0.86616  0.19840  0.72040  Biso   1.000  O
  O245     1.0000 0.82116  0.29700  0.13170  Biso   1.000  O
  O246     1.0000 0.91523  0.38130  0.96380  Biso   1.000  O
  O247     1.0000 0.96919  0.39440  0.03190  Biso   1.000  O
  O248     1.0000 0.89762  0.47740  0.55010  Biso   1.000  O
  O249     1.0000 0.84348  0.16410  0.01670  Biso   1.000  O
  O250     1.0000 0.90205  0.16310  0.96580  Biso   1.000  O
  O251     1.0000 0.85432  0.73260  0.77960  Biso   1.000  O
  O252     1.0000 0.74093  0.64720  0.75040  Biso   1.000  O
  O253     1.0000 0.88903  0.58020  0.21130  Biso   1.000  O
  O254     1.0000 0.86383  0.47410  0.15560  Biso   1.000  O
  O255     1.0000 0.87523  0.61880  0.89780  Biso   1.000  O
  O256     1.0000 0.74283  0.43030  0.98930  Biso   1.000  O
  O257     1.0000 0.77772  0.29770  0.07960  Biso   1.000  O
  O258     1.0000 0.80803  0.25710  0.97010  Biso   1.000  O
  O259     1.0000 0.03038  0.26710  0.10880  Biso   1.000  O
  O260     1.0000 0.00526  0.30860  0.98420  Biso   1.000  O
  O261     1.0000 0.90693  0.53000  0.71170  Biso   1.000  O
  O262     1.0000 0.70220  0.37060  0.85060  Biso   1.000  O
  O263     1.0000 0.76640  0.02460  0.10380  Biso   1.000  O
  O264     1.0000 0.72990  0.15950  0.78850  Biso   1.000  O
  H143     1.0000 0.72150  0.14380  0.75830  Biso   1.000  H
  H144     1.0000 0.74260  0.11240  0.79880  Biso   1.000  H
  O265     1.0000 0.83820  0.76330  0.14800  Biso   1.000  O
  H145     1.0000 0.82520  0.82430  0.15680  Biso   1.000  H
  H146     1.0000 0.83820  0.75200  0.10860  Biso   1.000  H
  O266     1.0000 0.97600  0.60240  0.79110  Biso   1.000  O
  O267     1.0000 0.79720  0.39610  0.22960  Biso   1.000  O
  C145     1.0000 0.86490  0.28590  0.74150  Biso   1.000  C
  C146     1.0000 0.85560  0.37570  0.70620  Biso   1.000  C
  H147     1.0000 0.83410  0.36150  0.69020  Biso   1.000  H
  H148     1.0000 0.85320  0.43610  0.72960  Biso   1.000  H
  C147     1.0000 0.87890  0.40230  0.66060  Biso   1.000  C
  C148     1.0000 0.86130  0.48300  0.62550  Biso   1.000  C
  H149     1.0000 0.85220  0.53600  0.64940  Biso   1.000  H
  H150     1.0000 0.84300  0.45000  0.60650  Biso   1.000  H
  C149     1.0000 0.88330  0.53280  0.58430  Biso   1.000  C
  C150     1.0000 0.91010  0.45370  0.68260  Biso   1.000  C
  C151     1.0000 0.83220  0.24800  0.00000  Biso   1.000  C
  C152     1.0000 0.84850  0.34790  0.02050  Biso   1.000  C
  C153     1.0000 0.85910  0.41910  0.97480  Biso   1.000  C
  H151     1.0000 0.86490  0.48580  0.99040  Biso   1.000  H
  H152     1.0000 0.84050  0.42970  0.95010  Biso   1.000  H
  C154     1.0000 0.88750  0.37960  0.94260  Biso   1.000  C
  C155     1.0000 0.98970  0.15870  0.06900  Biso   1.000  C
  H153     1.0000 0.00820  0.13500  0.04690  Biso   1.000  H
  H154     1.0000 0.97980  0.09850  0.08630  Biso   1.000  H
  C156     1.0000 0.96462  0.20960  0.03220  Biso   1.000  C
  C157     1.0000 0.95860  0.13720  0.98400  Biso   1.000  C
  H155     1.0000 0.95450  0.06810  0.99810  Biso   1.000  H
  H156     1.0000 0.97860  0.13410  0.96190  Biso   1.000  H
  C158     1.0000 0.93040  0.16740  0.94740  Biso   1.000  C
  C159     1.0000 0.71310  0.69550  0.02850  Biso   1.000  C
  C160     1.0000 0.69830  0.61140  0.99400  Biso   1.000  C
  H157     1.0000 0.69410  0.55180  0.01730  Biso   1.000  H
  H158     1.0000 0.67720  0.63530  0.98000  Biso   1.000  H
  C161     1.0000 0.74840  0.50980  0.96300  Biso   1.000  C
  C162     1.0000 0.82750  0.74880  0.80130  Biso   1.000  C
  C163     1.0000 0.76880  0.64460  0.73090  Biso   1.000  C
  C164     1.0000 0.92300  0.58980  0.08530  Biso   1.000  C
  C165     1.0000 0.94170  0.54270  0.13120  Biso   1.000  C
  H159     1.0000 0.96180  0.51170  0.11670  Biso   1.000  H
  H160     1.0000 0.94820  0.59690  0.15670  Biso   1.000  H
  C166     1.0000 0.92240  0.46010  0.16270  Biso   1.000  C
  C167     1.0000 0.94220  0.43670  0.21340  Biso   1.000  C
  H161     1.0000 0.94210  0.49790  0.23660  Biso   1.000  H
  H162     1.0000 0.96490  0.42460  0.20240  Biso   1.000  H
  C168     1.0000 0.88910  0.50870  0.17810  Biso   1.000  C
  C169     1.0000 0.98070  0.31110  0.01360  Biso   1.000  C
  C170     1.0000 0.00220  0.23070  0.11270  Biso   1.000  C
  C171     1.0000 0.82180  0.40510  0.05300  Biso   1.000  C
  H163     1.0000 0.80560  0.43460  0.02800  Biso   1.000  H
  H164     1.0000 0.83160  0.46100  0.07410  Biso   1.000  H
  C172     1.0000 0.80540  0.32950  0.09070  Biso   1.000  C
  C173     1.0000 0.71940  0.57730  0.94600  Biso   1.000  C
  C174     1.0000 0.69670  0.50790  0.91210  Biso   1.000  C
  H165     1.0000 0.67820  0.54930  0.89940  Biso   1.000  H
  H166     1.0000 0.68790  0.45450  0.93600  Biso   1.000  H
  C175     1.0000 0.71190  0.45670  0.86350  Biso   1.000  C
  C176     1.0000 0.80590  0.65710  0.81550  Biso   1.000  C
  C177     1.0000 0.79610  0.59820  0.76390  Biso   1.000  C
  H167     1.0000 0.78970  0.52860  0.77450  Biso   1.000  H
  H168     1.0000 0.81550  0.59220  0.74050  Biso   1.000  H
  C178     1.0000 0.84520  0.63370  0.89510  Biso   1.000  C
  C179     1.0000 0.93130  0.34820  0.24670  Biso   1.000  C
  C180     1.0000 0.82610  0.58080  0.85020  Biso   1.000  C
  H169     1.0000 0.84130  0.54390  0.82640  Biso   1.000  H
  H170     1.0000 0.81120  0.53040  0.86650  Biso   1.000  H
  O268     1.0000 0.91890  0.78040  0.30210  Biso   1.000  O
  K40      1.0000 0.76990  0.17560  0.17440  Biso   1.000  K
  O269     1.0000 0.97200  0.54370  0.84360  Biso   1.000  O
  O270     1.0000 0.81810  0.42970  0.25200  Biso   1.000  O
  Ni41     1.0000 0.57975  0.11824  0.04807  Biso   1.000  Ni
  Ni42     1.0000 0.63109  0.17477  0.13747  Biso   1.000  Ni
  Ni43     1.0000 0.59512  0.71769  0.02578  Biso   1.000  Ni
  Ni44     1.0000 0.71963  0.81250  0.92855  Biso   1.000  Ni
  Ni45     1.0000 0.61025  0.32631  0.04567  Biso   1.000  Ni
  Ni46     1.0000 0.56494  0.26882  0.14437  Biso   1.000  Ni
  Ni47     1.0000 0.73112  0.65459  0.83293  Biso   1.000  Ni
  Ni48     1.0000 0.59743  0.25696  0.84542  Biso   1.000  Ni
  K41      1.0000 0.60184  0.72628  0.18895  Biso   1.000  K
  K42      1.0000 0.68214  0.90411  0.20404  Biso   1.000  K
  K43      1.0000 0.53739  0.96654  0.95275  Biso   1.000  K
  K44      1.0000 0.81883  0.31300  0.86494  Biso   1.000  K
  K45      1.0000 0.59326  0.97810  0.81901  Biso   1.000  K
  K46      1.0000 0.62552  0.95870  0.31271  Biso   1.000  K
  K47      1.0000 0.73878  0.31300  0.16870  Biso   1.000  K
  O271     1.0000 0.61240  0.18320  0.63000  Biso   1.000  O
  O272     1.0000 0.58260  0.12670  0.13120  Biso   1.000  O
  O273     1.0000 0.56417  0.26900  0.06040  Biso   1.000  O
  O274     1.0000 0.62495  0.17670  0.05410  Biso   1.000  O
  O275     1.0000 0.56675  0.24030  0.22670  Biso   1.000  O
  O276     1.0000 0.51682  0.24080  0.14870  Biso   1.000  O
  O277     1.0000 0.56255  0.08190  0.66820  Biso   1.000  O
  O278     1.0000 0.56449  0.15160  0.81600  Biso   1.000  O
  H171     1.0000 0.54750  0.15060  0.83550  Biso   1.000  H
  H172     1.0000 0.55910  0.16630  0.78390  Biso   1.000  H
  O279     1.0000 0.61845  0.15270  0.89610  Biso   1.000  O
  O280     1.0000 0.56335  0.30880  0.89900  Biso   1.000  O
  O281     1.0000 0.63078  0.36220  0.87360  Biso   1.000  O
  H173     1.0000 0.64990  0.33900  0.86980  Biso   1.000  H
  H174     1.0000 0.62920  0.41670  0.85550  Biso   1.000  H
  O282     1.0000 0.57827  0.13580  0.29410  Biso   1.000  O
  O283     1.0000 0.62950  0.19630  0.78990  Biso   1.000  O
  O284     1.0000 0.61358  0.87170  0.58590  Biso   1.000  O
  O285     1.0000 0.58066  0.81530  0.08650  Biso   1.000  O
  O286     1.0000 0.57929  0.80330  0.96110  Biso   1.000  O
  O287     1.0000 0.72326  0.82580  0.68400  Biso   1.000  O
  O288     1.0000 0.77973  0.82850  0.07670  Biso   1.000  O
  O289     1.0000 0.71874  0.87740  0.11540  Biso   1.000  O
  H175     1.0000 0.73000  0.93040  0.10950  Biso   1.000  H
  H176     1.0000 0.70670  0.86660  0.08820  Biso   1.000  H
  O290     1.0000 0.72149  0.81020  0.84510  Biso   1.000  O
  O291     1.0000 0.78328  0.71680  0.01010  Biso   1.000  O
  O292     1.0000 0.72324  0.96200  0.94860  Biso   1.000  O
  O293     1.0000 0.66998  0.81260  0.92860  Biso   1.000  O
  O294     1.0000 0.76946  0.83830  0.91630  Biso   1.000  O
  O295     1.0000 0.68312  0.66280  0.81250  Biso   1.000  O
  O296     1.0000 0.76675  0.99870  0.83620  Biso   1.000  O
  O297     1.0000 0.58801  0.96550  0.04820  Biso   1.000  O
  O298     1.0000 0.63384  0.30160  0.72040  Biso   1.000  O
  O299     1.0000 0.67884  0.20300  0.13170  Biso   1.000  O
  O300     1.0000 0.58477  0.11870  0.96380  Biso   1.000  O
  O301     1.0000 0.53081  0.10560  0.03190  Biso   1.000  O
  O302     1.0000 0.60238  0.02260  0.55010  Biso   1.000  O
  O303     1.0000 0.65652  0.33590  0.01670  Biso   1.000  O
  O304     1.0000 0.59795  0.33690  0.96580  Biso   1.000  O
  O305     1.0000 0.64568  0.76740  0.77960  Biso   1.000  O
  O306     1.0000 0.75907  0.85280  0.75040  Biso   1.000  O
  O307     1.0000 0.61097  0.91980  0.21130  Biso   1.000  O
  O308     1.0000 0.63617  0.02590  0.15560  Biso   1.000  O
  O309     1.0000 0.62477  0.88120  0.89780  Biso   1.000  O
  O310     1.0000 0.75717  0.06970  0.98930  Biso   1.000  O
  O311     1.0000 0.72228  0.20230  0.07960  Biso   1.000  O
  O312     1.0000 0.69197  0.24290  0.97010  Biso   1.000  O
  O313     1.0000 0.46962  0.23290  0.10880  Biso   1.000  O
  O314     1.0000 0.49474  0.19140  0.98420  Biso   1.000  O
  O315     1.0000 0.59307  0.97000  0.71170  Biso   1.000  O
  O316     1.0000 0.79780  0.12940  0.85060  Biso   1.000  O
  O317     1.0000 0.73360  0.47540  0.10380  Biso   1.000  O
  O318     1.0000 0.77010  0.34050  0.78850  Biso   1.000  O
  H177     1.0000 0.77850  0.35620  0.75830  Biso   1.000  H
  H178     1.0000 0.75740  0.38760  0.79880  Biso   1.000  H
  O319     1.0000 0.66180  0.73670  0.14800  Biso   1.000  O
  H179     1.0000 0.67480  0.67570  0.15680  Biso   1.000  H
  H180     1.0000 0.66180  0.74800  0.10860  Biso   1.000  H
  O320     1.0000 0.52400  0.89760  0.79110  Biso   1.000  O
  O321     1.0000 0.70280  0.10390  0.22960  Biso   1.000  O
  C181     1.0000 0.63510  0.21410  0.74150  Biso   1.000  C
  C182     1.0000 0.64440  0.12430  0.70620  Biso   1.000  C
  H181     1.0000 0.66590  0.13850  0.69020  Biso   1.000  H
  H182     1.0000 0.64680  0.06390  0.72960  Biso   1.000  H
  C183     1.0000 0.62110  0.09770  0.66060  Biso   1.000  C
  C184     1.0000 0.63870  0.01700  0.62550  Biso   1.000  C
  H183     1.0000 0.64780  0.96400  0.64940  Biso   1.000  H
  H184     1.0000 0.65700  0.05000  0.60650  Biso   1.000  H
  C185     1.0000 0.61670  0.96720  0.58430  Biso   1.000  C
  C186     1.0000 0.58990  0.04630  0.68260  Biso   1.000  C
  C187     1.0000 0.66780  0.25200  0.00000  Biso   1.000  C
  C188     1.0000 0.65150  0.15210  0.02050  Biso   1.000  C
  C189     1.0000 0.64090  0.08090  0.97480  Biso   1.000  C
  H185     1.0000 0.63510  0.01420  0.99040  Biso   1.000  H
  H186     1.0000 0.65950  0.07030  0.95010  Biso   1.000  H
  C190     1.0000 0.61250  0.12040  0.94260  Biso   1.000  C
  C191     1.0000 0.51030  0.34130  0.06900  Biso   1.000  C
  H187     1.0000 0.49180  0.36500  0.04690  Biso   1.000  H
  H188     1.0000 0.52020  0.40150  0.08630  Biso   1.000  H
  C192     1.0000 0.53538  0.29040  0.03220  Biso   1.000  C
  C193     1.0000 0.54140  0.36280  0.98400  Biso   1.000  C
  H189     1.0000 0.54550  0.43190  0.99810  Biso   1.000  H
  H190     1.0000 0.52140  0.36590  0.96190  Biso   1.000  H
  C194     1.0000 0.56960  0.33260  0.94740  Biso   1.000  C
  C195     1.0000 0.78690  0.80450  0.02850  Biso   1.000  C
  C196     1.0000 0.80170  0.88860  0.99400  Biso   1.000  C
  H191     1.0000 0.80590  0.94820  0.01730  Biso   1.000  H
  H192     1.0000 0.82280  0.86470  0.98000  Biso   1.000  H
  C197     1.0000 0.75160  0.99020  0.96300  Biso   1.000  C
  C198     1.0000 0.67250  0.75120  0.80130  Biso   1.000  C
  C199     1.0000 0.73120  0.85540  0.73090  Biso   1.000  C
  C200     1.0000 0.57700  0.91020  0.08530  Biso   1.000  C
  C201     1.0000 0.55830  0.95730  0.13120  Biso   1.000  C
  H193     1.0000 0.53820  0.98830  0.11670  Biso   1.000  H
  H194     1.0000 0.55180  0.90310  0.15670  Biso   1.000  H
  C202     1.0000 0.57760  0.03990  0.16270  Biso   1.000  C
  C203     1.0000 0.55780  0.06330  0.21340  Biso   1.000  C
  H195     1.0000 0.55790  0.00210  0.23660  Biso   1.000  H
  H196     1.0000 0.53510  0.07540  0.20240  Biso   1.000  H
  C204     1.0000 0.61090  0.99130  0.17810  Biso   1.000  C
  C205     1.0000 0.51930  0.18890  0.01360  Biso   1.000  C
  C206     1.0000 0.49780  0.26930  0.11270  Biso   1.000  C
  C207     1.0000 0.67820  0.09490  0.05300  Biso   1.000  C
  H197     1.0000 0.69440  0.06540  0.02800  Biso   1.000  H
  H198     1.0000 0.66840  0.03900  0.07410  Biso   1.000  H
  C208     1.0000 0.69460  0.17050  0.09070  Biso   1.000  C
  C209     1.0000 0.78060  0.92270  0.94600  Biso   1.000  C
  C210     1.0000 0.80330  0.99210  0.91210  Biso   1.000  C
  H199     1.0000 0.82180  0.95070  0.89940  Biso   1.000  H
  H200     1.0000 0.81210  0.04550  0.93600  Biso   1.000  H
  C211     1.0000 0.78810  0.04330  0.86350  Biso   1.000  C
  C212     1.0000 0.69410  0.84290  0.81550  Biso   1.000  C
  C213     1.0000 0.70390  0.90180  0.76390  Biso   1.000  C
  H201     1.0000 0.71030  0.97140  0.77450  Biso   1.000  H
  H202     1.0000 0.68450  0.90780  0.74050  Biso   1.000  H
  C214     1.0000 0.65480  0.86630  0.89510  Biso   1.000  C
  C215     1.0000 0.56870  0.15180  0.24670  Biso   1.000  C
  C216     1.0000 0.67390  0.91920  0.85020  Biso   1.000  C
  H203     1.0000 0.65870  0.95610  0.82640  Biso   1.000  H
  H204     1.0000 0.68880  0.96960  0.86650  Biso   1.000  H
  O322     1.0000 0.58110  0.71960  0.30210  Biso   1.000  O
  K48      1.0000 0.73010  0.32440  0.17440  Biso   1.000  K
  O323     1.0000 0.52800  0.95630  0.84360  Biso   1.000  O
  O324     1.0000 0.68190  0.07030  0.25200  Biso   1.000  O
  Ni49     1.0000 0.07975  0.88176  0.45193  Biso   1.000  Ni
  Ni50     1.0000 0.13109  0.82523  0.36253  Biso   1.000  Ni
  Ni51     1.0000 0.09512  0.28231  0.47422  Biso   1.000  Ni
  Ni52     1.0000 0.21963  0.18750  0.57145  Biso   1.000  Ni
  Ni53     1.0000 0.11025  0.67369  0.45433  Biso   1.000  Ni
  Ni54     1.0000 0.06494  0.73118  0.35563  Biso   1.000  Ni
  Ni55     1.0000 0.23112  0.34541  0.66707  Biso   1.000  Ni
  Ni56     1.0000 0.09743  0.74304  0.65458  Biso   1.000  Ni
  K49      1.0000 0.10184  0.27372  0.31105  Biso   1.000  K
  K50      1.0000 0.18214  0.09589  0.29596  Biso   1.000  K
  K51      1.0000 0.03739  0.03346  0.54725  Biso   1.000  K
  K52      1.0000 0.31883  0.68700  0.63506  Biso   1.000  K
  K53      1.0000 0.09326  0.02190  0.68099  Biso   1.000  K
  K54      1.0000 0.12552  0.04130  0.18729  Biso   1.000  K
  K55      1.0000 0.23878  0.68700  0.33130  Biso   1.000  K
  O325     1.0000 0.11240  0.81680  0.87000  Biso   1.000  O
  O326     1.0000 0.08260  0.87330  0.36880  Biso   1.000  O
  O327     1.0000 0.06417  0.73100  0.43960  Biso   1.000  O
  O328     1.0000 0.12495  0.82330  0.44590  Biso   1.000  O
  O329     1.0000 0.06675  0.75970  0.27330  Biso   1.000  O
  O330     1.0000 0.01682  0.75920  0.35130  Biso   1.000  O
  O331     1.0000 0.06255  0.91810  0.83180  Biso   1.000  O
  O332     1.0000 0.06449  0.84840  0.68400  Biso   1.000  O
  H205     1.0000 0.04750  0.84940  0.66450  Biso   1.000  H
  H206     1.0000 0.05910  0.83370  0.71610  Biso   1.000  H
  O333     1.0000 0.11845  0.84730  0.60390  Biso   1.000  O
  O334     1.0000 0.06335  0.69120  0.60100  Biso   1.000  O
  O335     1.0000 0.13078  0.63780  0.62640  Biso   1.000  O
  H207     1.0000 0.14990  0.66100  0.63020  Biso   1.000  H
  H208     1.0000 0.12920  0.58330  0.64450  Biso   1.000  H
  O336     1.0000 0.07827  0.86420  0.20590  Biso   1.000  O
  O337     1.0000 0.12950  0.80370  0.71010  Biso   1.000  O
  O338     1.0000 0.11358  0.12830  0.91410  Biso   1.000  O
  O339     1.0000 0.08066  0.18470  0.41350  Biso   1.000  O
  O340     1.0000 0.07929  0.19670  0.53890  Biso   1.000  O
  O341     1.0000 0.22326  0.17420  0.81600  Biso   1.000  O
  O342     1.0000 0.27973  0.17150  0.42330  Biso   1.000  O
  O343     1.0000 0.21874  0.12260  0.38460  Biso   1.000  O
  H209     1.0000 0.23000  0.06960  0.39050  Biso   1.000  H
  H210     1.0000 0.20670  0.13340  0.41180  Biso   1.000  H
  O344     1.0000 0.22149  0.18980  0.65490  Biso   1.000  O
  O345     1.0000 0.28328  0.28320  0.48990  Biso   1.000  O
  O346     1.0000 0.22324  0.03800  0.55140  Biso   1.000  O
  O347     1.0000 0.16998  0.18740  0.57140  Biso   1.000  O
  O348     1.0000 0.26946  0.16170  0.58370  Biso   1.000  O
  O349     1.0000 0.18312  0.33720  0.68750  Biso   1.000  O
  O350     1.0000 0.26675  0.00130  0.66380  Biso   1.000  O
  O351     1.0000 0.08801  0.03450  0.45180  Biso   1.000  O
  O352     1.0000 0.13384  0.69840  0.77960  Biso   1.000  O
  O353     1.0000 0.17884  0.79700  0.36830  Biso   1.000  O
  O354     1.0000 0.08477  0.88130  0.53620  Biso   1.000  O
  O355     1.0000 0.03081  0.89440  0.46810  Biso   1.000  O
  O356     1.0000 0.10238  0.97740  0.94990  Biso   1.000  O
  O357     1.0000 0.15652  0.66410  0.48330  Biso   1.000  O
  O358     1.0000 0.09795  0.66310  0.53420  Biso   1.000  O
  O359     1.0000 0.14568  0.23260  0.72040  Biso   1.000  O
  O360     1.0000 0.25907  0.14720  0.74960  Biso   1.000  O
  O361     1.0000 0.11097  0.08020  0.28870  Biso   1.000  O
  O362     1.0000 0.13617  0.97410  0.34440  Biso   1.000  O
  O363     1.0000 0.12477  0.11880  0.60220  Biso   1.000  O
  O364     1.0000 0.25717  0.93030  0.51070  Biso   1.000  O
  O365     1.0000 0.22228  0.79770  0.42040  Biso   1.000  O
  O366     1.0000 0.19197  0.75710  0.52990  Biso   1.000  O
  O367     1.0000 0.96962  0.76710  0.39120  Biso   1.000  O
  O368     1.0000 0.99474  0.80860  0.51580  Biso   1.000  O
  O369     1.0000 0.09307  0.03000  0.78830  Biso   1.000  O
  O370     1.0000 0.29780  0.87060  0.64940  Biso   1.000  O
  O371     1.0000 0.23360  0.52460  0.39620  Biso   1.000  O
  O372     1.0000 0.27010  0.65950  0.71150  Biso   1.000  O
  H211     1.0000 0.27850  0.64380  0.74170  Biso   1.000  H
  H212     1.0000 0.25740  0.61240  0.70120  Biso   1.000  H
  O373     1.0000 0.16180  0.26330  0.35200  Biso   1.000  O
  H213     1.0000 0.17480  0.32430  0.34320  Biso   1.000  H
  H214     1.0000 0.16180  0.25200  0.39140  Biso   1.000  H
  O374     1.0000 0.02400  0.10240  0.70890  Biso   1.000  O
  O375     1.0000 0.20280  0.89610  0.27040  Biso   1.000  O
  C217     1.0000 0.13510  0.78590  0.75850  Biso   1.000  C
  C218     1.0000 0.14440  0.87570  0.79380  Biso   1.000  C
  H215     1.0000 0.16590  0.86150  0.80980  Biso   1.000  H
  H216     1.0000 0.14680  0.93610  0.77040  Biso   1.000  H
  C219     1.0000 0.12110  0.90230  0.83940  Biso   1.000  C
  C220     1.0000 0.13870  0.98300  0.87450  Biso   1.000  C
  H217     1.0000 0.14780  0.03600  0.85060  Biso   1.000  H
  H218     1.0000 0.15700  0.95000  0.89350  Biso   1.000  H
  C221     1.0000 0.11670  0.03280  0.91570  Biso   1.000  C
  C222     1.0000 0.08990  0.95370  0.81740  Biso   1.000  C
  C223     1.0000 0.16780  0.74800  0.50000  Biso   1.000  C
  C224     1.0000 0.15150  0.84790  0.47950  Biso   1.000  C
  C225     1.0000 0.14090  0.91910  0.52520  Biso   1.000  C
  H219     1.0000 0.13510  0.98580  0.50960  Biso   1.000  H
  H220     1.0000 0.15950  0.92970  0.54990  Biso   1.000  H
  C226     1.0000 0.11250  0.87960  0.55740  Biso   1.000  C
  C227     1.0000 0.01030  0.65870  0.43100  Biso   1.000  C
  H221     1.0000 0.99180  0.63500  0.45310  Biso   1.000  H
  H222     1.0000 0.02020  0.59850  0.41370  Biso   1.000  H
  C228     1.0000 0.03538  0.70960  0.46780  Biso   1.000  C
  C229     1.0000 0.04140  0.63720  0.51600  Biso   1.000  C
  H223     1.0000 0.04550  0.56810  0.50190  Biso   1.000  H
  H224     1.0000 0.02140  0.63410  0.53810  Biso   1.000  H
  C230     1.0000 0.06960  0.66740  0.55260  Biso   1.000  C
  C231     1.0000 0.28690  0.19550  0.47150  Biso   1.000  C
  C232     1.0000 0.30170  0.11140  0.50600  Biso   1.000  C
  H225     1.0000 0.30590  0.05180  0.48270  Biso   1.000  H
  H226     1.0000 0.32280  0.13530  0.52000  Biso   1.000  H
  C233     1.0000 0.25160  0.00980  0.53700  Biso   1.000  C
  C234     1.0000 0.17250  0.24880  0.69870  Biso   1.000  C
  C235     1.0000 0.23120  0.14460  0.76910  Biso   1.000  C
  C236     1.0000 0.07700  0.08980  0.41470  Biso   1.000  C
  C237     1.0000 0.05830  0.04270  0.36880  Biso   1.000  C
  H227     1.0000 0.03820  0.01170  0.38330  Biso   1.000  H
  H228     1.0000 0.05180  0.09690  0.34330  Biso   1.000  H
  C238     1.0000 0.07760  0.96010  0.33730  Biso   1.000  C
  C239     1.0000 0.05780  0.93670  0.28660  Biso   1.000  C
  H229     1.0000 0.05790  0.99790  0.26340  Biso   1.000  H
  H230     1.0000 0.03510  0.92460  0.29760  Biso   1.000  H
  C240     1.0000 0.11090  0.00870  0.32190  Biso   1.000  C
  C241     1.0000 0.01930  0.81110  0.48640  Biso   1.000  C
  C242     1.0000 0.99780  0.73070  0.38730  Biso   1.000  C
  C243     1.0000 0.17820  0.90510  0.44700  Biso   1.000  C
  H231     1.0000 0.19440  0.93460  0.47200  Biso   1.000  H
  H232     1.0000 0.16840  0.96100  0.42590  Biso   1.000  H
  C244     1.0000 0.19460  0.82950  0.40930  Biso   1.000  C
  C245     1.0000 0.28060  0.07730  0.55400  Biso   1.000  C
  C246     1.0000 0.30330  0.00790  0.58790  Biso   1.000  C
  H233     1.0000 0.32180  0.04930  0.60060  Biso   1.000  H
  H234     1.0000 0.31210  0.95450  0.56400  Biso   1.000  H
  C247     1.0000 0.28810  0.95670  0.63650  Biso   1.000  C
  C248     1.0000 0.19410  0.15710  0.68450  Biso   1.000  C
  C249     1.0000 0.20390  0.09820  0.73610  Biso   1.000  C
  H235     1.0000 0.21030  0.02860  0.72550  Biso   1.000  H
  H236     1.0000 0.18450  0.09220  0.75950  Biso   1.000  H
  C250     1.0000 0.15480  0.13370  0.60490  Biso   1.000  C
  C251     1.0000 0.06870  0.84820  0.25330  Biso   1.000  C
  C252     1.0000 0.17390  0.08080  0.64980  Biso   1.000  C
  H237     1.0000 0.15870  0.04390  0.67360  Biso   1.000  H
  H238     1.0000 0.18880  0.03040  0.63350  Biso   1.000  H
  O376     1.0000 0.08110  0.28040  0.19790  Biso   1.000  O
  K56      1.0000 0.23010  0.67560  0.32560  Biso   1.000  K
  O377     1.0000 0.02800  0.04370  0.65640  Biso   1.000  O
  O378     1.0000 0.18190  0.92970  0.24800  Biso   1.000  O
  Ni57     1.0000 0.42025  0.61824  0.45193  Biso   1.000  Ni
  Ni58     1.0000 0.36891  0.67477  0.36253  Biso   1.000  Ni
  Ni59     1.0000 0.40488  0.21769  0.47422  Biso   1.000  Ni
  Ni60     1.0000 0.28037  0.31250  0.57145  Biso   1.000  Ni
  Ni61     1.0000 0.38975  0.82631  0.45433  Biso   1.000  Ni
  Ni62     1.0000 0.43506  0.76882  0.35563  Biso   1.000  Ni
  Ni63     1.0000 0.26888  0.15459  0.66707  Biso   1.000  Ni
  Ni64     1.0000 0.40257  0.75696  0.65458  Biso   1.000  Ni
  K57      1.0000 0.39816  0.22628  0.31105  Biso   1.000  K
  K58      1.0000 0.31786  0.40411  0.29596  Biso   1.000  K
  K59      1.0000 0.46261  0.46654  0.54725  Biso   1.000  K
  K60      1.0000 0.18117  0.81300  0.63506  Biso   1.000  K
  K61      1.0000 0.40674  0.47810  0.68099  Biso   1.000  K
  K62      1.0000 0.37448  0.45870  0.18729  Biso   1.000  K
  K63      1.0000 0.26122  0.81300  0.33130  Biso   1.000  K
  O379     1.0000 0.38760  0.68320  0.87000  Biso   1.000  O
  O380     1.0000 0.41740  0.62670  0.36880  Biso   1.000  O
  O381     1.0000 0.43583  0.76900  0.43960  Biso   1.000  O
  O382     1.0000 0.37505  0.67670  0.44590  Biso   1.000  O
  O383     1.0000 0.43325  0.74030  0.27330  Biso   1.000  O
  O384     1.0000 0.48318  0.74080  0.35130  Biso   1.000  O
  O385     1.0000 0.43745  0.58190  0.83180  Biso   1.000  O
  O386     1.0000 0.43551  0.65160  0.68400  Biso   1.000  O
  H239     1.0000 0.45250  0.65060  0.66450  Biso   1.000  H
  H240     1.0000 0.44090  0.66630  0.71610  Biso   1.000  H
  O387     1.0000 0.38155  0.65270  0.60390  Biso   1.000  O
  O388     1.0000 0.43665  0.80880  0.60100  Biso   1.000  O
  O389     1.0000 0.36922  0.86220  0.62640  Biso   1.000  O
  H241     1.0000 0.35010  0.83900  0.63020  Biso   1.000  H
  H242     1.0000 0.37080  0.91670  0.64450  Biso   1.000  H
  O390     1.0000 0.42173  0.63580  0.20590  Biso   1.000  O
  O391     1.0000 0.37050  0.69630  0.71010  Biso   1.000  O
  O392     1.0000 0.38642  0.37170  0.91410  Biso   1.000  O
  O393     1.0000 0.41934  0.31530  0.41350  Biso   1.000  O
  O394     1.0000 0.42071  0.30330  0.53890  Biso   1.000  O
  O395     1.0000 0.27674  0.32580  0.81600  Biso   1.000  O
  O396     1.0000 0.22027  0.32850  0.42330  Biso   1.000  O
  O397     1.0000 0.28126  0.37740  0.38460  Biso   1.000  O
  H243     1.0000 0.27000  0.43040  0.39050  Biso   1.000  H
  H244     1.0000 0.29330  0.36660  0.41180  Biso   1.000  H
  O398     1.0000 0.27851  0.31020  0.65490  Biso   1.000  O
  O399     1.0000 0.21672  0.21680  0.48990  Biso   1.000  O
  O400     1.0000 0.27676  0.46200  0.55140  Biso   1.000  O
  O401     1.0000 0.33002  0.31260  0.57140  Biso   1.000  O
  O402     1.0000 0.23054  0.33830  0.58370  Biso   1.000  O
  O403     1.0000 0.31688  0.16280  0.68750  Biso   1.000  O
  O404     1.0000 0.23325  0.49870  0.66380  Biso   1.000  O
  O405     1.0000 0.41199  0.46550  0.45180  Biso   1.000  O
  O406     1.0000 0.36616  0.80160  0.77960  Biso   1.000  O
  O407     1.0000 0.32116  0.70300  0.36830  Biso   1.000  O
  O408     1.0000 0.41523  0.61870  0.53620  Biso   1.000  O
  O409     1.0000 0.46919  0.60560  0.46810  Biso   1.000  O
  O410     1.0000 0.39762  0.52260  0.94990  Biso   1.000  O
  O411     1.0000 0.34348  0.83590  0.48330  Biso   1.000  O
  O412     1.0000 0.40205  0.83690  0.53420  Biso   1.000  O
  O413     1.0000 0.35432  0.26740  0.72040  Biso   1.000  O
  O414     1.0000 0.24093  0.35280  0.74960  Biso   1.000  O
  O415     1.0000 0.38903  0.41980  0.28870  Biso   1.000  O
  O416     1.0000 0.36383  0.52590  0.34440  Biso   1.000  O
  O417     1.0000 0.37523  0.38120  0.60220  Biso   1.000  O
  O418     1.0000 0.24283  0.56970  0.51070  Biso   1.000  O
  O419     1.0000 0.27772  0.70230  0.42040  Biso   1.000  O
  O420     1.0000 0.30803  0.74290  0.52990  Biso   1.000  O
  O421     1.0000 0.53038  0.73290  0.39120  Biso   1.000  O
  O422     1.0000 0.50526  0.69140  0.51580  Biso   1.000  O
  O423     1.0000 0.40693  0.47000  0.78830  Biso   1.000  O
  O424     1.0000 0.20220  0.62940  0.64940  Biso   1.000  O
  O425     1.0000 0.26640  0.97540  0.39620  Biso   1.000  O
  O426     1.0000 0.22990  0.84050  0.71150  Biso   1.000  O
  H245     1.0000 0.22150  0.85620  0.74170  Biso   1.000  H
  H246     1.0000 0.24260  0.88760  0.70120  Biso   1.000  H
  O427     1.0000 0.33820  0.23670  0.35200  Biso   1.000  O
  H247     1.0000 0.32520  0.17570  0.34320  Biso   1.000  H
  H248     1.0000 0.33820  0.24800  0.39140  Biso   1.000  H
  O428     1.0000 0.47600  0.39760  0.70890  Biso   1.000  O
  O429     1.0000 0.29720  0.60390  0.27040  Biso   1.000  O
  C253     1.0000 0.36490  0.71410  0.75850  Biso   1.000  C
  C254     1.0000 0.35560  0.62430  0.79380  Biso   1.000  C
  H249     1.0000 0.33410  0.63850  0.80980  Biso   1.000  H
  H250     1.0000 0.35320  0.56390  0.77040  Biso   1.000  H
  C255     1.0000 0.37890  0.59770  0.83940  Biso   1.000  C
  C256     1.0000 0.36130  0.51700  0.87450  Biso   1.000  C
  H251     1.0000 0.35220  0.46400  0.85060  Biso   1.000  H
  H252     1.0000 0.34300  0.55000  0.89350  Biso   1.000  H
  C257     1.0000 0.38330  0.46720  0.91570  Biso   1.000  C
  C258     1.0000 0.41010  0.54630  0.81740  Biso   1.000  C
  C259     1.0000 0.33220  0.75200  0.50000  Biso   1.000  C
  C260     1.0000 0.34850  0.65210  0.47950  Biso   1.000  C
  C261     1.0000 0.35910  0.58090  0.52520  Biso   1.000  C
  H253     1.0000 0.36490  0.51420  0.50960  Biso   1.000  H
  H254     1.0000 0.34050  0.57030  0.54990  Biso   1.000  H
  C262     1.0000 0.38750  0.62040  0.55740  Biso   1.000  C
  C263     1.0000 0.48970  0.84130  0.43100  Biso   1.000  C
  H255     1.0000 0.50820  0.86500  0.45310  Biso   1.000  H
  H256     1.0000 0.47980  0.90150  0.41370  Biso   1.000  H
  C264     1.0000 0.46462  0.79040  0.46780  Biso   1.000  C
  C265     1.0000 0.45860  0.86280  0.51600  Biso   1.000  C
  H257     1.0000 0.45450  0.93190  0.50190  Biso   1.000  H
  H258     1.0000 0.47860  0.86590  0.53810  Biso   1.000  H
  C266     1.0000 0.43040  0.83260  0.55260  Biso   1.000  C
  C267     1.0000 0.21310  0.30450  0.47150  Biso   1.000  C
  C268     1.0000 0.19830  0.38860  0.50600  Biso   1.000  C
  H259     1.0000 0.19410  0.44820  0.48270  Biso   1.000  H
  H260     1.0000 0.17720  0.36470  0.52000  Biso   1.000  H
  C269     1.0000 0.24840  0.49020  0.53700  Biso   1.000  C
  C270     1.0000 0.32750  0.25120  0.69870  Biso   1.000  C
  C271     1.0000 0.26880  0.35540  0.76910  Biso   1.000  C
  C272     1.0000 0.42300  0.41020  0.41470  Biso   1.000  C
  C273     1.0000 0.44170  0.45730  0.36880  Biso   1.000  C
  H261     1.0000 0.46180  0.48830  0.38330  Biso   1.000  H
  H262     1.0000 0.44820  0.40310  0.34330  Biso   1.000  H
  C274     1.0000 0.42240  0.53990  0.33730  Biso   1.000  C
  C275     1.0000 0.44220  0.56330  0.28660  Biso   1.000  C
  H263     1.0000 0.44210  0.50210  0.26340  Biso   1.000  H
  H264     1.0000 0.46490  0.57540  0.29760  Biso   1.000  H
  C276     1.0000 0.38910  0.49130  0.32190  Biso   1.000  C
  C277     1.0000 0.48070  0.68890  0.48640  Biso   1.000  C
  C278     1.0000 0.50220  0.76930  0.38730  Biso   1.000  C
  C279     1.0000 0.32180  0.59490  0.44700  Biso   1.000  C
  H265     1.0000 0.30560  0.56540  0.47200  Biso   1.000  H
  H266     1.0000 0.33160  0.53900  0.42590  Biso   1.000  H
  C280     1.0000 0.30540  0.67050  0.40930  Biso   1.000  C
  C281     1.0000 0.21940  0.42270  0.55400  Biso   1.000  C
  C282     1.0000 0.19670  0.49210  0.58790  Biso   1.000  C
  H267     1.0000 0.17820  0.45070  0.60060  Biso   1.000  H
  H268     1.0000 0.18790  0.54550  0.56400  Biso   1.000  H
  C283     1.0000 0.21190  0.54330  0.63650  Biso   1.000  C
  C284     1.0000 0.30590  0.34290  0.68450  Biso   1.000  C
  C285     1.0000 0.29610  0.40180  0.73610  Biso   1.000  C
  H269     1.0000 0.28970  0.47140  0.72550  Biso   1.000  H
  H270     1.0000 0.31550  0.40780  0.75950  Biso   1.000  H
  C286     1.0000 0.34520  0.36630  0.60490  Biso   1.000  C
  C287     1.0000 0.43130  0.65180  0.25330  Biso   1.000  C
  C288     1.0000 0.32610  0.41920  0.64980  Biso   1.000  C
  H271     1.0000 0.34130  0.45610  0.67360  Biso   1.000  H
  H272     1.0000 0.31120  0.46960  0.63350  Biso   1.000  H
  O430     1.0000 0.41890  0.21960  0.19790  Biso   1.000  O
  K64      1.0000 0.26990  0.82440  0.32560  Biso   1.000  K
  O431     1.0000 0.47200  0.45630  0.65640  Biso   1.000  O
  O432     1.0000 0.31810  0.57030  0.24800  Biso   1.000  O
  Ni65     1.0000 0.25000  0.25000  0.87130  Biso   1.000  Ni
  Ni66     1.0000 0.75000  0.75000  0.62870  Biso   1.000  Ni
  Ni67     1.0000 0.75000  0.75000  0.12870  Biso   1.000  Ni
  Ni68     1.0000 0.25000  0.25000  0.37130  Biso   1.000  Ni
  K65      1.0000 0.25000  0.75000  0.00269  Biso   1.000  K
  K66      1.0000 0.75000  0.25000  0.49731  Biso   1.000  K
  K67      1.0000 0.75000  0.25000  0.99731  Biso   1.000  K
  K68      1.0000 0.25000  0.75000  0.50269  Biso   1.000  K
