data_image0
_cell_length_a       47.515
_cell_length_b       47.515
_cell_length_c       47.515
_cell_angle_alpha    90
_cell_angle_beta     90
_cell_angle_gamma    90

_symmetry_space_group_name_H-M    "P 1"
_symmetry_int_tables_number       1

loop_
  _symmetry_equiv_pos_as_xyz
  'x, y, z'

loop_
  _atom_site_label
  _atom_site_occupancy
  _atom_site_fract_x
  _atom_site_fract_y
  _atom_site_fract_z
  _atom_site_thermal_displace_type
  _atom_site_B_iso_or_equiv
  _atom_site_type_symbol
  C1       1.0000 0.96136  0.72214  0.22495  Biso   1.000  C
  O1       1.0000 0.97050  0.71097  0.24700  Biso   1.000  O
  O2       1.0000 0.96970  0.74444  0.21412  Biso   1.000  O
  C2       1.0000 0.93743  0.70714  0.21072  Biso   1.000  C
  C3       1.0000 0.91705  0.69251  0.22619  Biso   1.000  C
  C4       1.0000 0.89468  0.68021  0.21312  Biso   1.000  C
  H1       1.0000 0.88130  0.67080  0.22380  Biso   1.000  H
  C5       1.0000 0.89161  0.68151  0.18376  Biso   1.000  C
  C6       1.0000 0.91178  0.69613  0.16837  Biso   1.000  C
  H2       1.0000 0.91010  0.69720  0.14890  Biso   1.000  H
  C7       1.0000 0.93416  0.70901  0.18129  Biso   1.000  C
  C8       1.0000 0.85374  0.64487  0.18096  Biso   1.000  C
  H3       1.0000 0.86130  0.63660  0.19700  Biso   1.000  H
  C9       1.0000 0.86654  0.66874  0.16971  Biso   1.000  C
  N1       1.0000 0.91506  0.68904  0.25857  Biso   1.000  N
  C10      1.0000 0.92790  0.66650  0.27140  Biso   1.000  C
  O3       1.0000 0.93680  0.64560  0.26050  Biso   1.000  O
  O4       1.0000 0.93125  0.67190  0.29856  Biso   1.000  O
  C11      1.0000 0.92320  0.70170  0.30500  Biso   1.000  C
  H4       1.0000 0.91060  0.70250  0.32100  Biso   1.000  H
  H5       1.0000 0.93980  0.71290  0.30900  Biso   1.000  H
  C12      1.0000 0.90896  0.71168  0.27898  Biso   1.000  C
  H6       1.0000 0.91790  0.72920  0.27260  Biso   1.000  H
  C13      1.0000 0.87885  0.71630  0.28210  Biso   1.000  C
  H7       1.0000 0.87200  0.72210  0.26350  Biso   1.000  H
  C14      1.0000 0.86180  0.69130  0.29020  Biso   1.000  C
  H8       1.0000 0.86690  0.67550  0.27860  Biso   1.000  H
  H9       1.0000 0.84220  0.69540  0.28760  Biso   1.000  H
  H10      1.0000 0.86520  0.68680  0.30960  Biso   1.000  H
  C15      1.0000 0.87210  0.74080  0.30220  Biso   1.000  C
  H11      1.0000 0.85210  0.74360  0.30290  Biso   1.000  H
  H12      1.0000 0.88100  0.75760  0.29550  Biso   1.000  H
  H13      1.0000 0.87900  0.73640  0.32070  Biso   1.000  H
  N2       1.0000 0.95768  0.71880  0.15922  Biso   1.000  N
  C16      1.0000 0.95290  0.74180  0.14360  Biso   1.000  C
  O5       1.0000 0.93210  0.75450  0.14180  Biso   1.000  O
  O6       1.0000 0.97630  0.75170  0.13180  Biso   1.000  O
  C17      1.0000 0.99800  0.73690  0.14270  Biso   1.000  C
  H14      1.0000 0.00860  0.74890  0.15540  Biso   1.000  H
  H15      1.0000 0.01050  0.73130  0.12760  Biso   1.000  H
  C18      1.0000 0.98800  0.71010  0.15910  Biso   1.000  C
  H16      1.0000 0.99500  0.71180  0.17840  Biso   1.000  H
  O7       1.0000 0.00268  0.69561  0.29806  Biso   1.000  O
  N3       1.0000 0.00454  0.66666  0.34152  Biso   1.000  N
  C19      1.0000 0.00454  0.69546  0.32302  Biso   1.000  C
  H17      1.0000 0.00170  0.67150  0.29610  Biso   1.000  H
  C20      1.0000 0.00842  0.67604  0.37123  Biso   1.000  C
  H18      1.0000 0.99420  0.67010  0.38460  Biso   1.000  H
  H19      1.0000 0.01480  0.69530  0.37400  Biso   1.000  H
  C21      1.0000 0.96136  0.22214  0.72495  Biso   1.000  C
  O8       1.0000 0.97050  0.21097  0.74700  Biso   1.000  O
  O9       1.0000 0.96970  0.24444  0.71412  Biso   1.000  O
  C22      1.0000 0.93743  0.20714  0.71072  Biso   1.000  C
  C23      1.0000 0.91705  0.19251  0.72619  Biso   1.000  C
  C24      1.0000 0.89468  0.18021  0.71312  Biso   1.000  C
  H20      1.0000 0.88130  0.17080  0.72380  Biso   1.000  H
  C25      1.0000 0.89161  0.18151  0.68376  Biso   1.000  C
  C26      1.0000 0.91178  0.19613  0.66837  Biso   1.000  C
  H21      1.0000 0.91010  0.19720  0.64890  Biso   1.000  H
  C27      1.0000 0.93416  0.20901  0.68129  Biso   1.000  C
  C28      1.0000 0.85374  0.14487  0.68096  Biso   1.000  C
  H22      1.0000 0.86130  0.13660  0.69700  Biso   1.000  H
  C29      1.0000 0.86654  0.16874  0.66971  Biso   1.000  C
  N4       1.0000 0.91506  0.18904  0.75857  Biso   1.000  N
  C30      1.0000 0.92790  0.16650  0.77140  Biso   1.000  C
  O10      1.0000 0.93680  0.14560  0.76050  Biso   1.000  O
  O11      1.0000 0.93125  0.17190  0.79856  Biso   1.000  O
  C31      1.0000 0.92320  0.20170  0.80500  Biso   1.000  C
  H23      1.0000 0.91060  0.20250  0.82100  Biso   1.000  H
  H24      1.0000 0.93980  0.21290  0.80900  Biso   1.000  H
  C32      1.0000 0.90896  0.21168  0.77898  Biso   1.000  C
  H25      1.0000 0.91790  0.22920  0.77260  Biso   1.000  H
  C33      1.0000 0.87885  0.21630  0.78210  Biso   1.000  C
  H26      1.0000 0.87200  0.22210  0.76350  Biso   1.000  H
  C34      1.0000 0.86180  0.19130  0.79020  Biso   1.000  C
  H27      1.0000 0.86690  0.17550  0.77860  Biso   1.000  H
  H28      1.0000 0.84220  0.19540  0.78760  Biso   1.000  H
  H29      1.0000 0.86520  0.18680  0.80960  Biso   1.000  H
  C35      1.0000 0.87210  0.24080  0.80220  Biso   1.000  C
  H30      1.0000 0.85210  0.24360  0.80290  Biso   1.000  H
  H31      1.0000 0.88100  0.25760  0.79550  Biso   1.000  H
  H32      1.0000 0.87900  0.23640  0.82070  Biso   1.000  H
  N5       1.0000 0.95768  0.21880  0.65922  Biso   1.000  N
  C36      1.0000 0.95290  0.24180  0.64360  Biso   1.000  C
  O12      1.0000 0.93210  0.25450  0.64180  Biso   1.000  O
  O13      1.0000 0.97630  0.25170  0.63180  Biso   1.000  O
  C37      1.0000 0.99800  0.23690  0.64270  Biso   1.000  C
  H33      1.0000 0.00860  0.24890  0.65540  Biso   1.000  H
  H34      1.0000 0.01050  0.23130  0.62760  Biso   1.000  H
  C38      1.0000 0.98800  0.21010  0.65910  Biso   1.000  C
  H35      1.0000 0.99500  0.21180  0.67840  Biso   1.000  H
  O14      1.0000 0.00268  0.19561  0.79806  Biso   1.000  O
  N6       1.0000 0.00454  0.16666  0.84152  Biso   1.000  N
  C39      1.0000 0.00454  0.19546  0.82302  Biso   1.000  C
  H36      1.0000 0.00170  0.17150  0.79610  Biso   1.000  H
  C40      1.0000 0.00842  0.17604  0.87123  Biso   1.000  C
  H37      1.0000 0.99420  0.17010  0.88460  Biso   1.000  H
  H38      1.0000 0.01480  0.19530  0.87400  Biso   1.000  H
  C41      1.0000 0.46136  0.72214  0.72495  Biso   1.000  C
  O15      1.0000 0.47050  0.71097  0.74700  Biso   1.000  O
  O16      1.0000 0.46970  0.74444  0.71412  Biso   1.000  O
  C42      1.0000 0.43743  0.70714  0.71072  Biso   1.000  C
  C43      1.0000 0.41705  0.69251  0.72619  Biso   1.000  C
  C44      1.0000 0.39468  0.68021  0.71312  Biso   1.000  C
  H39      1.0000 0.38130  0.67080  0.72380  Biso   1.000  H
  C45      1.0000 0.39161  0.68151  0.68376  Biso   1.000  C
  C46      1.0000 0.41178  0.69613  0.66837  Biso   1.000  C
  H40      1.0000 0.41010  0.69720  0.64890  Biso   1.000  H
  C47      1.0000 0.43416  0.70901  0.68129  Biso   1.000  C
  C48      1.0000 0.35374  0.64487  0.68096  Biso   1.000  C
  H41      1.0000 0.36130  0.63660  0.69700  Biso   1.000  H
  C49      1.0000 0.36654  0.66874  0.66971  Biso   1.000  C
  N7       1.0000 0.41506  0.68904  0.75857  Biso   1.000  N
  C50      1.0000 0.42790  0.66650  0.77140  Biso   1.000  C
  O17      1.0000 0.43680  0.64560  0.76050  Biso   1.000  O
  O18      1.0000 0.43125  0.67190  0.79856  Biso   1.000  O
  C51      1.0000 0.42320  0.70170  0.80500  Biso   1.000  C
  H42      1.0000 0.41060  0.70250  0.82100  Biso   1.000  H
  H43      1.0000 0.43980  0.71290  0.80900  Biso   1.000  H
  C52      1.0000 0.40896  0.71168  0.77898  Biso   1.000  C
  H44      1.0000 0.41790  0.72920  0.77260  Biso   1.000  H
  C53      1.0000 0.37885  0.71630  0.78210  Biso   1.000  C
  H45      1.0000 0.37200  0.72210  0.76350  Biso   1.000  H
  C54      1.0000 0.36180  0.69130  0.79020  Biso   1.000  C
  H46      1.0000 0.36690  0.67550  0.77860  Biso   1.000  H
  H47      1.0000 0.34220  0.69540  0.78760  Biso   1.000  H
  H48      1.0000 0.36520  0.68680  0.80960  Biso   1.000  H
  C55      1.0000 0.37210  0.74080  0.80220  Biso   1.000  C
  H49      1.0000 0.35210  0.74360  0.80290  Biso   1.000  H
  H50      1.0000 0.38100  0.75760  0.79550  Biso   1.000  H
  H51      1.0000 0.37900  0.73640  0.82070  Biso   1.000  H
  N8       1.0000 0.45768  0.71880  0.65922  Biso   1.000  N
  C56      1.0000 0.45290  0.74180  0.64360  Biso   1.000  C
  O19      1.0000 0.43210  0.75450  0.64180  Biso   1.000  O
  O20      1.0000 0.47630  0.75170  0.63180  Biso   1.000  O
  C57      1.0000 0.49800  0.73690  0.64270  Biso   1.000  C
  H52      1.0000 0.50860  0.74890  0.65540  Biso   1.000  H
  H53      1.0000 0.51050  0.73130  0.62760  Biso   1.000  H
  C58      1.0000 0.48800  0.71010  0.65910  Biso   1.000  C
  H54      1.0000 0.49500  0.71180  0.67840  Biso   1.000  H
  O21      1.0000 0.50268  0.69561  0.79806  Biso   1.000  O
  N9       1.0000 0.50454  0.66666  0.84152  Biso   1.000  N
  C59      1.0000 0.50454  0.69546  0.82302  Biso   1.000  C
  H55      1.0000 0.50170  0.67150  0.79610  Biso   1.000  H
  C60      1.0000 0.50842  0.67604  0.87123  Biso   1.000  C
  H56      1.0000 0.49420  0.67010  0.88460  Biso   1.000  H
  H57      1.0000 0.51480  0.69530  0.87400  Biso   1.000  H
  C61      1.0000 0.46136  0.22214  0.22495  Biso   1.000  C
  O22      1.0000 0.47050  0.21097  0.24700  Biso   1.000  O
  O23      1.0000 0.46970  0.24444  0.21412  Biso   1.000  O
  C62      1.0000 0.43743  0.20714  0.21072  Biso   1.000  C
  C63      1.0000 0.41705  0.19251  0.22619  Biso   1.000  C
  C64      1.0000 0.39468  0.18021  0.21312  Biso   1.000  C
  H58      1.0000 0.38130  0.17080  0.22380  Biso   1.000  H
  C65      1.0000 0.39161  0.18151  0.18376  Biso   1.000  C
  C66      1.0000 0.41178  0.19613  0.16837  Biso   1.000  C
  H59      1.0000 0.41010  0.19720  0.14890  Biso   1.000  H
  C67      1.0000 0.43416  0.20901  0.18129  Biso   1.000  C
  C68      1.0000 0.35374  0.14487  0.18096  Biso   1.000  C
  H60      1.0000 0.36130  0.13660  0.19700  Biso   1.000  H
  C69      1.0000 0.36654  0.16874  0.16971  Biso   1.000  C
  N10      1.0000 0.41506  0.18904  0.25857  Biso   1.000  N
  C70      1.0000 0.42790  0.16650  0.27140  Biso   1.000  C
  O24      1.0000 0.43680  0.14560  0.26050  Biso   1.000  O
  O25      1.0000 0.43125  0.17190  0.29856  Biso   1.000  O
  C71      1.0000 0.42320  0.20170  0.30500  Biso   1.000  C
  H61      1.0000 0.41060  0.20250  0.32100  Biso   1.000  H
  H62      1.0000 0.43980  0.21290  0.30900  Biso   1.000  H
  C72      1.0000 0.40896  0.21168  0.27898  Biso   1.000  C
  H63      1.0000 0.41790  0.22920  0.27260  Biso   1.000  H
  C73      1.0000 0.37885  0.21630  0.28210  Biso   1.000  C
  H64      1.0000 0.37200  0.22210  0.26350  Biso   1.000  H
  C74      1.0000 0.36180  0.19130  0.29020  Biso   1.000  C
  H65      1.0000 0.36690  0.17550  0.27860  Biso   1.000  H
  H66      1.0000 0.34220  0.19540  0.28760  Biso   1.000  H
  H67      1.0000 0.36520  0.18680  0.30960  Biso   1.000  H
  C75      1.0000 0.37210  0.24080  0.30220  Biso   1.000  C
  H68      1.0000 0.35210  0.24360  0.30290  Biso   1.000  H
  H69      1.0000 0.38100  0.25760  0.29550  Biso   1.000  H
  H70      1.0000 0.37900  0.23640  0.32070  Biso   1.000  H
  N11      1.0000 0.45768  0.21880  0.15922  Biso   1.000  N
  C76      1.0000 0.45290  0.24180  0.14360  Biso   1.000  C
  O26      1.0000 0.43210  0.25450  0.14180  Biso   1.000  O
  O27      1.0000 0.47630  0.25170  0.13180  Biso   1.000  O
  C77      1.0000 0.49800  0.23690  0.14270  Biso   1.000  C
  H71      1.0000 0.50860  0.24890  0.15540  Biso   1.000  H
  H72      1.0000 0.51050  0.23130  0.12760  Biso   1.000  H
  C78      1.0000 0.48800  0.21010  0.15910  Biso   1.000  C
  H73      1.0000 0.49500  0.21180  0.17840  Biso   1.000  H
  O28      1.0000 0.50268  0.19561  0.29806  Biso   1.000  O
  N12      1.0000 0.50454  0.16666  0.34152  Biso   1.000  N
  C79      1.0000 0.50454  0.19546  0.32302  Biso   1.000  C
  H74      1.0000 0.50170  0.17150  0.29610  Biso   1.000  H
  C80      1.0000 0.50842  0.17604  0.37123  Biso   1.000  C
  H75      1.0000 0.49420  0.17010  0.38460  Biso   1.000  H
  H76      1.0000 0.51480  0.19530  0.37400  Biso   1.000  H
  C81      1.0000 0.03864  0.27786  0.22495  Biso   1.000  C
  O29      1.0000 0.02950  0.28903  0.24700  Biso   1.000  O
  O30      1.0000 0.03030  0.25556  0.21412  Biso   1.000  O
  C82      1.0000 0.06257  0.29286  0.21072  Biso   1.000  C
  C83      1.0000 0.08295  0.30749  0.22619  Biso   1.000  C
  C84      1.0000 0.10532  0.31979  0.21312  Biso   1.000  C
  H77      1.0000 0.11870  0.32920  0.22380  Biso   1.000  H
  C85      1.0000 0.10839  0.31849  0.18376  Biso   1.000  C
  C86      1.0000 0.08822  0.30387  0.16837  Biso   1.000  C
  H78      1.0000 0.08990  0.30280  0.14890  Biso   1.000  H
  C87      1.0000 0.06584  0.29099  0.18129  Biso   1.000  C
  C88      1.0000 0.14626  0.35513  0.18096  Biso   1.000  C
  H79      1.0000 0.13870  0.36340  0.19700  Biso   1.000  H
  C89      1.0000 0.13346  0.33126  0.16971  Biso   1.000  C
  N13      1.0000 0.08494  0.31096  0.25857  Biso   1.000  N
  C90      1.0000 0.07210  0.33350  0.27140  Biso   1.000  C
  O31      1.0000 0.06320  0.35440  0.26050  Biso   1.000  O
  O32      1.0000 0.06875  0.32810  0.29856  Biso   1.000  O
  C91      1.0000 0.07680  0.29830  0.30500  Biso   1.000  C
  H80      1.0000 0.08940  0.29750  0.32100  Biso   1.000  H
  H81      1.0000 0.06020  0.28710  0.30900  Biso   1.000  H
  C92      1.0000 0.09104  0.28832  0.27898  Biso   1.000  C
  H82      1.0000 0.08210  0.27080  0.27260  Biso   1.000  H
  C93      1.0000 0.12115  0.28370  0.28210  Biso   1.000  C
  H83      1.0000 0.12800  0.27790  0.26350  Biso   1.000  H
  C94      1.0000 0.13820  0.30870  0.29020  Biso   1.000  C
  H84      1.0000 0.13310  0.32450  0.27860  Biso   1.000  H
  H85      1.0000 0.15780  0.30460  0.28760  Biso   1.000  H
  H86      1.0000 0.13480  0.31320  0.30960  Biso   1.000  H
  C95      1.0000 0.12790  0.25920  0.30220  Biso   1.000  C
  H87      1.0000 0.14790  0.25640  0.30290  Biso   1.000  H
  H88      1.0000 0.11900  0.24240  0.29550  Biso   1.000  H
  H89      1.0000 0.12100  0.26360  0.32070  Biso   1.000  H
  N14      1.0000 0.04232  0.28120  0.15922  Biso   1.000  N
  C96      1.0000 0.04710  0.25820  0.14360  Biso   1.000  C
  O33      1.0000 0.06790  0.24550  0.14180  Biso   1.000  O
  O34      1.0000 0.02370  0.24830  0.13180  Biso   1.000  O
  C97      1.0000 0.00200  0.26310  0.14270  Biso   1.000  C
  H90      1.0000 0.99140  0.25110  0.15540  Biso   1.000  H
  H91      1.0000 0.98950  0.26870  0.12760  Biso   1.000  H
  C98      1.0000 0.01200  0.28990  0.15910  Biso   1.000  C
  H92      1.0000 0.00500  0.28820  0.17840  Biso   1.000  H
  O35      1.0000 0.99732  0.30439  0.29806  Biso   1.000  O
  N15      1.0000 0.99546  0.33334  0.34152  Biso   1.000  N
  C99      1.0000 0.99546  0.30454  0.32302  Biso   1.000  C
  H93      1.0000 0.99830  0.32850  0.29610  Biso   1.000  H
  C100     1.0000 0.99158  0.32396  0.37123  Biso   1.000  C
  H94      1.0000 0.00580  0.32990  0.38460  Biso   1.000  H
  H95      1.0000 0.98520  0.30470  0.37400  Biso   1.000  H
  C101     1.0000 0.03864  0.77786  0.72495  Biso   1.000  C
  O36      1.0000 0.02950  0.78903  0.74700  Biso   1.000  O
  O37      1.0000 0.03030  0.75556  0.71412  Biso   1.000  O
  C102     1.0000 0.06257  0.79286  0.71072  Biso   1.000  C
  C103     1.0000 0.08295  0.80749  0.72619  Biso   1.000  C
  C104     1.0000 0.10532  0.81979  0.71312  Biso   1.000  C
  H96      1.0000 0.11870  0.82920  0.72380  Biso   1.000  H
  C105     1.0000 0.10839  0.81849  0.68376  Biso   1.000  C
  C106     1.0000 0.08822  0.80387  0.66837  Biso   1.000  C
  H97      1.0000 0.08990  0.80280  0.64890  Biso   1.000  H
  C107     1.0000 0.06584  0.79099  0.68129  Biso   1.000  C
  C108     1.0000 0.14626  0.85513  0.68096  Biso   1.000  C
  H98      1.0000 0.13870  0.86340  0.69700  Biso   1.000  H
  C109     1.0000 0.13346  0.83126  0.66971  Biso   1.000  C
  N16      1.0000 0.08494  0.81096  0.75857  Biso   1.000  N
  C110     1.0000 0.07210  0.83350  0.77140  Biso   1.000  C
  O38      1.0000 0.06320  0.85440  0.76050  Biso   1.000  O
  O39      1.0000 0.06875  0.82810  0.79856  Biso   1.000  O
  C111     1.0000 0.07680  0.79830  0.80500  Biso   1.000  C
  H99      1.0000 0.08940  0.79750  0.82100  Biso   1.000  H
  H100     1.0000 0.06020  0.78710  0.80900  Biso   1.000  H
  C112     1.0000 0.09104  0.78832  0.77898  Biso   1.000  C
  H101     1.0000 0.08210  0.77080  0.77260  Biso   1.000  H
  C113     1.0000 0.12115  0.78370  0.78210  Biso   1.000  C
  H102     1.0000 0.12800  0.77790  0.76350  Biso   1.000  H
  C114     1.0000 0.13820  0.80870  0.79020  Biso   1.000  C
  H103     1.0000 0.13310  0.82450  0.77860  Biso   1.000  H
  H104     1.0000 0.15780  0.80460  0.78760  Biso   1.000  H
  H105     1.0000 0.13480  0.81320  0.80960  Biso   1.000  H
  C115     1.0000 0.12790  0.75920  0.80220  Biso   1.000  C
  H106     1.0000 0.14790  0.75640  0.80290  Biso   1.000  H
  H107     1.0000 0.11900  0.74240  0.79550  Biso   1.000  H
  H108     1.0000 0.12100  0.76360  0.82070  Biso   1.000  H
  N17      1.0000 0.04232  0.78120  0.65922  Biso   1.000  N
  C116     1.0000 0.04710  0.75820  0.64360  Biso   1.000  C
  O40      1.0000 0.06790  0.74550  0.64180  Biso   1.000  O
  O41      1.0000 0.02370  0.74830  0.63180  Biso   1.000  O
  C117     1.0000 0.00200  0.76310  0.64270  Biso   1.000  C
  H109     1.0000 0.99140  0.75110  0.65540  Biso   1.000  H
  H110     1.0000 0.98950  0.76870  0.62760  Biso   1.000  H
  C118     1.0000 0.01200  0.78990  0.65910  Biso   1.000  C
  H111     1.0000 0.00500  0.78820  0.67840  Biso   1.000  H
  O42      1.0000 0.99732  0.80439  0.79806  Biso   1.000  O
  N18      1.0000 0.99546  0.83334  0.84152  Biso   1.000  N
  C119     1.0000 0.99546  0.80454  0.82302  Biso   1.000  C
  H112     1.0000 0.99830  0.82850  0.79610  Biso   1.000  H
  C120     1.0000 0.99158  0.82396  0.87123  Biso   1.000  C
  H113     1.0000 0.00580  0.82990  0.88460  Biso   1.000  H
  H114     1.0000 0.98520  0.80470  0.87400  Biso   1.000  H
  C121     1.0000 0.53864  0.27786  0.72495  Biso   1.000  C
  O43      1.0000 0.52950  0.28903  0.74700  Biso   1.000  O
  O44      1.0000 0.53030  0.25556  0.71412  Biso   1.000  O
  C122     1.0000 0.56257  0.29286  0.71072  Biso   1.000  C
  C123     1.0000 0.58295  0.30749  0.72619  Biso   1.000  C
  C124     1.0000 0.60532  0.31979  0.71312  Biso   1.000  C
  H115     1.0000 0.61870  0.32920  0.72380  Biso   1.000  H
  C125     1.0000 0.60839  0.31849  0.68376  Biso   1.000  C
  C126     1.0000 0.58822  0.30387  0.66837  Biso   1.000  C
  H116     1.0000 0.58990  0.30280  0.64890  Biso   1.000  H
  C127     1.0000 0.56584  0.29099  0.68129  Biso   1.000  C
  C128     1.0000 0.64626  0.35513  0.68096  Biso   1.000  C
  H117     1.0000 0.63870  0.36340  0.69700  Biso   1.000  H
  C129     1.0000 0.63346  0.33126  0.66971  Biso   1.000  C
  N19      1.0000 0.58494  0.31096  0.75857  Biso   1.000  N
  C130     1.0000 0.57210  0.33350  0.77140  Biso   1.000  C
  O45      1.0000 0.56320  0.35440  0.76050  Biso   1.000  O
  O46      1.0000 0.56875  0.32810  0.79856  Biso   1.000  O
  C131     1.0000 0.57680  0.29830  0.80500  Biso   1.000  C
  H118     1.0000 0.58940  0.29750  0.82100  Biso   1.000  H
  H119     1.0000 0.56020  0.28710  0.80900  Biso   1.000  H
  C132     1.0000 0.59104  0.28832  0.77898  Biso   1.000  C
  H120     1.0000 0.58210  0.27080  0.77260  Biso   1.000  H
  C133     1.0000 0.62115  0.28370  0.78210  Biso   1.000  C
  H121     1.0000 0.62800  0.27790  0.76350  Biso   1.000  H
  C134     1.0000 0.63820  0.30870  0.79020  Biso   1.000  C
  H122     1.0000 0.63310  0.32450  0.77860  Biso   1.000  H
  H123     1.0000 0.65780  0.30460  0.78760  Biso   1.000  H
  H124     1.0000 0.63480  0.31320  0.80960  Biso   1.000  H
  C135     1.0000 0.62790  0.25920  0.80220  Biso   1.000  C
  H125     1.0000 0.64790  0.25640  0.80290  Biso   1.000  H
  H126     1.0000 0.61900  0.24240  0.79550  Biso   1.000  H
  H127     1.0000 0.62100  0.26360  0.82070  Biso   1.000  H
  N20      1.0000 0.54232  0.28120  0.65922  Biso   1.000  N
  C136     1.0000 0.54710  0.25820  0.64360  Biso   1.000  C
  O47      1.0000 0.56790  0.24550  0.64180  Biso   1.000  O
  O48      1.0000 0.52370  0.24830  0.63180  Biso   1.000  O
  C137     1.0000 0.50200  0.26310  0.64270  Biso   1.000  C
  H128     1.0000 0.49140  0.25110  0.65540  Biso   1.000  H
  H129     1.0000 0.48950  0.26870  0.62760  Biso   1.000  H
  C138     1.0000 0.51200  0.28990  0.65910  Biso   1.000  C
  H130     1.0000 0.50500  0.28820  0.67840  Biso   1.000  H
  O49      1.0000 0.49732  0.30439  0.79806  Biso   1.000  O
  N21      1.0000 0.49546  0.33334  0.84152  Biso   1.000  N
  C139     1.0000 0.49546  0.30454  0.82302  Biso   1.000  C
  H131     1.0000 0.49830  0.32850  0.79610  Biso   1.000  H
  C140     1.0000 0.49158  0.32396  0.87123  Biso   1.000  C
  H132     1.0000 0.50580  0.32990  0.88460  Biso   1.000  H
  H133     1.0000 0.48520  0.30470  0.87400  Biso   1.000  H
  C141     1.0000 0.53864  0.77786  0.22495  Biso   1.000  C
  O50      1.0000 0.52950  0.78903  0.24700  Biso   1.000  O
  O51      1.0000 0.53030  0.75556  0.21412  Biso   1.000  O
  C142     1.0000 0.56257  0.79286  0.21072  Biso   1.000  C
  C143     1.0000 0.58295  0.80749  0.22619  Biso   1.000  C
  C144     1.0000 0.60532  0.81979  0.21312  Biso   1.000  C
  H134     1.0000 0.61870  0.82920  0.22380  Biso   1.000  H
  C145     1.0000 0.60839  0.81849  0.18376  Biso   1.000  C
  C146     1.0000 0.58822  0.80387  0.16837  Biso   1.000  C
  H135     1.0000 0.58990  0.80280  0.14890  Biso   1.000  H
  C147     1.0000 0.56584  0.79099  0.18129  Biso   1.000  C
  C148     1.0000 0.64626  0.85513  0.18096  Biso   1.000  C
  H136     1.0000 0.63870  0.86340  0.19700  Biso   1.000  H
  C149     1.0000 0.63346  0.83126  0.16971  Biso   1.000  C
  N22      1.0000 0.58494  0.81096  0.25857  Biso   1.000  N
  C150     1.0000 0.57210  0.83350  0.27140  Biso   1.000  C
  O52      1.0000 0.56320  0.85440  0.26050  Biso   1.000  O
  O53      1.0000 0.56875  0.82810  0.29856  Biso   1.000  O
  C151     1.0000 0.57680  0.79830  0.30500  Biso   1.000  C
  H137     1.0000 0.58940  0.79750  0.32100  Biso   1.000  H
  H138     1.0000 0.56020  0.78710  0.30900  Biso   1.000  H
  C152     1.0000 0.59104  0.78832  0.27898  Biso   1.000  C
  H139     1.0000 0.58210  0.77080  0.27260  Biso   1.000  H
  C153     1.0000 0.62115  0.78370  0.28210  Biso   1.000  C
  H140     1.0000 0.62800  0.77790  0.26350  Biso   1.000  H
  C154     1.0000 0.63820  0.80870  0.29020  Biso   1.000  C
  H141     1.0000 0.63310  0.82450  0.27860  Biso   1.000  H
  H142     1.0000 0.65780  0.80460  0.28760  Biso   1.000  H
  H143     1.0000 0.63480  0.81320  0.30960  Biso   1.000  H
  C155     1.0000 0.62790  0.75920  0.30220  Biso   1.000  C
  H144     1.0000 0.64790  0.75640  0.30290  Biso   1.000  H
  H145     1.0000 0.61900  0.74240  0.29550  Biso   1.000  H
  H146     1.0000 0.62100  0.76360  0.32070  Biso   1.000  H
  N23      1.0000 0.54232  0.78120  0.15922  Biso   1.000  N
  C156     1.0000 0.54710  0.75820  0.14360  Biso   1.000  C
  O54      1.0000 0.56790  0.74550  0.14180  Biso   1.000  O
  O55      1.0000 0.52370  0.74830  0.13180  Biso   1.000  O
  C157     1.0000 0.50200  0.76310  0.14270  Biso   1.000  C
  H147     1.0000 0.49140  0.75110  0.15540  Biso   1.000  H
  H148     1.0000 0.48950  0.76870  0.12760  Biso   1.000  H
  C158     1.0000 0.51200  0.78990  0.15910  Biso   1.000  C
  H149     1.0000 0.50500  0.78820  0.17840  Biso   1.000  H
  O56      1.0000 0.49732  0.80439  0.29806  Biso   1.000  O
  N24      1.0000 0.49546  0.83334  0.34152  Biso   1.000  N
  C159     1.0000 0.49546  0.80454  0.32302  Biso   1.000  C
  H150     1.0000 0.49830  0.82850  0.29610  Biso   1.000  H
  C160     1.0000 0.49158  0.82396  0.37123  Biso   1.000  C
  H151     1.0000 0.50580  0.82990  0.38460  Biso   1.000  H
  H152     1.0000 0.48520  0.80470  0.37400  Biso   1.000  H
  C161     1.0000 0.03864  0.72214  0.77505  Biso   1.000  C
  O57      1.0000 0.02950  0.71097  0.75300  Biso   1.000  O
  O58      1.0000 0.03030  0.74444  0.78588  Biso   1.000  O
  C162     1.0000 0.06257  0.70714  0.78928  Biso   1.000  C
  C163     1.0000 0.08295  0.69251  0.77381  Biso   1.000  C
  C164     1.0000 0.10532  0.68021  0.78688  Biso   1.000  C
  H153     1.0000 0.11870  0.67080  0.77620  Biso   1.000  H
  C165     1.0000 0.10839  0.68151  0.81624  Biso   1.000  C
  C166     1.0000 0.08822  0.69613  0.83163  Biso   1.000  C
  H154     1.0000 0.08990  0.69720  0.85110  Biso   1.000  H
  C167     1.0000 0.06584  0.70901  0.81871  Biso   1.000  C
  C168     1.0000 0.14626  0.64487  0.81904  Biso   1.000  C
  H155     1.0000 0.13870  0.63660  0.80300  Biso   1.000  H
  C169     1.0000 0.13346  0.66874  0.83029  Biso   1.000  C
  N25      1.0000 0.08494  0.68904  0.74143  Biso   1.000  N
  C170     1.0000 0.07210  0.66650  0.72860  Biso   1.000  C
  O59      1.0000 0.06320  0.64560  0.73950  Biso   1.000  O
  O60      1.0000 0.06875  0.67190  0.70144  Biso   1.000  O
  C171     1.0000 0.07680  0.70170  0.69500  Biso   1.000  C
  H156     1.0000 0.08940  0.70250  0.67900  Biso   1.000  H
  H157     1.0000 0.06020  0.71290  0.69100  Biso   1.000  H
  C172     1.0000 0.09104  0.71168  0.72102  Biso   1.000  C
  H158     1.0000 0.08210  0.72920  0.72740  Biso   1.000  H
  C173     1.0000 0.12115  0.71630  0.71790  Biso   1.000  C
  H159     1.0000 0.12800  0.72210  0.73650  Biso   1.000  H
  C174     1.0000 0.13820  0.69130  0.70980  Biso   1.000  C
  H160     1.0000 0.13310  0.67550  0.72140  Biso   1.000  H
  H161     1.0000 0.15780  0.69540  0.71240  Biso   1.000  H
  H162     1.0000 0.13480  0.68680  0.69040  Biso   1.000  H
  C175     1.0000 0.12790  0.74080  0.69780  Biso   1.000  C
  H163     1.0000 0.14790  0.74360  0.69710  Biso   1.000  H
  H164     1.0000 0.11900  0.75760  0.70450  Biso   1.000  H
  H165     1.0000 0.12100  0.73640  0.67930  Biso   1.000  H
  N26      1.0000 0.04232  0.71880  0.84078  Biso   1.000  N
  C176     1.0000 0.04710  0.74180  0.85640  Biso   1.000  C
  O61      1.0000 0.06790  0.75450  0.85820  Biso   1.000  O
  O62      1.0000 0.02370  0.75170  0.86820  Biso   1.000  O
  C177     1.0000 0.00200  0.73690  0.85730  Biso   1.000  C
  H166     1.0000 0.99140  0.74890  0.84460  Biso   1.000  H
  H167     1.0000 0.98950  0.73130  0.87240  Biso   1.000  H
  C178     1.0000 0.01200  0.71010  0.84090  Biso   1.000  C
  H168     1.0000 0.00500  0.71180  0.82160  Biso   1.000  H
  O63      1.0000 0.99732  0.69561  0.70194  Biso   1.000  O
  N27      1.0000 0.99546  0.66666  0.65848  Biso   1.000  N
  C179     1.0000 0.99546  0.69546  0.67698  Biso   1.000  C
  H169     1.0000 0.99830  0.67150  0.70390  Biso   1.000  H
  C180     1.0000 0.99158  0.67604  0.62877  Biso   1.000  C
  H170     1.0000 0.00580  0.67010  0.61540  Biso   1.000  H
  H171     1.0000 0.98520  0.69530  0.62600  Biso   1.000  H
  C181     1.0000 0.03864  0.22214  0.27505  Biso   1.000  C
  O64      1.0000 0.02950  0.21097  0.25300  Biso   1.000  O
  O65      1.0000 0.03030  0.24444  0.28588  Biso   1.000  O
  C182     1.0000 0.06257  0.20714  0.28928  Biso   1.000  C
  C183     1.0000 0.08295  0.19251  0.27381  Biso   1.000  C
  C184     1.0000 0.10532  0.18021  0.28688  Biso   1.000  C
  H172     1.0000 0.11870  0.17080  0.27620  Biso   1.000  H
  C185     1.0000 0.10839  0.18151  0.31624  Biso   1.000  C
  C186     1.0000 0.08822  0.19613  0.33163  Biso   1.000  C
  H173     1.0000 0.08990  0.19720  0.35110  Biso   1.000  H
  C187     1.0000 0.06584  0.20901  0.31871  Biso   1.000  C
  C188     1.0000 0.14626  0.14487  0.31904  Biso   1.000  C
  H174     1.0000 0.13870  0.13660  0.30300  Biso   1.000  H
  C189     1.0000 0.13346  0.16874  0.33029  Biso   1.000  C
  N28      1.0000 0.08494  0.18904  0.24143  Biso   1.000  N
  C190     1.0000 0.07210  0.16650  0.22860  Biso   1.000  C
  O66      1.0000 0.06320  0.14560  0.23950  Biso   1.000  O
  O67      1.0000 0.06875  0.17190  0.20144  Biso   1.000  O
  C191     1.0000 0.07680  0.20170  0.19500  Biso   1.000  C
  H175     1.0000 0.08940  0.20250  0.17900  Biso   1.000  H
  H176     1.0000 0.06020  0.21290  0.19100  Biso   1.000  H
  C192     1.0000 0.09104  0.21168  0.22102  Biso   1.000  C
  H177     1.0000 0.08210  0.22920  0.22740  Biso   1.000  H
  C193     1.0000 0.12115  0.21630  0.21790  Biso   1.000  C
  H178     1.0000 0.12800  0.22210  0.23650  Biso   1.000  H
  C194     1.0000 0.13820  0.19130  0.20980  Biso   1.000  C
  H179     1.0000 0.13310  0.17550  0.22140  Biso   1.000  H
  H180     1.0000 0.15780  0.19540  0.21240  Biso   1.000  H
  H181     1.0000 0.13480  0.18680  0.19040  Biso   1.000  H
  C195     1.0000 0.12790  0.24080  0.19780  Biso   1.000  C
  H182     1.0000 0.14790  0.24360  0.19710  Biso   1.000  H
  H183     1.0000 0.11900  0.25760  0.20450  Biso   1.000  H
  H184     1.0000 0.12100  0.23640  0.17930  Biso   1.000  H
  N29      1.0000 0.04232  0.21880  0.34078  Biso   1.000  N
  C196     1.0000 0.04710  0.24180  0.35640  Biso   1.000  C
  O68      1.0000 0.06790  0.25450  0.35820  Biso   1.000  O
  O69      1.0000 0.02370  0.25170  0.36820  Biso   1.000  O
  C197     1.0000 0.00200  0.23690  0.35730  Biso   1.000  C
  H185     1.0000 0.99140  0.24890  0.34460  Biso   1.000  H
  H186     1.0000 0.98950  0.23130  0.37240  Biso   1.000  H
  C198     1.0000 0.01200  0.21010  0.34090  Biso   1.000  C
  H187     1.0000 0.00500  0.21180  0.32160  Biso   1.000  H
  O70      1.0000 0.99732  0.19561  0.20194  Biso   1.000  O
  N30      1.0000 0.99546  0.16666  0.15848  Biso   1.000  N
  C199     1.0000 0.99546  0.19546  0.17698  Biso   1.000  C
  H188     1.0000 0.99830  0.17150  0.20390  Biso   1.000  H
  C200     1.0000 0.99158  0.17604  0.12877  Biso   1.000  C
  H189     1.0000 0.00580  0.17010  0.11540  Biso   1.000  H
  H190     1.0000 0.98520  0.19530  0.12600  Biso   1.000  H
  C201     1.0000 0.53864  0.72214  0.27505  Biso   1.000  C
  O71      1.0000 0.52950  0.71097  0.25300  Biso   1.000  O
  O72      1.0000 0.53030  0.74444  0.28588  Biso   1.000  O
  C202     1.0000 0.56257  0.70714  0.28928  Biso   1.000  C
  C203     1.0000 0.58295  0.69251  0.27381  Biso   1.000  C
  C204     1.0000 0.60532  0.68021  0.28688  Biso   1.000  C
  H191     1.0000 0.61870  0.67080  0.27620  Biso   1.000  H
  C205     1.0000 0.60839  0.68151  0.31624  Biso   1.000  C
  C206     1.0000 0.58822  0.69613  0.33163  Biso   1.000  C
  H192     1.0000 0.58990  0.69720  0.35110  Biso   1.000  H
  C207     1.0000 0.56584  0.70901  0.31871  Biso   1.000  C
  C208     1.0000 0.64626  0.64487  0.31904  Biso   1.000  C
  H193     1.0000 0.63870  0.63660  0.30300  Biso   1.000  H
  C209     1.0000 0.63346  0.66874  0.33029  Biso   1.000  C
  N31      1.0000 0.58494  0.68904  0.24143  Biso   1.000  N
  C210     1.0000 0.57210  0.66650  0.22860  Biso   1.000  C
  O73      1.0000 0.56320  0.64560  0.23950  Biso   1.000  O
  O74      1.0000 0.56875  0.67190  0.20144  Biso   1.000  O
  C211     1.0000 0.57680  0.70170  0.19500  Biso   1.000  C
  H194     1.0000 0.58940  0.70250  0.17900  Biso   1.000  H
  H195     1.0000 0.56020  0.71290  0.19100  Biso   1.000  H
  C212     1.0000 0.59104  0.71168  0.22102  Biso   1.000  C
  H196     1.0000 0.58210  0.72920  0.22740  Biso   1.000  H
  C213     1.0000 0.62115  0.71630  0.21790  Biso   1.000  C
  H197     1.0000 0.62800  0.72210  0.23650  Biso   1.000  H
  C214     1.0000 0.63820  0.69130  0.20980  Biso   1.000  C
  H198     1.0000 0.63310  0.67550  0.22140  Biso   1.000  H
  H199     1.0000 0.65780  0.69540  0.21240  Biso   1.000  H
  H200     1.0000 0.63480  0.68680  0.19040  Biso   1.000  H
  C215     1.0000 0.62790  0.74080  0.19780  Biso   1.000  C
  H201     1.0000 0.64790  0.74360  0.19710  Biso   1.000  H
  H202     1.0000 0.61900  0.75760  0.20450  Biso   1.000  H
  H203     1.0000 0.62100  0.73640  0.17930  Biso   1.000  H
  N32      1.0000 0.54232  0.71880  0.34078  Biso   1.000  N
  C216     1.0000 0.54710  0.74180  0.35640  Biso   1.000  C
  O75      1.0000 0.56790  0.75450  0.35820  Biso   1.000  O
  O76      1.0000 0.52370  0.75170  0.36820  Biso   1.000  O
  C217     1.0000 0.50200  0.73690  0.35730  Biso   1.000  C
  H204     1.0000 0.49140  0.74890  0.34460  Biso   1.000  H
  H205     1.0000 0.48950  0.73130  0.37240  Biso   1.000  H
  C218     1.0000 0.51200  0.71010  0.34090  Biso   1.000  C
  H206     1.0000 0.50500  0.71180  0.32160  Biso   1.000  H
  O77      1.0000 0.49732  0.69561  0.20194  Biso   1.000  O
  N33      1.0000 0.49546  0.66666  0.15848  Biso   1.000  N
  C219     1.0000 0.49546  0.69546  0.17698  Biso   1.000  C
  H207     1.0000 0.49830  0.67150  0.20390  Biso   1.000  H
  C220     1.0000 0.49158  0.67604  0.12877  Biso   1.000  C
  H208     1.0000 0.50580  0.67010  0.11540  Biso   1.000  H
  H209     1.0000 0.48520  0.69530  0.12600  Biso   1.000  H
  C221     1.0000 0.53864  0.22214  0.77505  Biso   1.000  C
  O78      1.0000 0.52950  0.21097  0.75300  Biso   1.000  O
  O79      1.0000 0.53030  0.24444  0.78588  Biso   1.000  O
  C222     1.0000 0.56257  0.20714  0.78928  Biso   1.000  C
  C223     1.0000 0.58295  0.19251  0.77381  Biso   1.000  C
  C224     1.0000 0.60532  0.18021  0.78688  Biso   1.000  C
  H210     1.0000 0.61870  0.17080  0.77620  Biso   1.000  H
  C225     1.0000 0.60839  0.18151  0.81624  Biso   1.000  C
  C226     1.0000 0.58822  0.19613  0.83163  Biso   1.000  C
  H211     1.0000 0.58990  0.19720  0.85110  Biso   1.000  H
  C227     1.0000 0.56584  0.20901  0.81871  Biso   1.000  C
  C228     1.0000 0.64626  0.14487  0.81904  Biso   1.000  C
  H212     1.0000 0.63870  0.13660  0.80300  Biso   1.000  H
  C229     1.0000 0.63346  0.16874  0.83029  Biso   1.000  C
  N34      1.0000 0.58494  0.18904  0.74143  Biso   1.000  N
  C230     1.0000 0.57210  0.16650  0.72860  Biso   1.000  C
  O80      1.0000 0.56320  0.14560  0.73950  Biso   1.000  O
  O81      1.0000 0.56875  0.17190  0.70144  Biso   1.000  O
  C231     1.0000 0.57680  0.20170  0.69500  Biso   1.000  C
  H213     1.0000 0.58940  0.20250  0.67900  Biso   1.000  H
  H214     1.0000 0.56020  0.21290  0.69100  Biso   1.000  H
  C232     1.0000 0.59104  0.21168  0.72102  Biso   1.000  C
  H215     1.0000 0.58210  0.22920  0.72740  Biso   1.000  H
  C233     1.0000 0.62115  0.21630  0.71790  Biso   1.000  C
  H216     1.0000 0.62800  0.22210  0.73650  Biso   1.000  H
  C234     1.0000 0.63820  0.19130  0.70980  Biso   1.000  C
  H217     1.0000 0.63310  0.17550  0.72140  Biso   1.000  H
  H218     1.0000 0.65780  0.19540  0.71240  Biso   1.000  H
  H219     1.0000 0.63480  0.18680  0.69040  Biso   1.000  H
  C235     1.0000 0.62790  0.24080  0.69780  Biso   1.000  C
  H220     1.0000 0.64790  0.24360  0.69710  Biso   1.000  H
  H221     1.0000 0.61900  0.25760  0.70450  Biso   1.000  H
  H222     1.0000 0.62100  0.23640  0.67930  Biso   1.000  H
  N35      1.0000 0.54232  0.21880  0.84078  Biso   1.000  N
  C236     1.0000 0.54710  0.24180  0.85640  Biso   1.000  C
  O82      1.0000 0.56790  0.25450  0.85820  Biso   1.000  O
  O83      1.0000 0.52370  0.25170  0.86820  Biso   1.000  O
  C237     1.0000 0.50200  0.23690  0.85730  Biso   1.000  C
  H223     1.0000 0.49140  0.24890  0.84460  Biso   1.000  H
  H224     1.0000 0.48950  0.23130  0.87240  Biso   1.000  H
  C238     1.0000 0.51200  0.21010  0.84090  Biso   1.000  C
  H225     1.0000 0.50500  0.21180  0.82160  Biso   1.000  H
  O84      1.0000 0.49732  0.19561  0.70194  Biso   1.000  O
  N36      1.0000 0.49546  0.16666  0.65848  Biso   1.000  N
  C239     1.0000 0.49546  0.19546  0.67698  Biso   1.000  C
  H226     1.0000 0.49830  0.17150  0.70390  Biso   1.000  H
  C240     1.0000 0.49158  0.17604  0.62877  Biso   1.000  C
  H227     1.0000 0.50580  0.17010  0.61540  Biso   1.000  H
  H228     1.0000 0.48520  0.19530  0.62600  Biso   1.000  H
  C241     1.0000 0.96136  0.27786  0.77505  Biso   1.000  C
  O85      1.0000 0.97050  0.28903  0.75300  Biso   1.000  O
  O86      1.0000 0.96970  0.25556  0.78588  Biso   1.000  O
  C242     1.0000 0.93743  0.29286  0.78928  Biso   1.000  C
  C243     1.0000 0.91705  0.30749  0.77381  Biso   1.000  C
  C244     1.0000 0.89468  0.31979  0.78688  Biso   1.000  C
  H229     1.0000 0.88130  0.32920  0.77620  Biso   1.000  H
  C245     1.0000 0.89161  0.31849  0.81624  Biso   1.000  C
  C246     1.0000 0.91178  0.30387  0.83163  Biso   1.000  C
  H230     1.0000 0.91010  0.30280  0.85110  Biso   1.000  H
  C247     1.0000 0.93416  0.29099  0.81871  Biso   1.000  C
  C248     1.0000 0.85374  0.35513  0.81904  Biso   1.000  C
  H231     1.0000 0.86130  0.36340  0.80300  Biso   1.000  H
  C249     1.0000 0.86654  0.33126  0.83029  Biso   1.000  C
  N37      1.0000 0.91506  0.31096  0.74143  Biso   1.000  N
  C250     1.0000 0.92790  0.33350  0.72860  Biso   1.000  C
  O87      1.0000 0.93680  0.35440  0.73950  Biso   1.000  O
  O88      1.0000 0.93125  0.32810  0.70144  Biso   1.000  O
  C251     1.0000 0.92320  0.29830  0.69500  Biso   1.000  C
  H232     1.0000 0.91060  0.29750  0.67900  Biso   1.000  H
  H233     1.0000 0.93980  0.28710  0.69100  Biso   1.000  H
  C252     1.0000 0.90896  0.28832  0.72102  Biso   1.000  C
  H234     1.0000 0.91790  0.27080  0.72740  Biso   1.000  H
  C253     1.0000 0.87885  0.28370  0.71790  Biso   1.000  C
  H235     1.0000 0.87200  0.27790  0.73650  Biso   1.000  H
  C254     1.0000 0.86180  0.30870  0.70980  Biso   1.000  C
  H236     1.0000 0.86690  0.32450  0.72140  Biso   1.000  H
  H237     1.0000 0.84220  0.30460  0.71240  Biso   1.000  H
  H238     1.0000 0.86520  0.31320  0.69040  Biso   1.000  H
  C255     1.0000 0.87210  0.25920  0.69780  Biso   1.000  C
  H239     1.0000 0.85210  0.25640  0.69710  Biso   1.000  H
  H240     1.0000 0.88100  0.24240  0.70450  Biso   1.000  H
  H241     1.0000 0.87900  0.26360  0.67930  Biso   1.000  H
  N38      1.0000 0.95768  0.28120  0.84078  Biso   1.000  N
  C256     1.0000 0.95290  0.25820  0.85640  Biso   1.000  C
  O89      1.0000 0.93210  0.24550  0.85820  Biso   1.000  O
  O90      1.0000 0.97630  0.24830  0.86820  Biso   1.000  O
  C257     1.0000 0.99800  0.26310  0.85730  Biso   1.000  C
  H242     1.0000 0.00860  0.25110  0.84460  Biso   1.000  H
  H243     1.0000 0.01050  0.26870  0.87240  Biso   1.000  H
  C258     1.0000 0.98800  0.28990  0.84090  Biso   1.000  C
  H244     1.0000 0.99500  0.28820  0.82160  Biso   1.000  H
  O91      1.0000 0.00268  0.30439  0.70194  Biso   1.000  O
  N39      1.0000 0.00454  0.33334  0.65848  Biso   1.000  N
  C259     1.0000 0.00454  0.30454  0.67698  Biso   1.000  C
  H245     1.0000 0.00170  0.32850  0.70390  Biso   1.000  H
  C260     1.0000 0.00842  0.32396  0.62877  Biso   1.000  C
  H246     1.0000 0.99420  0.32990  0.61540  Biso   1.000  H
  H247     1.0000 0.01480  0.30470  0.62600  Biso   1.000  H
  C261     1.0000 0.96136  0.77786  0.27505  Biso   1.000  C
  O92      1.0000 0.97050  0.78903  0.25300  Biso   1.000  O
  O93      1.0000 0.96970  0.75556  0.28588  Biso   1.000  O
  C262     1.0000 0.93743  0.79286  0.28928  Biso   1.000  C
  C263     1.0000 0.91705  0.80749  0.27381  Biso   1.000  C
  C264     1.0000 0.89468  0.81979  0.28688  Biso   1.000  C
  H248     1.0000 0.88130  0.82920  0.27620  Biso   1.000  H
  C265     1.0000 0.89161  0.81849  0.31624  Biso   1.000  C
  C266     1.0000 0.91178  0.80387  0.33163  Biso   1.000  C
  H249     1.0000 0.91010  0.80280  0.35110  Biso   1.000  H
  C267     1.0000 0.93416  0.79099  0.31871  Biso   1.000  C
  C268     1.0000 0.85374  0.85513  0.31904  Biso   1.000  C
  H250     1.0000 0.86130  0.86340  0.30300  Biso   1.000  H
  C269     1.0000 0.86654  0.83126  0.33029  Biso   1.000  C
  N40      1.0000 0.91506  0.81096  0.24143  Biso   1.000  N
  C270     1.0000 0.92790  0.83350  0.22860  Biso   1.000  C
  O94      1.0000 0.93680  0.85440  0.23950  Biso   1.000  O
  O95      1.0000 0.93125  0.82810  0.20144  Biso   1.000  O
  C271     1.0000 0.92320  0.79830  0.19500  Biso   1.000  C
  H251     1.0000 0.91060  0.79750  0.17900  Biso   1.000  H
  H252     1.0000 0.93980  0.78710  0.19100  Biso   1.000  H
  C272     1.0000 0.90896  0.78832  0.22102  Biso   1.000  C
  H253     1.0000 0.91790  0.77080  0.22740  Biso   1.000  H
  C273     1.0000 0.87885  0.78370  0.21790  Biso   1.000  C
  H254     1.0000 0.87200  0.77790  0.23650  Biso   1.000  H
  C274     1.0000 0.86180  0.80870  0.20980  Biso   1.000  C
  H255     1.0000 0.86690  0.82450  0.22140  Biso   1.000  H
  H256     1.0000 0.84220  0.80460  0.21240  Biso   1.000  H
  H257     1.0000 0.86520  0.81320  0.19040  Biso   1.000  H
  C275     1.0000 0.87210  0.75920  0.19780  Biso   1.000  C
  H258     1.0000 0.85210  0.75640  0.19710  Biso   1.000  H
  H259     1.0000 0.88100  0.74240  0.20450  Biso   1.000  H
  H260     1.0000 0.87900  0.76360  0.17930  Biso   1.000  H
  N41      1.0000 0.95768  0.78120  0.34078  Biso   1.000  N
  C276     1.0000 0.95290  0.75820  0.35640  Biso   1.000  C
  O96      1.0000 0.93210  0.74550  0.35820  Biso   1.000  O
  O97      1.0000 0.97630  0.74830  0.36820  Biso   1.000  O
  C277     1.0000 0.99800  0.76310  0.35730  Biso   1.000  C
  H261     1.0000 0.00860  0.75110  0.34460  Biso   1.000  H
  H262     1.0000 0.01050  0.76870  0.37240  Biso   1.000  H
  C278     1.0000 0.98800  0.78990  0.34090  Biso   1.000  C
  H263     1.0000 0.99500  0.78820  0.32160  Biso   1.000  H
  O98      1.0000 0.00268  0.80439  0.20194  Biso   1.000  O
  N42      1.0000 0.00454  0.83334  0.15848  Biso   1.000  N
  C279     1.0000 0.00454  0.80454  0.17698  Biso   1.000  C
  H264     1.0000 0.00170  0.82850  0.20390  Biso   1.000  H
  C280     1.0000 0.00842  0.82396  0.12877  Biso   1.000  C
  H265     1.0000 0.99420  0.82990  0.11540  Biso   1.000  H
  H266     1.0000 0.01480  0.80470  0.12600  Biso   1.000  H
  C281     1.0000 0.46136  0.27786  0.27505  Biso   1.000  C
  O99      1.0000 0.47050  0.28903  0.25300  Biso   1.000  O
  O100     1.0000 0.46970  0.25556  0.28588  Biso   1.000  O
  C282     1.0000 0.43743  0.29286  0.28928  Biso   1.000  C
  C283     1.0000 0.41705  0.30749  0.27381  Biso   1.000  C
  C284     1.0000 0.39468  0.31979  0.28688  Biso   1.000  C
  H267     1.0000 0.38130  0.32920  0.27620  Biso   1.000  H
  C285     1.0000 0.39161  0.31849  0.31624  Biso   1.000  C
  C286     1.0000 0.41178  0.30387  0.33163  Biso   1.000  C
  H268     1.0000 0.41010  0.30280  0.35110  Biso   1.000  H
  C287     1.0000 0.43416  0.29099  0.31871  Biso   1.000  C
  C288     1.0000 0.35374  0.35513  0.31904  Biso   1.000  C
  H269     1.0000 0.36130  0.36340  0.30300  Biso   1.000  H
  C289     1.0000 0.36654  0.33126  0.33029  Biso   1.000  C
  N43      1.0000 0.41506  0.31096  0.24143  Biso   1.000  N
  C290     1.0000 0.42790  0.33350  0.22860  Biso   1.000  C
  O101     1.0000 0.43680  0.35440  0.23950  Biso   1.000  O
  O102     1.0000 0.43125  0.32810  0.20144  Biso   1.000  O
  C291     1.0000 0.42320  0.29830  0.19500  Biso   1.000  C
  H270     1.0000 0.41060  0.29750  0.17900  Biso   1.000  H
  H271     1.0000 0.43980  0.28710  0.19100  Biso   1.000  H
  C292     1.0000 0.40896  0.28832  0.22102  Biso   1.000  C
  H272     1.0000 0.41790  0.27080  0.22740  Biso   1.000  H
  C293     1.0000 0.37885  0.28370  0.21790  Biso   1.000  C
  H273     1.0000 0.37200  0.27790  0.23650  Biso   1.000  H
  C294     1.0000 0.36180  0.30870  0.20980  Biso   1.000  C
  H274     1.0000 0.36690  0.32450  0.22140  Biso   1.000  H
  H275     1.0000 0.34220  0.30460  0.21240  Biso   1.000  H
  H276     1.0000 0.36520  0.31320  0.19040  Biso   1.000  H
  C295     1.0000 0.37210  0.25920  0.19780  Biso   1.000  C
  H277     1.0000 0.35210  0.25640  0.19710  Biso   1.000  H
  H278     1.0000 0.38100  0.24240  0.20450  Biso   1.000  H
  H279     1.0000 0.37900  0.26360  0.17930  Biso   1.000  H
  N44      1.0000 0.45768  0.28120  0.34078  Biso   1.000  N
  C296     1.0000 0.45290  0.25820  0.35640  Biso   1.000  C
  O103     1.0000 0.43210  0.24550  0.35820  Biso   1.000  O
  O104     1.0000 0.47630  0.24830  0.36820  Biso   1.000  O
  C297     1.0000 0.49800  0.26310  0.35730  Biso   1.000  C
  H280     1.0000 0.50860  0.25110  0.34460  Biso   1.000  H
  H281     1.0000 0.51050  0.26870  0.37240  Biso   1.000  H
  C298     1.0000 0.48800  0.28990  0.34090  Biso   1.000  C
  H282     1.0000 0.49500  0.28820  0.32160  Biso   1.000  H
  O105     1.0000 0.50268  0.30439  0.20194  Biso   1.000  O
  N45      1.0000 0.50454  0.33334  0.15848  Biso   1.000  N
  C299     1.0000 0.50454  0.30454  0.17698  Biso   1.000  C
  H283     1.0000 0.50170  0.32850  0.20390  Biso   1.000  H
  C300     1.0000 0.50842  0.32396  0.12877  Biso   1.000  C
  H284     1.0000 0.49420  0.32990  0.11540  Biso   1.000  H
  H285     1.0000 0.51480  0.30470  0.12600  Biso   1.000  H
  C301     1.0000 0.46136  0.77786  0.77505  Biso   1.000  C
  O106     1.0000 0.47050  0.78903  0.75300  Biso   1.000  O
  O107     1.0000 0.46970  0.75556  0.78588  Biso   1.000  O
  C302     1.0000 0.43743  0.79286  0.78928  Biso   1.000  C
  C303     1.0000 0.41705  0.80749  0.77381  Biso   1.000  C
  C304     1.0000 0.39468  0.81979  0.78688  Biso   1.000  C
  H286     1.0000 0.38130  0.82920  0.77620  Biso   1.000  H
  C305     1.0000 0.39161  0.81849  0.81624  Biso   1.000  C
  C306     1.0000 0.41178  0.80387  0.83163  Biso   1.000  C
  H287     1.0000 0.41010  0.80280  0.85110  Biso   1.000  H
  C307     1.0000 0.43416  0.79099  0.81871  Biso   1.000  C
  C308     1.0000 0.35374  0.85513  0.81904  Biso   1.000  C
  H288     1.0000 0.36130  0.86340  0.80300  Biso   1.000  H
  C309     1.0000 0.36654  0.83126  0.83029  Biso   1.000  C
  N46      1.0000 0.41506  0.81096  0.74143  Biso   1.000  N
  C310     1.0000 0.42790  0.83350  0.72860  Biso   1.000  C
  O108     1.0000 0.43680  0.85440  0.73950  Biso   1.000  O
  O109     1.0000 0.43125  0.82810  0.70144  Biso   1.000  O
  C311     1.0000 0.42320  0.79830  0.69500  Biso   1.000  C
  H289     1.0000 0.41060  0.79750  0.67900  Biso   1.000  H
  H290     1.0000 0.43980  0.78710  0.69100  Biso   1.000  H
  C312     1.0000 0.40896  0.78832  0.72102  Biso   1.000  C
  H291     1.0000 0.41790  0.77080  0.72740  Biso   1.000  H
  C313     1.0000 0.37885  0.78370  0.71790  Biso   1.000  C
  H292     1.0000 0.37200  0.77790  0.73650  Biso   1.000  H
  C314     1.0000 0.36180  0.80870  0.70980  Biso   1.000  C
  H293     1.0000 0.36690  0.82450  0.72140  Biso   1.000  H
  H294     1.0000 0.34220  0.80460  0.71240  Biso   1.000  H
  H295     1.0000 0.36520  0.81320  0.69040  Biso   1.000  H
  C315     1.0000 0.37210  0.75920  0.69780  Biso   1.000  C
  H296     1.0000 0.35210  0.75640  0.69710  Biso   1.000  H
  H297     1.0000 0.38100  0.74240  0.70450  Biso   1.000  H
  H298     1.0000 0.37900  0.76360  0.67930  Biso   1.000  H
  N47      1.0000 0.45768  0.78120  0.84078  Biso   1.000  N
  C316     1.0000 0.45290  0.75820  0.85640  Biso   1.000  C
  O110     1.0000 0.43210  0.74550  0.85820  Biso   1.000  O
  O111     1.0000 0.47630  0.74830  0.86820  Biso   1.000  O
  C317     1.0000 0.49800  0.76310  0.85730  Biso   1.000  C
  H299     1.0000 0.50860  0.75110  0.84460  Biso   1.000  H
  H300     1.0000 0.51050  0.76870  0.87240  Biso   1.000  H
  C318     1.0000 0.48800  0.78990  0.84090  Biso   1.000  C
  H301     1.0000 0.49500  0.78820  0.82160  Biso   1.000  H
  O112     1.0000 0.50268  0.80439  0.70194  Biso   1.000  O
  N48      1.0000 0.50454  0.83334  0.65848  Biso   1.000  N
  C319     1.0000 0.50454  0.80454  0.67698  Biso   1.000  C
  H302     1.0000 0.50170  0.82850  0.70390  Biso   1.000  H
  C320     1.0000 0.50842  0.82396  0.62877  Biso   1.000  C
  H303     1.0000 0.49420  0.82990  0.61540  Biso   1.000  H
  H304     1.0000 0.51480  0.80470  0.62600  Biso   1.000  H
  C321     1.0000 0.22495  0.96136  0.72214  Biso   1.000  C
  O113     1.0000 0.24700  0.97050  0.71097  Biso   1.000  O
  O114     1.0000 0.21412  0.96970  0.74444  Biso   1.000  O
  C322     1.0000 0.21072  0.93743  0.70714  Biso   1.000  C
  C323     1.0000 0.22619  0.91705  0.69251  Biso   1.000  C
  C324     1.0000 0.21312  0.89468  0.68021  Biso   1.000  C
  H305     1.0000 0.22380  0.88130  0.67080  Biso   1.000  H
  C325     1.0000 0.18376  0.89161  0.68151  Biso   1.000  C
  C326     1.0000 0.16837  0.91178  0.69613  Biso   1.000  C
  H306     1.0000 0.14890  0.91010  0.69720  Biso   1.000  H
  C327     1.0000 0.18129  0.93416  0.70901  Biso   1.000  C
  C328     1.0000 0.18096  0.85374  0.64487  Biso   1.000  C
  H307     1.0000 0.19700  0.86130  0.63660  Biso   1.000  H
  C329     1.0000 0.16971  0.86654  0.66874  Biso   1.000  C
  N49      1.0000 0.25857  0.91506  0.68904  Biso   1.000  N
  C330     1.0000 0.27140  0.92790  0.66650  Biso   1.000  C
  O115     1.0000 0.26050  0.93680  0.64560  Biso   1.000  O
  O116     1.0000 0.29856  0.93125  0.67190  Biso   1.000  O
  C331     1.0000 0.30500  0.92320  0.70170  Biso   1.000  C
  H308     1.0000 0.32100  0.91060  0.70250  Biso   1.000  H
  H309     1.0000 0.30900  0.93980  0.71290  Biso   1.000  H
  C332     1.0000 0.27898  0.90896  0.71168  Biso   1.000  C
  H310     1.0000 0.27260  0.91790  0.72920  Biso   1.000  H
  C333     1.0000 0.28210  0.87885  0.71630  Biso   1.000  C
  H311     1.0000 0.26350  0.87200  0.72210  Biso   1.000  H
  C334     1.0000 0.29020  0.86180  0.69130  Biso   1.000  C
  H312     1.0000 0.27860  0.86690  0.67550  Biso   1.000  H
  H313     1.0000 0.28760  0.84220  0.69540  Biso   1.000  H
  H314     1.0000 0.30960  0.86520  0.68680  Biso   1.000  H
  C335     1.0000 0.30220  0.87210  0.74080  Biso   1.000  C
  H315     1.0000 0.30290  0.85210  0.74360  Biso   1.000  H
  H316     1.0000 0.29550  0.88100  0.75760  Biso   1.000  H
  H317     1.0000 0.32070  0.87900  0.73640  Biso   1.000  H
  N50      1.0000 0.15922  0.95768  0.71880  Biso   1.000  N
  C336     1.0000 0.14360  0.95290  0.74180  Biso   1.000  C
  O117     1.0000 0.14180  0.93210  0.75450  Biso   1.000  O
  O118     1.0000 0.13180  0.97630  0.75170  Biso   1.000  O
  C337     1.0000 0.14270  0.99800  0.73690  Biso   1.000  C
  H318     1.0000 0.15540  0.00860  0.74890  Biso   1.000  H
  H319     1.0000 0.12760  0.01050  0.73130  Biso   1.000  H
  C338     1.0000 0.15910  0.98800  0.71010  Biso   1.000  C
  H320     1.0000 0.17840  0.99500  0.71180  Biso   1.000  H
  O119     1.0000 0.29806  0.00268  0.69561  Biso   1.000  O
  N51      1.0000 0.34152  0.00454  0.66666  Biso   1.000  N
  C339     1.0000 0.32302  0.00454  0.69546  Biso   1.000  C
  H321     1.0000 0.29610  0.00170  0.67150  Biso   1.000  H
  C340     1.0000 0.37123  0.00842  0.67604  Biso   1.000  C
  H322     1.0000 0.38460  0.99420  0.67010  Biso   1.000  H
  H323     1.0000 0.37400  0.01480  0.69530  Biso   1.000  H
  C341     1.0000 0.22495  0.46136  0.22214  Biso   1.000  C
  O120     1.0000 0.24700  0.47050  0.21097  Biso   1.000  O
  O121     1.0000 0.21412  0.46970  0.24444  Biso   1.000  O
  C342     1.0000 0.21072  0.43743  0.20714  Biso   1.000  C
  C343     1.0000 0.22619  0.41705  0.19251  Biso   1.000  C
  C344     1.0000 0.21312  0.39468  0.18021  Biso   1.000  C
  H324     1.0000 0.22380  0.38130  0.17080  Biso   1.000  H
  C345     1.0000 0.18376  0.39161  0.18151  Biso   1.000  C
  C346     1.0000 0.16837  0.41178  0.19613  Biso   1.000  C
  H325     1.0000 0.14890  0.41010  0.19720  Biso   1.000  H
  C347     1.0000 0.18129  0.43416  0.20901  Biso   1.000  C
  C348     1.0000 0.18096  0.35374  0.14487  Biso   1.000  C
  H326     1.0000 0.19700  0.36130  0.13660  Biso   1.000  H
  C349     1.0000 0.16971  0.36654  0.16874  Biso   1.000  C
  N52      1.0000 0.25857  0.41506  0.18904  Biso   1.000  N
  C350     1.0000 0.27140  0.42790  0.16650  Biso   1.000  C
  O122     1.0000 0.26050  0.43680  0.14560  Biso   1.000  O
  O123     1.0000 0.29856  0.43125  0.17190  Biso   1.000  O
  C351     1.0000 0.30500  0.42320  0.20170  Biso   1.000  C
  H327     1.0000 0.32100  0.41060  0.20250  Biso   1.000  H
  H328     1.0000 0.30900  0.43980  0.21290  Biso   1.000  H
  C352     1.0000 0.27898  0.40896  0.21168  Biso   1.000  C
  H329     1.0000 0.27260  0.41790  0.22920  Biso   1.000  H
  C353     1.0000 0.28210  0.37885  0.21630  Biso   1.000  C
  H330     1.0000 0.26350  0.37200  0.22210  Biso   1.000  H
  C354     1.0000 0.29020  0.36180  0.19130  Biso   1.000  C
  H331     1.0000 0.27860  0.36690  0.17550  Biso   1.000  H
  H332     1.0000 0.28760  0.34220  0.19540  Biso   1.000  H
  H333     1.0000 0.30960  0.36520  0.18680  Biso   1.000  H
  C355     1.0000 0.30220  0.37210  0.24080  Biso   1.000  C
  H334     1.0000 0.30290  0.35210  0.24360  Biso   1.000  H
  H335     1.0000 0.29550  0.38100  0.25760  Biso   1.000  H
  H336     1.0000 0.32070  0.37900  0.23640  Biso   1.000  H
  N53      1.0000 0.15922  0.45768  0.21880  Biso   1.000  N
  C356     1.0000 0.14360  0.45290  0.24180  Biso   1.000  C
  O124     1.0000 0.14180  0.43210  0.25450  Biso   1.000  O
  O125     1.0000 0.13180  0.47630  0.25170  Biso   1.000  O
  C357     1.0000 0.14270  0.49800  0.23690  Biso   1.000  C
  H337     1.0000 0.15540  0.50860  0.24890  Biso   1.000  H
  H338     1.0000 0.12760  0.51050  0.23130  Biso   1.000  H
  C358     1.0000 0.15910  0.48800  0.21010  Biso   1.000  C
  H339     1.0000 0.17840  0.49500  0.21180  Biso   1.000  H
  O126     1.0000 0.29806  0.50268  0.19561  Biso   1.000  O
  N54      1.0000 0.34152  0.50454  0.16666  Biso   1.000  N
  C359     1.0000 0.32302  0.50454  0.19546  Biso   1.000  C
  H340     1.0000 0.29610  0.50170  0.17150  Biso   1.000  H
  C360     1.0000 0.37123  0.50842  0.17604  Biso   1.000  C
  H341     1.0000 0.38460  0.49420  0.17010  Biso   1.000  H
  H342     1.0000 0.37400  0.51480  0.19530  Biso   1.000  H
  C361     1.0000 0.72495  0.96136  0.22214  Biso   1.000  C
  O127     1.0000 0.74700  0.97050  0.21097  Biso   1.000  O
  O128     1.0000 0.71412  0.96970  0.24444  Biso   1.000  O
  C362     1.0000 0.71072  0.93743  0.20714  Biso   1.000  C
  C363     1.0000 0.72619  0.91705  0.19251  Biso   1.000  C
  C364     1.0000 0.71312  0.89468  0.18021  Biso   1.000  C
  H343     1.0000 0.72380  0.88130  0.17080  Biso   1.000  H
  C365     1.0000 0.68376  0.89161  0.18151  Biso   1.000  C
  C366     1.0000 0.66837  0.91178  0.19613  Biso   1.000  C
  H344     1.0000 0.64890  0.91010  0.19720  Biso   1.000  H
  C367     1.0000 0.68129  0.93416  0.20901  Biso   1.000  C
  C368     1.0000 0.68096  0.85374  0.14487  Biso   1.000  C
  H345     1.0000 0.69700  0.86130  0.13660  Biso   1.000  H
  C369     1.0000 0.66971  0.86654  0.16874  Biso   1.000  C
  N55      1.0000 0.75857  0.91506  0.18904  Biso   1.000  N
  C370     1.0000 0.77140  0.92790  0.16650  Biso   1.000  C
  O129     1.0000 0.76050  0.93680  0.14560  Biso   1.000  O
  O130     1.0000 0.79856  0.93125  0.17190  Biso   1.000  O
  C371     1.0000 0.80500  0.92320  0.20170  Biso   1.000  C
  H346     1.0000 0.82100  0.91060  0.20250  Biso   1.000  H
  H347     1.0000 0.80900  0.93980  0.21290  Biso   1.000  H
  C372     1.0000 0.77898  0.90896  0.21168  Biso   1.000  C
  H348     1.0000 0.77260  0.91790  0.22920  Biso   1.000  H
  C373     1.0000 0.78210  0.87885  0.21630  Biso   1.000  C
  H349     1.0000 0.76350  0.87200  0.22210  Biso   1.000  H
  C374     1.0000 0.79020  0.86180  0.19130  Biso   1.000  C
  H350     1.0000 0.77860  0.86690  0.17550  Biso   1.000  H
  H351     1.0000 0.78760  0.84220  0.19540  Biso   1.000  H
  H352     1.0000 0.80960  0.86520  0.18680  Biso   1.000  H
  C375     1.0000 0.80220  0.87210  0.24080  Biso   1.000  C
  H353     1.0000 0.80290  0.85210  0.24360  Biso   1.000  H
  H354     1.0000 0.79550  0.88100  0.25760  Biso   1.000  H
  H355     1.0000 0.82070  0.87900  0.23640  Biso   1.000  H
  N56      1.0000 0.65922  0.95768  0.21880  Biso   1.000  N
  C376     1.0000 0.64360  0.95290  0.24180  Biso   1.000  C
  O131     1.0000 0.64180  0.93210  0.25450  Biso   1.000  O
  O132     1.0000 0.63180  0.97630  0.25170  Biso   1.000  O
  C377     1.0000 0.64270  0.99800  0.23690  Biso   1.000  C
  H356     1.0000 0.65540  0.00860  0.24890  Biso   1.000  H
  H357     1.0000 0.62760  0.01050  0.23130  Biso   1.000  H
  C378     1.0000 0.65910  0.98800  0.21010  Biso   1.000  C
  H358     1.0000 0.67840  0.99500  0.21180  Biso   1.000  H
  O133     1.0000 0.79806  0.00268  0.19561  Biso   1.000  O
  N57      1.0000 0.84152  0.00454  0.16666  Biso   1.000  N
  C379     1.0000 0.82302  0.00454  0.19546  Biso   1.000  C
  H359     1.0000 0.79610  0.00170  0.17150  Biso   1.000  H
  C380     1.0000 0.87123  0.00842  0.17604  Biso   1.000  C
  H360     1.0000 0.88460  0.99420  0.17010  Biso   1.000  H
  H361     1.0000 0.87400  0.01480  0.19530  Biso   1.000  H
  C381     1.0000 0.72495  0.46136  0.72214  Biso   1.000  C
  O134     1.0000 0.74700  0.47050  0.71097  Biso   1.000  O
  O135     1.0000 0.71412  0.46970  0.74444  Biso   1.000  O
  C382     1.0000 0.71072  0.43743  0.70714  Biso   1.000  C
  C383     1.0000 0.72619  0.41705  0.69251  Biso   1.000  C
  C384     1.0000 0.71312  0.39468  0.68021  Biso   1.000  C
  H362     1.0000 0.72380  0.38130  0.67080  Biso   1.000  H
  C385     1.0000 0.68376  0.39161  0.68151  Biso   1.000  C
  C386     1.0000 0.66837  0.41178  0.69613  Biso   1.000  C
  H363     1.0000 0.64890  0.41010  0.69720  Biso   1.000  H
  C387     1.0000 0.68129  0.43416  0.70901  Biso   1.000  C
  C388     1.0000 0.68096  0.35374  0.64487  Biso   1.000  C
  H364     1.0000 0.69700  0.36130  0.63660  Biso   1.000  H
  C389     1.0000 0.66971  0.36654  0.66874  Biso   1.000  C
  N58      1.0000 0.75857  0.41506  0.68904  Biso   1.000  N
  C390     1.0000 0.77140  0.42790  0.66650  Biso   1.000  C
  O136     1.0000 0.76050  0.43680  0.64560  Biso   1.000  O
  O137     1.0000 0.79856  0.43125  0.67190  Biso   1.000  O
  C391     1.0000 0.80500  0.42320  0.70170  Biso   1.000  C
  H365     1.0000 0.82100  0.41060  0.70250  Biso   1.000  H
  H366     1.0000 0.80900  0.43980  0.71290  Biso   1.000  H
  C392     1.0000 0.77898  0.40896  0.71168  Biso   1.000  C
  H367     1.0000 0.77260  0.41790  0.72920  Biso   1.000  H
  C393     1.0000 0.78210  0.37885  0.71630  Biso   1.000  C
  H368     1.0000 0.76350  0.37200  0.72210  Biso   1.000  H
  C394     1.0000 0.79020  0.36180  0.69130  Biso   1.000  C
  H369     1.0000 0.77860  0.36690  0.67550  Biso   1.000  H
  H370     1.0000 0.78760  0.34220  0.69540  Biso   1.000  H
  H371     1.0000 0.80960  0.36520  0.68680  Biso   1.000  H
  C395     1.0000 0.80220  0.37210  0.74080  Biso   1.000  C
  H372     1.0000 0.80290  0.35210  0.74360  Biso   1.000  H
  H373     1.0000 0.79550  0.38100  0.75760  Biso   1.000  H
  H374     1.0000 0.82070  0.37900  0.73640  Biso   1.000  H
  N59      1.0000 0.65922  0.45768  0.71880  Biso   1.000  N
  C396     1.0000 0.64360  0.45290  0.74180  Biso   1.000  C
  O138     1.0000 0.64180  0.43210  0.75450  Biso   1.000  O
  O139     1.0000 0.63180  0.47630  0.75170  Biso   1.000  O
  C397     1.0000 0.64270  0.49800  0.73690  Biso   1.000  C
  H375     1.0000 0.65540  0.50860  0.74890  Biso   1.000  H
  H376     1.0000 0.62760  0.51050  0.73130  Biso   1.000  H
  C398     1.0000 0.65910  0.48800  0.71010  Biso   1.000  C
  H377     1.0000 0.67840  0.49500  0.71180  Biso   1.000  H
  O140     1.0000 0.79806  0.50268  0.69561  Biso   1.000  O
  N60      1.0000 0.84152  0.50454  0.66666  Biso   1.000  N
  C399     1.0000 0.82302  0.50454  0.69546  Biso   1.000  C
  H378     1.0000 0.79610  0.50170  0.67150  Biso   1.000  H
  C400     1.0000 0.87123  0.50842  0.67604  Biso   1.000  C
  H379     1.0000 0.88460  0.49420  0.67010  Biso   1.000  H
  H380     1.0000 0.87400  0.51480  0.69530  Biso   1.000  H
  C401     1.0000 0.22495  0.03864  0.27786  Biso   1.000  C
  O141     1.0000 0.24700  0.02950  0.28903  Biso   1.000  O
  O142     1.0000 0.21412  0.03030  0.25556  Biso   1.000  O
  C402     1.0000 0.21072  0.06257  0.29286  Biso   1.000  C
  C403     1.0000 0.22619  0.08295  0.30749  Biso   1.000  C
  C404     1.0000 0.21312  0.10532  0.31979  Biso   1.000  C
  H381     1.0000 0.22380  0.11870  0.32920  Biso   1.000  H
  C405     1.0000 0.18376  0.10839  0.31849  Biso   1.000  C
  C406     1.0000 0.16837  0.08822  0.30387  Biso   1.000  C
  H382     1.0000 0.14890  0.08990  0.30280  Biso   1.000  H
  C407     1.0000 0.18129  0.06584  0.29099  Biso   1.000  C
  C408     1.0000 0.18096  0.14626  0.35513  Biso   1.000  C
  H383     1.0000 0.19700  0.13870  0.36340  Biso   1.000  H
  C409     1.0000 0.16971  0.13346  0.33126  Biso   1.000  C
  N61      1.0000 0.25857  0.08494  0.31096  Biso   1.000  N
  C410     1.0000 0.27140  0.07210  0.33350  Biso   1.000  C
  O143     1.0000 0.26050  0.06320  0.35440  Biso   1.000  O
  O144     1.0000 0.29856  0.06875  0.32810  Biso   1.000  O
  C411     1.0000 0.30500  0.07680  0.29830  Biso   1.000  C
  H384     1.0000 0.32100  0.08940  0.29750  Biso   1.000  H
  H385     1.0000 0.30900  0.06020  0.28710  Biso   1.000  H
  C412     1.0000 0.27898  0.09104  0.28832  Biso   1.000  C
  H386     1.0000 0.27260  0.08210  0.27080  Biso   1.000  H
  C413     1.0000 0.28210  0.12115  0.28370  Biso   1.000  C
  H387     1.0000 0.26350  0.12800  0.27790  Biso   1.000  H
  C414     1.0000 0.29020  0.13820  0.30870  Biso   1.000  C
  H388     1.0000 0.27860  0.13310  0.32450  Biso   1.000  H
  H389     1.0000 0.28760  0.15780  0.30460  Biso   1.000  H
  H390     1.0000 0.30960  0.13480  0.31320  Biso   1.000  H
  C415     1.0000 0.30220  0.12790  0.25920  Biso   1.000  C
  H391     1.0000 0.30290  0.14790  0.25640  Biso   1.000  H
  H392     1.0000 0.29550  0.11900  0.24240  Biso   1.000  H
  H393     1.0000 0.32070  0.12100  0.26360  Biso   1.000  H
  N62      1.0000 0.15922  0.04232  0.28120  Biso   1.000  N
  C416     1.0000 0.14360  0.04710  0.25820  Biso   1.000  C
  O145     1.0000 0.14180  0.06790  0.24550  Biso   1.000  O
  O146     1.0000 0.13180  0.02370  0.24830  Biso   1.000  O
  C417     1.0000 0.14270  0.00200  0.26310  Biso   1.000  C
  H394     1.0000 0.15540  0.99140  0.25110  Biso   1.000  H
  H395     1.0000 0.12760  0.98950  0.26870  Biso   1.000  H
  C418     1.0000 0.15910  0.01200  0.28990  Biso   1.000  C
  H396     1.0000 0.17840  0.00500  0.28820  Biso   1.000  H
  O147     1.0000 0.29806  0.99732  0.30439  Biso   1.000  O
  N63      1.0000 0.34152  0.99546  0.33334  Biso   1.000  N
  C419     1.0000 0.32302  0.99546  0.30454  Biso   1.000  C
  H397     1.0000 0.29610  0.99830  0.32850  Biso   1.000  H
  C420     1.0000 0.37123  0.99158  0.32396  Biso   1.000  C
  H398     1.0000 0.38460  0.00580  0.32990  Biso   1.000  H
  H399     1.0000 0.37400  0.98520  0.30470  Biso   1.000  H
  C421     1.0000 0.22495  0.53864  0.77786  Biso   1.000  C
  O148     1.0000 0.24700  0.52950  0.78903  Biso   1.000  O
  O149     1.0000 0.21412  0.53030  0.75556  Biso   1.000  O
  C422     1.0000 0.21072  0.56257  0.79286  Biso   1.000  C
  C423     1.0000 0.22619  0.58295  0.80749  Biso   1.000  C
  C424     1.0000 0.21312  0.60532  0.81979  Biso   1.000  C
  H400     1.0000 0.22380  0.61870  0.82920  Biso   1.000  H
  C425     1.0000 0.18376  0.60839  0.81849  Biso   1.000  C
  C426     1.0000 0.16837  0.58822  0.80387  Biso   1.000  C
  H401     1.0000 0.14890  0.58990  0.80280  Biso   1.000  H
  C427     1.0000 0.18129  0.56584  0.79099  Biso   1.000  C
  C428     1.0000 0.18096  0.64626  0.85513  Biso   1.000  C
  H402     1.0000 0.19700  0.63870  0.86340  Biso   1.000  H
  C429     1.0000 0.16971  0.63346  0.83126  Biso   1.000  C
  N64      1.0000 0.25857  0.58494  0.81096  Biso   1.000  N
  C430     1.0000 0.27140  0.57210  0.83350  Biso   1.000  C
  O150     1.0000 0.26050  0.56320  0.85440  Biso   1.000  O
  O151     1.0000 0.29856  0.56875  0.82810  Biso   1.000  O
  C431     1.0000 0.30500  0.57680  0.79830  Biso   1.000  C
  H403     1.0000 0.32100  0.58940  0.79750  Biso   1.000  H
  H404     1.0000 0.30900  0.56020  0.78710  Biso   1.000  H
  C432     1.0000 0.27898  0.59104  0.78832  Biso   1.000  C
  H405     1.0000 0.27260  0.58210  0.77080  Biso   1.000  H
  C433     1.0000 0.28210  0.62115  0.78370  Biso   1.000  C
  H406     1.0000 0.26350  0.62800  0.77790  Biso   1.000  H
  C434     1.0000 0.29020  0.63820  0.80870  Biso   1.000  C
  H407     1.0000 0.27860  0.63310  0.82450  Biso   1.000  H
  H408     1.0000 0.28760  0.65780  0.80460  Biso   1.000  H
  H409     1.0000 0.30960  0.63480  0.81320  Biso   1.000  H
  C435     1.0000 0.30220  0.62790  0.75920  Biso   1.000  C
  H410     1.0000 0.30290  0.64790  0.75640  Biso   1.000  H
  H411     1.0000 0.29550  0.61900  0.74240  Biso   1.000  H
  H412     1.0000 0.32070  0.62100  0.76360  Biso   1.000  H
  N65      1.0000 0.15922  0.54232  0.78120  Biso   1.000  N
  C436     1.0000 0.14360  0.54710  0.75820  Biso   1.000  C
  O152     1.0000 0.14180  0.56790  0.74550  Biso   1.000  O
  O153     1.0000 0.13180  0.52370  0.74830  Biso   1.000  O
  C437     1.0000 0.14270  0.50200  0.76310  Biso   1.000  C
  H413     1.0000 0.15540  0.49140  0.75110  Biso   1.000  H
  H414     1.0000 0.12760  0.48950  0.76870  Biso   1.000  H
  C438     1.0000 0.15910  0.51200  0.78990  Biso   1.000  C
  H415     1.0000 0.17840  0.50500  0.78820  Biso   1.000  H
  O154     1.0000 0.29806  0.49732  0.80439  Biso   1.000  O
  N66      1.0000 0.34152  0.49546  0.83334  Biso   1.000  N
  C439     1.0000 0.32302  0.49546  0.80454  Biso   1.000  C
  H416     1.0000 0.29610  0.49830  0.82850  Biso   1.000  H
  C440     1.0000 0.37123  0.49158  0.82396  Biso   1.000  C
  H417     1.0000 0.38460  0.50580  0.82990  Biso   1.000  H
  H418     1.0000 0.37400  0.48520  0.80470  Biso   1.000  H
  C441     1.0000 0.72495  0.03864  0.77786  Biso   1.000  C
  O155     1.0000 0.74700  0.02950  0.78903  Biso   1.000  O
  O156     1.0000 0.71412  0.03030  0.75556  Biso   1.000  O
  C442     1.0000 0.71072  0.06257  0.79286  Biso   1.000  C
  C443     1.0000 0.72619  0.08295  0.80749  Biso   1.000  C
  C444     1.0000 0.71312  0.10532  0.81979  Biso   1.000  C
  H419     1.0000 0.72380  0.11870  0.82920  Biso   1.000  H
  C445     1.0000 0.68376  0.10839  0.81849  Biso   1.000  C
  C446     1.0000 0.66837  0.08822  0.80387  Biso   1.000  C
  H420     1.0000 0.64890  0.08990  0.80280  Biso   1.000  H
  C447     1.0000 0.68129  0.06584  0.79099  Biso   1.000  C
  C448     1.0000 0.68096  0.14626  0.85513  Biso   1.000  C
  H421     1.0000 0.69700  0.13870  0.86340  Biso   1.000  H
  C449     1.0000 0.66971  0.13346  0.83126  Biso   1.000  C
  N67      1.0000 0.75857  0.08494  0.81096  Biso   1.000  N
  C450     1.0000 0.77140  0.07210  0.83350  Biso   1.000  C
  O157     1.0000 0.76050  0.06320  0.85440  Biso   1.000  O
  O158     1.0000 0.79856  0.06875  0.82810  Biso   1.000  O
  C451     1.0000 0.80500  0.07680  0.79830  Biso   1.000  C
  H422     1.0000 0.82100  0.08940  0.79750  Biso   1.000  H
  H423     1.0000 0.80900  0.06020  0.78710  Biso   1.000  H
  C452     1.0000 0.77898  0.09104  0.78832  Biso   1.000  C
  H424     1.0000 0.77260  0.08210  0.77080  Biso   1.000  H
  C453     1.0000 0.78210  0.12115  0.78370  Biso   1.000  C
  H425     1.0000 0.76350  0.12800  0.77790  Biso   1.000  H
  C454     1.0000 0.79020  0.13820  0.80870  Biso   1.000  C
  H426     1.0000 0.77860  0.13310  0.82450  Biso   1.000  H
  H427     1.0000 0.78760  0.15780  0.80460  Biso   1.000  H
  H428     1.0000 0.80960  0.13480  0.81320  Biso   1.000  H
  C455     1.0000 0.80220  0.12790  0.75920  Biso   1.000  C
  H429     1.0000 0.80290  0.14790  0.75640  Biso   1.000  H
  H430     1.0000 0.79550  0.11900  0.74240  Biso   1.000  H
  H431     1.0000 0.82070  0.12100  0.76360  Biso   1.000  H
  N68      1.0000 0.65922  0.04232  0.78120  Biso   1.000  N
  C456     1.0000 0.64360  0.04710  0.75820  Biso   1.000  C
  O159     1.0000 0.64180  0.06790  0.74550  Biso   1.000  O
  O160     1.0000 0.63180  0.02370  0.74830  Biso   1.000  O
  C457     1.0000 0.64270  0.00200  0.76310  Biso   1.000  C
  H432     1.0000 0.65540  0.99140  0.75110  Biso   1.000  H
  H433     1.0000 0.62760  0.98950  0.76870  Biso   1.000  H
  C458     1.0000 0.65910  0.01200  0.78990  Biso   1.000  C
  H434     1.0000 0.67840  0.00500  0.78820  Biso   1.000  H
  O161     1.0000 0.79806  0.99732  0.80439  Biso   1.000  O
  N69      1.0000 0.84152  0.99546  0.83334  Biso   1.000  N
  C459     1.0000 0.82302  0.99546  0.80454  Biso   1.000  C
  H435     1.0000 0.79610  0.99830  0.82850  Biso   1.000  H
  C460     1.0000 0.87123  0.99158  0.82396  Biso   1.000  C
  H436     1.0000 0.88460  0.00580  0.82990  Biso   1.000  H
  H437     1.0000 0.87400  0.98520  0.80470  Biso   1.000  H
  C461     1.0000 0.72495  0.53864  0.27786  Biso   1.000  C
  O162     1.0000 0.74700  0.52950  0.28903  Biso   1.000  O
  O163     1.0000 0.71412  0.53030  0.25556  Biso   1.000  O
  C462     1.0000 0.71072  0.56257  0.29286  Biso   1.000  C
  C463     1.0000 0.72619  0.58295  0.30749  Biso   1.000  C
  C464     1.0000 0.71312  0.60532  0.31979  Biso   1.000  C
  H438     1.0000 0.72380  0.61870  0.32920  Biso   1.000  H
  C465     1.0000 0.68376  0.60839  0.31849  Biso   1.000  C
  C466     1.0000 0.66837  0.58822  0.30387  Biso   1.000  C
  H439     1.0000 0.64890  0.58990  0.30280  Biso   1.000  H
  C467     1.0000 0.68129  0.56584  0.29099  Biso   1.000  C
  C468     1.0000 0.68096  0.64626  0.35513  Biso   1.000  C
  H440     1.0000 0.69700  0.63870  0.36340  Biso   1.000  H
  C469     1.0000 0.66971  0.63346  0.33126  Biso   1.000  C
  N70      1.0000 0.75857  0.58494  0.31096  Biso   1.000  N
  C470     1.0000 0.77140  0.57210  0.33350  Biso   1.000  C
  O164     1.0000 0.76050  0.56320  0.35440  Biso   1.000  O
  O165     1.0000 0.79856  0.56875  0.32810  Biso   1.000  O
  C471     1.0000 0.80500  0.57680  0.29830  Biso   1.000  C
  H441     1.0000 0.82100  0.58940  0.29750  Biso   1.000  H
  H442     1.0000 0.80900  0.56020  0.28710  Biso   1.000  H
  C472     1.0000 0.77898  0.59104  0.28832  Biso   1.000  C
  H443     1.0000 0.77260  0.58210  0.27080  Biso   1.000  H
  C473     1.0000 0.78210  0.62115  0.28370  Biso   1.000  C
  H444     1.0000 0.76350  0.62800  0.27790  Biso   1.000  H
  C474     1.0000 0.79020  0.63820  0.30870  Biso   1.000  C
  H445     1.0000 0.77860  0.63310  0.32450  Biso   1.000  H
  H446     1.0000 0.78760  0.65780  0.30460  Biso   1.000  H
  H447     1.0000 0.80960  0.63480  0.31320  Biso   1.000  H
  C475     1.0000 0.80220  0.62790  0.25920  Biso   1.000  C
  H448     1.0000 0.80290  0.64790  0.25640  Biso   1.000  H
  H449     1.0000 0.79550  0.61900  0.24240  Biso   1.000  H
  H450     1.0000 0.82070  0.62100  0.26360  Biso   1.000  H
  N71      1.0000 0.65922  0.54232  0.28120  Biso   1.000  N
  C476     1.0000 0.64360  0.54710  0.25820  Biso   1.000  C
  O166     1.0000 0.64180  0.56790  0.24550  Biso   1.000  O
  O167     1.0000 0.63180  0.52370  0.24830  Biso   1.000  O
  C477     1.0000 0.64270  0.50200  0.26310  Biso   1.000  C
  H451     1.0000 0.65540  0.49140  0.25110  Biso   1.000  H
  H452     1.0000 0.62760  0.48950  0.26870  Biso   1.000  H
  C478     1.0000 0.65910  0.51200  0.28990  Biso   1.000  C
  H453     1.0000 0.67840  0.50500  0.28820  Biso   1.000  H
  O168     1.0000 0.79806  0.49732  0.30439  Biso   1.000  O
  N72      1.0000 0.84152  0.49546  0.33334  Biso   1.000  N
  C479     1.0000 0.82302  0.49546  0.30454  Biso   1.000  C
  H454     1.0000 0.79610  0.49830  0.32850  Biso   1.000  H
  C480     1.0000 0.87123  0.49158  0.32396  Biso   1.000  C
  H455     1.0000 0.88460  0.50580  0.32990  Biso   1.000  H
  H456     1.0000 0.87400  0.48520  0.30470  Biso   1.000  H
  C481     1.0000 0.77505  0.03864  0.72214  Biso   1.000  C
  O169     1.0000 0.75300  0.02950  0.71097  Biso   1.000  O
  O170     1.0000 0.78588  0.03030  0.74444  Biso   1.000  O
  C482     1.0000 0.78928  0.06257  0.70714  Biso   1.000  C
  C483     1.0000 0.77381  0.08295  0.69251  Biso   1.000  C
  C484     1.0000 0.78688  0.10532  0.68021  Biso   1.000  C
  H457     1.0000 0.77620  0.11870  0.67080  Biso   1.000  H
  C485     1.0000 0.81624  0.10839  0.68151  Biso   1.000  C
  C486     1.0000 0.83163  0.08822  0.69613  Biso   1.000  C
  H458     1.0000 0.85110  0.08990  0.69720  Biso   1.000  H
  C487     1.0000 0.81871  0.06584  0.70901  Biso   1.000  C
  C488     1.0000 0.81904  0.14626  0.64487  Biso   1.000  C
  H459     1.0000 0.80300  0.13870  0.63660  Biso   1.000  H
  C489     1.0000 0.83029  0.13346  0.66874  Biso   1.000  C
  N73      1.0000 0.74143  0.08494  0.68904  Biso   1.000  N
  C490     1.0000 0.72860  0.07210  0.66650  Biso   1.000  C
  O171     1.0000 0.73950  0.06320  0.64560  Biso   1.000  O
  O172     1.0000 0.70144  0.06875  0.67190  Biso   1.000  O
  C491     1.0000 0.69500  0.07680  0.70170  Biso   1.000  C
  H460     1.0000 0.67900  0.08940  0.70250  Biso   1.000  H
  H461     1.0000 0.69100  0.06020  0.71290  Biso   1.000  H
  C492     1.0000 0.72102  0.09104  0.71168  Biso   1.000  C
  H462     1.0000 0.72740  0.08210  0.72920  Biso   1.000  H
  C493     1.0000 0.71790  0.12115  0.71630  Biso   1.000  C
  H463     1.0000 0.73650  0.12800  0.72210  Biso   1.000  H
  C494     1.0000 0.70980  0.13820  0.69130  Biso   1.000  C
  H464     1.0000 0.72140  0.13310  0.67550  Biso   1.000  H
  H465     1.0000 0.71240  0.15780  0.69540  Biso   1.000  H
  H466     1.0000 0.69040  0.13480  0.68680  Biso   1.000  H
  C495     1.0000 0.69780  0.12790  0.74080  Biso   1.000  C
  H467     1.0000 0.69710  0.14790  0.74360  Biso   1.000  H
  H468     1.0000 0.70450  0.11900  0.75760  Biso   1.000  H
  H469     1.0000 0.67930  0.12100  0.73640  Biso   1.000  H
  N74      1.0000 0.84078  0.04232  0.71880  Biso   1.000  N
  C496     1.0000 0.85640  0.04710  0.74180  Biso   1.000  C
  O173     1.0000 0.85820  0.06790  0.75450  Biso   1.000  O
  O174     1.0000 0.86820  0.02370  0.75170  Biso   1.000  O
  C497     1.0000 0.85730  0.00200  0.73690  Biso   1.000  C
  H470     1.0000 0.84460  0.99140  0.74890  Biso   1.000  H
  H471     1.0000 0.87240  0.98950  0.73130  Biso   1.000  H
  C498     1.0000 0.84090  0.01200  0.71010  Biso   1.000  C
  H472     1.0000 0.82160  0.00500  0.71180  Biso   1.000  H
  O175     1.0000 0.70194  0.99732  0.69561  Biso   1.000  O
  N75      1.0000 0.65848  0.99546  0.66666  Biso   1.000  N
  C499     1.0000 0.67698  0.99546  0.69546  Biso   1.000  C
  H473     1.0000 0.70390  0.99830  0.67150  Biso   1.000  H
  C500     1.0000 0.62877  0.99158  0.67604  Biso   1.000  C
  H474     1.0000 0.61540  0.00580  0.67010  Biso   1.000  H
  H475     1.0000 0.62600  0.98520  0.69530  Biso   1.000  H
  C501     1.0000 0.77505  0.53864  0.22214  Biso   1.000  C
  O176     1.0000 0.75300  0.52950  0.21097  Biso   1.000  O
  O177     1.0000 0.78588  0.53030  0.24444  Biso   1.000  O
  C502     1.0000 0.78928  0.56257  0.20714  Biso   1.000  C
  C503     1.0000 0.77381  0.58295  0.19251  Biso   1.000  C
  C504     1.0000 0.78688  0.60532  0.18021  Biso   1.000  C
  H476     1.0000 0.77620  0.61870  0.17080  Biso   1.000  H
  C505     1.0000 0.81624  0.60839  0.18151  Biso   1.000  C
  C506     1.0000 0.83163  0.58822  0.19613  Biso   1.000  C
  H477     1.0000 0.85110  0.58990  0.19720  Biso   1.000  H
  C507     1.0000 0.81871  0.56584  0.20901  Biso   1.000  C
  C508     1.0000 0.81904  0.64626  0.14487  Biso   1.000  C
  H478     1.0000 0.80300  0.63870  0.13660  Biso   1.000  H
  C509     1.0000 0.83029  0.63346  0.16874  Biso   1.000  C
  N76      1.0000 0.74143  0.58494  0.18904  Biso   1.000  N
  C510     1.0000 0.72860  0.57210  0.16650  Biso   1.000  C
  O178     1.0000 0.73950  0.56320  0.14560  Biso   1.000  O
  O179     1.0000 0.70144  0.56875  0.17190  Biso   1.000  O
  C511     1.0000 0.69500  0.57680  0.20170  Biso   1.000  C
  H479     1.0000 0.67900  0.58940  0.20250  Biso   1.000  H
  H480     1.0000 0.69100  0.56020  0.21290  Biso   1.000  H
  C512     1.0000 0.72102  0.59104  0.21168  Biso   1.000  C
  H481     1.0000 0.72740  0.58210  0.22920  Biso   1.000  H
  C513     1.0000 0.71790  0.62115  0.21630  Biso   1.000  C
  H482     1.0000 0.73650  0.62800  0.22210  Biso   1.000  H
  C514     1.0000 0.70980  0.63820  0.19130  Biso   1.000  C
  H483     1.0000 0.72140  0.63310  0.17550  Biso   1.000  H
  H484     1.0000 0.71240  0.65780  0.19540  Biso   1.000  H
  H485     1.0000 0.69040  0.63480  0.18680  Biso   1.000  H
  C515     1.0000 0.69780  0.62790  0.24080  Biso   1.000  C
  H486     1.0000 0.69710  0.64790  0.24360  Biso   1.000  H
  H487     1.0000 0.70450  0.61900  0.25760  Biso   1.000  H
  H488     1.0000 0.67930  0.62100  0.23640  Biso   1.000  H
  N77      1.0000 0.84078  0.54232  0.21880  Biso   1.000  N
  C516     1.0000 0.85640  0.54710  0.24180  Biso   1.000  C
  O180     1.0000 0.85820  0.56790  0.25450  Biso   1.000  O
  O181     1.0000 0.86820  0.52370  0.25170  Biso   1.000  O
  C517     1.0000 0.85730  0.50200  0.23690  Biso   1.000  C
  H489     1.0000 0.84460  0.49140  0.24890  Biso   1.000  H
  H490     1.0000 0.87240  0.48950  0.23130  Biso   1.000  H
  C518     1.0000 0.84090  0.51200  0.21010  Biso   1.000  C
  H491     1.0000 0.82160  0.50500  0.21180  Biso   1.000  H
  O182     1.0000 0.70194  0.49732  0.19561  Biso   1.000  O
  N78      1.0000 0.65848  0.49546  0.16666  Biso   1.000  N
  C519     1.0000 0.67698  0.49546  0.19546  Biso   1.000  C
  H492     1.0000 0.70390  0.49830  0.17150  Biso   1.000  H
  C520     1.0000 0.62877  0.49158  0.17604  Biso   1.000  C
  H493     1.0000 0.61540  0.50580  0.17010  Biso   1.000  H
  H494     1.0000 0.62600  0.48520  0.19530  Biso   1.000  H
  C521     1.0000 0.27505  0.03864  0.22214  Biso   1.000  C
  O183     1.0000 0.25300  0.02950  0.21097  Biso   1.000  O
  O184     1.0000 0.28588  0.03030  0.24444  Biso   1.000  O
  C522     1.0000 0.28928  0.06257  0.20714  Biso   1.000  C
  C523     1.0000 0.27381  0.08295  0.19251  Biso   1.000  C
  C524     1.0000 0.28688  0.10532  0.18021  Biso   1.000  C
  H495     1.0000 0.27620  0.11870  0.17080  Biso   1.000  H
  C525     1.0000 0.31624  0.10839  0.18151  Biso   1.000  C
  C526     1.0000 0.33163  0.08822  0.19613  Biso   1.000  C
  H496     1.0000 0.35110  0.08990  0.19720  Biso   1.000  H
  C527     1.0000 0.31871  0.06584  0.20901  Biso   1.000  C
  C528     1.0000 0.31904  0.14626  0.14487  Biso   1.000  C
  H497     1.0000 0.30300  0.13870  0.13660  Biso   1.000  H
  C529     1.0000 0.33029  0.13346  0.16874  Biso   1.000  C
  N79      1.0000 0.24143  0.08494  0.18904  Biso   1.000  N
  C530     1.0000 0.22860  0.07210  0.16650  Biso   1.000  C
  O185     1.0000 0.23950  0.06320  0.14560  Biso   1.000  O
  O186     1.0000 0.20144  0.06875  0.17190  Biso   1.000  O
  C531     1.0000 0.19500  0.07680  0.20170  Biso   1.000  C
  H498     1.0000 0.17900  0.08940  0.20250  Biso   1.000  H
  H499     1.0000 0.19100  0.06020  0.21290  Biso   1.000  H
  C532     1.0000 0.22102  0.09104  0.21168  Biso   1.000  C
  H500     1.0000 0.22740  0.08210  0.22920  Biso   1.000  H
  C533     1.0000 0.21790  0.12115  0.21630  Biso   1.000  C
  H501     1.0000 0.23650  0.12800  0.22210  Biso   1.000  H
  C534     1.0000 0.20980  0.13820  0.19130  Biso   1.000  C
  H502     1.0000 0.22140  0.13310  0.17550  Biso   1.000  H
  H503     1.0000 0.21240  0.15780  0.19540  Biso   1.000  H
  H504     1.0000 0.19040  0.13480  0.18680  Biso   1.000  H
  C535     1.0000 0.19780  0.12790  0.24080  Biso   1.000  C
  H505     1.0000 0.19710  0.14790  0.24360  Biso   1.000  H
  H506     1.0000 0.20450  0.11900  0.25760  Biso   1.000  H
  H507     1.0000 0.17930  0.12100  0.23640  Biso   1.000  H
  N80      1.0000 0.34078  0.04232  0.21880  Biso   1.000  N
  C536     1.0000 0.35640  0.04710  0.24180  Biso   1.000  C
  O187     1.0000 0.35820  0.06790  0.25450  Biso   1.000  O
  O188     1.0000 0.36820  0.02370  0.25170  Biso   1.000  O
  C537     1.0000 0.35730  0.00200  0.23690  Biso   1.000  C
  H508     1.0000 0.34460  0.99140  0.24890  Biso   1.000  H
  H509     1.0000 0.37240  0.98950  0.23130  Biso   1.000  H
  C538     1.0000 0.34090  0.01200  0.21010  Biso   1.000  C
  H510     1.0000 0.32160  0.00500  0.21180  Biso   1.000  H
  O189     1.0000 0.20194  0.99732  0.19561  Biso   1.000  O
  N81      1.0000 0.15848  0.99546  0.16666  Biso   1.000  N
  C539     1.0000 0.17698  0.99546  0.19546  Biso   1.000  C
  H511     1.0000 0.20390  0.99830  0.17150  Biso   1.000  H
  C540     1.0000 0.12877  0.99158  0.17604  Biso   1.000  C
  H512     1.0000 0.11540  0.00580  0.17010  Biso   1.000  H
  H513     1.0000 0.12600  0.98520  0.19530  Biso   1.000  H
  C541     1.0000 0.27505  0.53864  0.72214  Biso   1.000  C
  O190     1.0000 0.25300  0.52950  0.71097  Biso   1.000  O
  O191     1.0000 0.28588  0.53030  0.74444  Biso   1.000  O
  C542     1.0000 0.28928  0.56257  0.70714  Biso   1.000  C
  C543     1.0000 0.27381  0.58295  0.69251  Biso   1.000  C
  C544     1.0000 0.28688  0.60532  0.68021  Biso   1.000  C
  H514     1.0000 0.27620  0.61870  0.67080  Biso   1.000  H
  C545     1.0000 0.31624  0.60839  0.68151  Biso   1.000  C
  C546     1.0000 0.33163  0.58822  0.69613  Biso   1.000  C
  H515     1.0000 0.35110  0.58990  0.69720  Biso   1.000  H
  C547     1.0000 0.31871  0.56584  0.70901  Biso   1.000  C
  C548     1.0000 0.31904  0.64626  0.64487  Biso   1.000  C
  H516     1.0000 0.30300  0.63870  0.63660  Biso   1.000  H
  C549     1.0000 0.33029  0.63346  0.66874  Biso   1.000  C
  N82      1.0000 0.24143  0.58494  0.68904  Biso   1.000  N
  C550     1.0000 0.22860  0.57210  0.66650  Biso   1.000  C
  O192     1.0000 0.23950  0.56320  0.64560  Biso   1.000  O
  O193     1.0000 0.20144  0.56875  0.67190  Biso   1.000  O
  C551     1.0000 0.19500  0.57680  0.70170  Biso   1.000  C
  H517     1.0000 0.17900  0.58940  0.70250  Biso   1.000  H
  H518     1.0000 0.19100  0.56020  0.71290  Biso   1.000  H
  C552     1.0000 0.22102  0.59104  0.71168  Biso   1.000  C
  H519     1.0000 0.22740  0.58210  0.72920  Biso   1.000  H
  C553     1.0000 0.21790  0.62115  0.71630  Biso   1.000  C
  H520     1.0000 0.23650  0.62800  0.72210  Biso   1.000  H
  C554     1.0000 0.20980  0.63820  0.69130  Biso   1.000  C
  H521     1.0000 0.22140  0.63310  0.67550  Biso   1.000  H
  H522     1.0000 0.21240  0.65780  0.69540  Biso   1.000  H
  H523     1.0000 0.19040  0.63480  0.68680  Biso   1.000  H
  C555     1.0000 0.19780  0.62790  0.74080  Biso   1.000  C
  H524     1.0000 0.19710  0.64790  0.74360  Biso   1.000  H
  H525     1.0000 0.20450  0.61900  0.75760  Biso   1.000  H
  H526     1.0000 0.17930  0.62100  0.73640  Biso   1.000  H
  N83      1.0000 0.34078  0.54232  0.71880  Biso   1.000  N
  C556     1.0000 0.35640  0.54710  0.74180  Biso   1.000  C
  O194     1.0000 0.35820  0.56790  0.75450  Biso   1.000  O
  O195     1.0000 0.36820  0.52370  0.75170  Biso   1.000  O
  C557     1.0000 0.35730  0.50200  0.73690  Biso   1.000  C
  H527     1.0000 0.34460  0.49140  0.74890  Biso   1.000  H
  H528     1.0000 0.37240  0.48950  0.73130  Biso   1.000  H
  C558     1.0000 0.34090  0.51200  0.71010  Biso   1.000  C
  H529     1.0000 0.32160  0.50500  0.71180  Biso   1.000  H
  O196     1.0000 0.20194  0.49732  0.69561  Biso   1.000  O
  N84      1.0000 0.15848  0.49546  0.66666  Biso   1.000  N
  C559     1.0000 0.17698  0.49546  0.69546  Biso   1.000  C
  H530     1.0000 0.20390  0.49830  0.67150  Biso   1.000  H
  C560     1.0000 0.12877  0.49158  0.67604  Biso   1.000  C
  H531     1.0000 0.11540  0.50580  0.67010  Biso   1.000  H
  H532     1.0000 0.12600  0.48520  0.69530  Biso   1.000  H
  C561     1.0000 0.77505  0.96136  0.27786  Biso   1.000  C
  O197     1.0000 0.75300  0.97050  0.28903  Biso   1.000  O
  O198     1.0000 0.78588  0.96970  0.25556  Biso   1.000  O
  C562     1.0000 0.78928  0.93743  0.29286  Biso   1.000  C
  C563     1.0000 0.77381  0.91705  0.30749  Biso   1.000  C
  C564     1.0000 0.78688  0.89468  0.31979  Biso   1.000  C
  H533     1.0000 0.77620  0.88130  0.32920  Biso   1.000  H
  C565     1.0000 0.81624  0.89161  0.31849  Biso   1.000  C
  C566     1.0000 0.83163  0.91178  0.30387  Biso   1.000  C
  H534     1.0000 0.85110  0.91010  0.30280  Biso   1.000  H
  C567     1.0000 0.81871  0.93416  0.29099  Biso   1.000  C
  C568     1.0000 0.81904  0.85374  0.35513  Biso   1.000  C
  H535     1.0000 0.80300  0.86130  0.36340  Biso   1.000  H
  C569     1.0000 0.83029  0.86654  0.33126  Biso   1.000  C
  N85      1.0000 0.74143  0.91506  0.31096  Biso   1.000  N
  C570     1.0000 0.72860  0.92790  0.33350  Biso   1.000  C
  O199     1.0000 0.73950  0.93680  0.35440  Biso   1.000  O
  O200     1.0000 0.70144  0.93125  0.32810  Biso   1.000  O
  C571     1.0000 0.69500  0.92320  0.29830  Biso   1.000  C
  H536     1.0000 0.67900  0.91060  0.29750  Biso   1.000  H
  H537     1.0000 0.69100  0.93980  0.28710  Biso   1.000  H
  C572     1.0000 0.72102  0.90896  0.28832  Biso   1.000  C
  H538     1.0000 0.72740  0.91790  0.27080  Biso   1.000  H
  C573     1.0000 0.71790  0.87885  0.28370  Biso   1.000  C
  H539     1.0000 0.73650  0.87200  0.27790  Biso   1.000  H
  C574     1.0000 0.70980  0.86180  0.30870  Biso   1.000  C
  H540     1.0000 0.72140  0.86690  0.32450  Biso   1.000  H
  H541     1.0000 0.71240  0.84220  0.30460  Biso   1.000  H
  H542     1.0000 0.69040  0.86520  0.31320  Biso   1.000  H
  C575     1.0000 0.69780  0.87210  0.25920  Biso   1.000  C
  H543     1.0000 0.69710  0.85210  0.25640  Biso   1.000  H
  H544     1.0000 0.70450  0.88100  0.24240  Biso   1.000  H
  H545     1.0000 0.67930  0.87900  0.26360  Biso   1.000  H
  N86      1.0000 0.84078  0.95768  0.28120  Biso   1.000  N
  C576     1.0000 0.85640  0.95290  0.25820  Biso   1.000  C
  O201     1.0000 0.85820  0.93210  0.24550  Biso   1.000  O
  O202     1.0000 0.86820  0.97630  0.24830  Biso   1.000  O
  C577     1.0000 0.85730  0.99800  0.26310  Biso   1.000  C
  H546     1.0000 0.84460  0.00860  0.25110  Biso   1.000  H
  H547     1.0000 0.87240  0.01050  0.26870  Biso   1.000  H
  C578     1.0000 0.84090  0.98800  0.28990  Biso   1.000  C
  H548     1.0000 0.82160  0.99500  0.28820  Biso   1.000  H
  O203     1.0000 0.70194  0.00268  0.30439  Biso   1.000  O
  N87      1.0000 0.65848  0.00454  0.33334  Biso   1.000  N
  C579     1.0000 0.67698  0.00454  0.30454  Biso   1.000  C
  H549     1.0000 0.70390  0.00170  0.32850  Biso   1.000  H
  C580     1.0000 0.62877  0.00842  0.32396  Biso   1.000  C
  H550     1.0000 0.61540  0.99420  0.32990  Biso   1.000  H
  H551     1.0000 0.62600  0.01480  0.30470  Biso   1.000  H
  C581     1.0000 0.77505  0.46136  0.77786  Biso   1.000  C
  O204     1.0000 0.75300  0.47050  0.78903  Biso   1.000  O
  O205     1.0000 0.78588  0.46970  0.75556  Biso   1.000  O
  C582     1.0000 0.78928  0.43743  0.79286  Biso   1.000  C
  C583     1.0000 0.77381  0.41705  0.80749  Biso   1.000  C
  C584     1.0000 0.78688  0.39468  0.81979  Biso   1.000  C
  H552     1.0000 0.77620  0.38130  0.82920  Biso   1.000  H
  C585     1.0000 0.81624  0.39161  0.81849  Biso   1.000  C
  C586     1.0000 0.83163  0.41178  0.80387  Biso   1.000  C
  H553     1.0000 0.85110  0.41010  0.80280  Biso   1.000  H
  C587     1.0000 0.81871  0.43416  0.79099  Biso   1.000  C
  C588     1.0000 0.81904  0.35374  0.85513  Biso   1.000  C
  H554     1.0000 0.80300  0.36130  0.86340  Biso   1.000  H
  C589     1.0000 0.83029  0.36654  0.83126  Biso   1.000  C
  N88      1.0000 0.74143  0.41506  0.81096  Biso   1.000  N
  C590     1.0000 0.72860  0.42790  0.83350  Biso   1.000  C
  O206     1.0000 0.73950  0.43680  0.85440  Biso   1.000  O
  O207     1.0000 0.70144  0.43125  0.82810  Biso   1.000  O
  C591     1.0000 0.69500  0.42320  0.79830  Biso   1.000  C
  H555     1.0000 0.67900  0.41060  0.79750  Biso   1.000  H
  H556     1.0000 0.69100  0.43980  0.78710  Biso   1.000  H
  C592     1.0000 0.72102  0.40896  0.78832  Biso   1.000  C
  H557     1.0000 0.72740  0.41790  0.77080  Biso   1.000  H
  C593     1.0000 0.71790  0.37885  0.78370  Biso   1.000  C
  H558     1.0000 0.73650  0.37200  0.77790  Biso   1.000  H
  C594     1.0000 0.70980  0.36180  0.80870  Biso   1.000  C
  H559     1.0000 0.72140  0.36690  0.82450  Biso   1.000  H
  H560     1.0000 0.71240  0.34220  0.80460  Biso   1.000  H
  H561     1.0000 0.69040  0.36520  0.81320  Biso   1.000  H
  C595     1.0000 0.69780  0.37210  0.75920  Biso   1.000  C
  H562     1.0000 0.69710  0.35210  0.75640  Biso   1.000  H
  H563     1.0000 0.70450  0.38100  0.74240  Biso   1.000  H
  H564     1.0000 0.67930  0.37900  0.76360  Biso   1.000  H
  N89      1.0000 0.84078  0.45768  0.78120  Biso   1.000  N
  C596     1.0000 0.85640  0.45290  0.75820  Biso   1.000  C
  O208     1.0000 0.85820  0.43210  0.74550  Biso   1.000  O
  O209     1.0000 0.86820  0.47630  0.74830  Biso   1.000  O
  C597     1.0000 0.85730  0.49800  0.76310  Biso   1.000  C
  H565     1.0000 0.84460  0.50860  0.75110  Biso   1.000  H
  H566     1.0000 0.87240  0.51050  0.76870  Biso   1.000  H
  C598     1.0000 0.84090  0.48800  0.78990  Biso   1.000  C
  H567     1.0000 0.82160  0.49500  0.78820  Biso   1.000  H
  O210     1.0000 0.70194  0.50268  0.80439  Biso   1.000  O
  N90      1.0000 0.65848  0.50454  0.83334  Biso   1.000  N
  C599     1.0000 0.67698  0.50454  0.80454  Biso   1.000  C
  H568     1.0000 0.70390  0.50170  0.82850  Biso   1.000  H
  C600     1.0000 0.62877  0.50842  0.82396  Biso   1.000  C
  H569     1.0000 0.61540  0.49420  0.82990  Biso   1.000  H
  H570     1.0000 0.62600  0.51480  0.80470  Biso   1.000  H
  C601     1.0000 0.27505  0.96136  0.77786  Biso   1.000  C
  O211     1.0000 0.25300  0.97050  0.78903  Biso   1.000  O
  O212     1.0000 0.28588  0.96970  0.75556  Biso   1.000  O
  C602     1.0000 0.28928  0.93743  0.79286  Biso   1.000  C
  C603     1.0000 0.27381  0.91705  0.80749  Biso   1.000  C
  C604     1.0000 0.28688  0.89468  0.81979  Biso   1.000  C
  H571     1.0000 0.27620  0.88130  0.82920  Biso   1.000  H
  C605     1.0000 0.31624  0.89161  0.81849  Biso   1.000  C
  C606     1.0000 0.33163  0.91178  0.80387  Biso   1.000  C
  H572     1.0000 0.35110  0.91010  0.80280  Biso   1.000  H
  C607     1.0000 0.31871  0.93416  0.79099  Biso   1.000  C
  C608     1.0000 0.31904  0.85374  0.85513  Biso   1.000  C
  H573     1.0000 0.30300  0.86130  0.86340  Biso   1.000  H
  C609     1.0000 0.33029  0.86654  0.83126  Biso   1.000  C
  N91      1.0000 0.24143  0.91506  0.81096  Biso   1.000  N
  C610     1.0000 0.22860  0.92790  0.83350  Biso   1.000  C
  O213     1.0000 0.23950  0.93680  0.85440  Biso   1.000  O
  O214     1.0000 0.20144  0.93125  0.82810  Biso   1.000  O
  C611     1.0000 0.19500  0.92320  0.79830  Biso   1.000  C
  H574     1.0000 0.17900  0.91060  0.79750  Biso   1.000  H
  H575     1.0000 0.19100  0.93980  0.78710  Biso   1.000  H
  C612     1.0000 0.22102  0.90896  0.78832  Biso   1.000  C
  H576     1.0000 0.22740  0.91790  0.77080  Biso   1.000  H
  C613     1.0000 0.21790  0.87885  0.78370  Biso   1.000  C
  H577     1.0000 0.23650  0.87200  0.77790  Biso   1.000  H
  C614     1.0000 0.20980  0.86180  0.80870  Biso   1.000  C
  H578     1.0000 0.22140  0.86690  0.82450  Biso   1.000  H
  H579     1.0000 0.21240  0.84220  0.80460  Biso   1.000  H
  H580     1.0000 0.19040  0.86520  0.81320  Biso   1.000  H
  C615     1.0000 0.19780  0.87210  0.75920  Biso   1.000  C
  H581     1.0000 0.19710  0.85210  0.75640  Biso   1.000  H
  H582     1.0000 0.20450  0.88100  0.74240  Biso   1.000  H
  H583     1.0000 0.17930  0.87900  0.76360  Biso   1.000  H
  N92      1.0000 0.34078  0.95768  0.78120  Biso   1.000  N
  C616     1.0000 0.35640  0.95290  0.75820  Biso   1.000  C
  O215     1.0000 0.35820  0.93210  0.74550  Biso   1.000  O
  O216     1.0000 0.36820  0.97630  0.74830  Biso   1.000  O
  C617     1.0000 0.35730  0.99800  0.76310  Biso   1.000  C
  H584     1.0000 0.34460  0.00860  0.75110  Biso   1.000  H
  H585     1.0000 0.37240  0.01050  0.76870  Biso   1.000  H
  C618     1.0000 0.34090  0.98800  0.78990  Biso   1.000  C
  H586     1.0000 0.32160  0.99500  0.78820  Biso   1.000  H
  O217     1.0000 0.20194  0.00268  0.80439  Biso   1.000  O
  N93      1.0000 0.15848  0.00454  0.83334  Biso   1.000  N
  C619     1.0000 0.17698  0.00454  0.80454  Biso   1.000  C
  H587     1.0000 0.20390  0.00170  0.82850  Biso   1.000  H
  C620     1.0000 0.12877  0.00842  0.82396  Biso   1.000  C
  H588     1.0000 0.11540  0.99420  0.82990  Biso   1.000  H
  H589     1.0000 0.12600  0.01480  0.80470  Biso   1.000  H
  C621     1.0000 0.27505  0.46136  0.27786  Biso   1.000  C
  O218     1.0000 0.25300  0.47050  0.28903  Biso   1.000  O
  O219     1.0000 0.28588  0.46970  0.25556  Biso   1.000  O
  C622     1.0000 0.28928  0.43743  0.29286  Biso   1.000  C
  C623     1.0000 0.27381  0.41705  0.30749  Biso   1.000  C
  C624     1.0000 0.28688  0.39468  0.31979  Biso   1.000  C
  H590     1.0000 0.27620  0.38130  0.32920  Biso   1.000  H
  C625     1.0000 0.31624  0.39161  0.31849  Biso   1.000  C
  C626     1.0000 0.33163  0.41178  0.30387  Biso   1.000  C
  H591     1.0000 0.35110  0.41010  0.30280  Biso   1.000  H
  C627     1.0000 0.31871  0.43416  0.29099  Biso   1.000  C
  C628     1.0000 0.31904  0.35374  0.35513  Biso   1.000  C
  H592     1.0000 0.30300  0.36130  0.36340  Biso   1.000  H
  C629     1.0000 0.33029  0.36654  0.33126  Biso   1.000  C
  N94      1.0000 0.24143  0.41506  0.31096  Biso   1.000  N
  C630     1.0000 0.22860  0.42790  0.33350  Biso   1.000  C
  O220     1.0000 0.23950  0.43680  0.35440  Biso   1.000  O
  O221     1.0000 0.20144  0.43125  0.32810  Biso   1.000  O
  C631     1.0000 0.19500  0.42320  0.29830  Biso   1.000  C
  H593     1.0000 0.17900  0.41060  0.29750  Biso   1.000  H
  H594     1.0000 0.19100  0.43980  0.28710  Biso   1.000  H
  C632     1.0000 0.22102  0.40896  0.28832  Biso   1.000  C
  H595     1.0000 0.22740  0.41790  0.27080  Biso   1.000  H
  C633     1.0000 0.21790  0.37885  0.28370  Biso   1.000  C
  H596     1.0000 0.23650  0.37200  0.27790  Biso   1.000  H
  C634     1.0000 0.20980  0.36180  0.30870  Biso   1.000  C
  H597     1.0000 0.22140  0.36690  0.32450  Biso   1.000  H
  H598     1.0000 0.21240  0.34220  0.30460  Biso   1.000  H
  H599     1.0000 0.19040  0.36520  0.31320  Biso   1.000  H
  C635     1.0000 0.19780  0.37210  0.25920  Biso   1.000  C
  H600     1.0000 0.19710  0.35210  0.25640  Biso   1.000  H
  H601     1.0000 0.20450  0.38100  0.24240  Biso   1.000  H
  H602     1.0000 0.17930  0.37900  0.26360  Biso   1.000  H
  N95      1.0000 0.34078  0.45768  0.28120  Biso   1.000  N
  C636     1.0000 0.35640  0.45290  0.25820  Biso   1.000  C
  O222     1.0000 0.35820  0.43210  0.24550  Biso   1.000  O
  O223     1.0000 0.36820  0.47630  0.24830  Biso   1.000  O
  C637     1.0000 0.35730  0.49800  0.26310  Biso   1.000  C
  H603     1.0000 0.34460  0.50860  0.25110  Biso   1.000  H
  H604     1.0000 0.37240  0.51050  0.26870  Biso   1.000  H
  C638     1.0000 0.34090  0.48800  0.28990  Biso   1.000  C
  H605     1.0000 0.32160  0.49500  0.28820  Biso   1.000  H
  O224     1.0000 0.20194  0.50268  0.30439  Biso   1.000  O
  N96      1.0000 0.15848  0.50454  0.33334  Biso   1.000  N
  C639     1.0000 0.17698  0.50454  0.30454  Biso   1.000  C
  H606     1.0000 0.20390  0.50170  0.32850  Biso   1.000  H
  C640     1.0000 0.12877  0.50842  0.32396  Biso   1.000  C
  H607     1.0000 0.11540  0.49420  0.32990  Biso   1.000  H
  H608     1.0000 0.12600  0.51480  0.30470  Biso   1.000  H
  C641     1.0000 0.72214  0.22495  0.96136  Biso   1.000  C
  O225     1.0000 0.71097  0.24700  0.97050  Biso   1.000  O
  O226     1.0000 0.74444  0.21412  0.96970  Biso   1.000  O
  C642     1.0000 0.70714  0.21072  0.93743  Biso   1.000  C
  C643     1.0000 0.69251  0.22619  0.91705  Biso   1.000  C
  C644     1.0000 0.68021  0.21312  0.89468  Biso   1.000  C
  H609     1.0000 0.67080  0.22380  0.88130  Biso   1.000  H
  C645     1.0000 0.68151  0.18376  0.89161  Biso   1.000  C
  C646     1.0000 0.69613  0.16837  0.91178  Biso   1.000  C
  H610     1.0000 0.69720  0.14890  0.91010  Biso   1.000  H
  C647     1.0000 0.70901  0.18129  0.93416  Biso   1.000  C
  C648     1.0000 0.64487  0.18096  0.85374  Biso   1.000  C
  H611     1.0000 0.63660  0.19700  0.86130  Biso   1.000  H
  C649     1.0000 0.66874  0.16971  0.86654  Biso   1.000  C
  N97      1.0000 0.68904  0.25857  0.91506  Biso   1.000  N
  C650     1.0000 0.66650  0.27140  0.92790  Biso   1.000  C
  O227     1.0000 0.64560  0.26050  0.93680  Biso   1.000  O
  O228     1.0000 0.67190  0.29856  0.93125  Biso   1.000  O
  C651     1.0000 0.70170  0.30500  0.92320  Biso   1.000  C
  H612     1.0000 0.70250  0.32100  0.91060  Biso   1.000  H
  H613     1.0000 0.71290  0.30900  0.93980  Biso   1.000  H
  C652     1.0000 0.71168  0.27898  0.90896  Biso   1.000  C
  H614     1.0000 0.72920  0.27260  0.91790  Biso   1.000  H
  C653     1.0000 0.71630  0.28210  0.87885  Biso   1.000  C
  H615     1.0000 0.72210  0.26350  0.87200  Biso   1.000  H
  C654     1.0000 0.69130  0.29020  0.86180  Biso   1.000  C
  H616     1.0000 0.67550  0.27860  0.86690  Biso   1.000  H
  H617     1.0000 0.69540  0.28760  0.84220  Biso   1.000  H
  H618     1.0000 0.68680  0.30960  0.86520  Biso   1.000  H
  C655     1.0000 0.74080  0.30220  0.87210  Biso   1.000  C
  H619     1.0000 0.74360  0.30290  0.85210  Biso   1.000  H
  H620     1.0000 0.75760  0.29550  0.88100  Biso   1.000  H
  H621     1.0000 0.73640  0.32070  0.87900  Biso   1.000  H
  N98      1.0000 0.71880  0.15922  0.95768  Biso   1.000  N
  C656     1.0000 0.74180  0.14360  0.95290  Biso   1.000  C
  O229     1.0000 0.75450  0.14180  0.93210  Biso   1.000  O
  O230     1.0000 0.75170  0.13180  0.97630  Biso   1.000  O
  C657     1.0000 0.73690  0.14270  0.99800  Biso   1.000  C
  H622     1.0000 0.74890  0.15540  0.00860  Biso   1.000  H
  H623     1.0000 0.73130  0.12760  0.01050  Biso   1.000  H
  C658     1.0000 0.71010  0.15910  0.98800  Biso   1.000  C
  H624     1.0000 0.71180  0.17840  0.99500  Biso   1.000  H
  O231     1.0000 0.69561  0.29806  0.00268  Biso   1.000  O
  N99      1.0000 0.66666  0.34152  0.00454  Biso   1.000  N
  C659     1.0000 0.69546  0.32302  0.00454  Biso   1.000  C
  H625     1.0000 0.67150  0.29610  0.00170  Biso   1.000  H
  C660     1.0000 0.67604  0.37123  0.00842  Biso   1.000  C
  H626     1.0000 0.67010  0.38460  0.99420  Biso   1.000  H
  H627     1.0000 0.69530  0.37400  0.01480  Biso   1.000  H
  C661     1.0000 0.72214  0.72495  0.46136  Biso   1.000  C
  O232     1.0000 0.71097  0.74700  0.47050  Biso   1.000  O
  O233     1.0000 0.74444  0.71412  0.46970  Biso   1.000  O
  C662     1.0000 0.70714  0.71072  0.43743  Biso   1.000  C
  C663     1.0000 0.69251  0.72619  0.41705  Biso   1.000  C
  C664     1.0000 0.68021  0.71312  0.39468  Biso   1.000  C
  H628     1.0000 0.67080  0.72380  0.38130  Biso   1.000  H
  C665     1.0000 0.68151  0.68376  0.39161  Biso   1.000  C
  C666     1.0000 0.69613  0.66837  0.41178  Biso   1.000  C
  H629     1.0000 0.69720  0.64890  0.41010  Biso   1.000  H
  C667     1.0000 0.70901  0.68129  0.43416  Biso   1.000  C
  C668     1.0000 0.64487  0.68096  0.35374  Biso   1.000  C
  H630     1.0000 0.63660  0.69700  0.36130  Biso   1.000  H
  C669     1.0000 0.66874  0.66971  0.36654  Biso   1.000  C
  N100     1.0000 0.68904  0.75857  0.41506  Biso   1.000  N
  C670     1.0000 0.66650  0.77140  0.42790  Biso   1.000  C
  O234     1.0000 0.64560  0.76050  0.43680  Biso   1.000  O
  O235     1.0000 0.67190  0.79856  0.43125  Biso   1.000  O
  C671     1.0000 0.70170  0.80500  0.42320  Biso   1.000  C
  H631     1.0000 0.70250  0.82100  0.41060  Biso   1.000  H
  H632     1.0000 0.71290  0.80900  0.43980  Biso   1.000  H
  C672     1.0000 0.71168  0.77898  0.40896  Biso   1.000  C
  H633     1.0000 0.72920  0.77260  0.41790  Biso   1.000  H
  C673     1.0000 0.71630  0.78210  0.37885  Biso   1.000  C
  H634     1.0000 0.72210  0.76350  0.37200  Biso   1.000  H
  C674     1.0000 0.69130  0.79020  0.36180  Biso   1.000  C
  H635     1.0000 0.67550  0.77860  0.36690  Biso   1.000  H
  H636     1.0000 0.69540  0.78760  0.34220  Biso   1.000  H
  H637     1.0000 0.68680  0.80960  0.36520  Biso   1.000  H
  C675     1.0000 0.74080  0.80220  0.37210  Biso   1.000  C
  H638     1.0000 0.74360  0.80290  0.35210  Biso   1.000  H
  H639     1.0000 0.75760  0.79550  0.38100  Biso   1.000  H
  H640     1.0000 0.73640  0.82070  0.37900  Biso   1.000  H
  N101     1.0000 0.71880  0.65922  0.45768  Biso   1.000  N
  C676     1.0000 0.74180  0.64360  0.45290  Biso   1.000  C
  O236     1.0000 0.75450  0.64180  0.43210  Biso   1.000  O
  O237     1.0000 0.75170  0.63180  0.47630  Biso   1.000  O
  C677     1.0000 0.73690  0.64270  0.49800  Biso   1.000  C
  H641     1.0000 0.74890  0.65540  0.50860  Biso   1.000  H
  H642     1.0000 0.73130  0.62760  0.51050  Biso   1.000  H
  C678     1.0000 0.71010  0.65910  0.48800  Biso   1.000  C
  H643     1.0000 0.71180  0.67840  0.49500  Biso   1.000  H
  O238     1.0000 0.69561  0.79806  0.50268  Biso   1.000  O
  N102     1.0000 0.66666  0.84152  0.50454  Biso   1.000  N
  C679     1.0000 0.69546  0.82302  0.50454  Biso   1.000  C
  H644     1.0000 0.67150  0.79610  0.50170  Biso   1.000  H
  C680     1.0000 0.67604  0.87123  0.50842  Biso   1.000  C
  H645     1.0000 0.67010  0.88460  0.49420  Biso   1.000  H
  H646     1.0000 0.69530  0.87400  0.51480  Biso   1.000  H
  C681     1.0000 0.22214  0.22495  0.46136  Biso   1.000  C
  O239     1.0000 0.21097  0.24700  0.47050  Biso   1.000  O
  O240     1.0000 0.24444  0.21412  0.46970  Biso   1.000  O
  C682     1.0000 0.20714  0.21072  0.43743  Biso   1.000  C
  C683     1.0000 0.19251  0.22619  0.41705  Biso   1.000  C
  C684     1.0000 0.18021  0.21312  0.39468  Biso   1.000  C
  H647     1.0000 0.17080  0.22380  0.38130  Biso   1.000  H
  C685     1.0000 0.18151  0.18376  0.39161  Biso   1.000  C
  C686     1.0000 0.19613  0.16837  0.41178  Biso   1.000  C
  H648     1.0000 0.19720  0.14890  0.41010  Biso   1.000  H
  C687     1.0000 0.20901  0.18129  0.43416  Biso   1.000  C
  C688     1.0000 0.14487  0.18096  0.35374  Biso   1.000  C
  H649     1.0000 0.13660  0.19700  0.36130  Biso   1.000  H
  C689     1.0000 0.16874  0.16971  0.36654  Biso   1.000  C
  N103     1.0000 0.18904  0.25857  0.41506  Biso   1.000  N
  C690     1.0000 0.16650  0.27140  0.42790  Biso   1.000  C
  O241     1.0000 0.14560  0.26050  0.43680  Biso   1.000  O
  O242     1.0000 0.17190  0.29856  0.43125  Biso   1.000  O
  C691     1.0000 0.20170  0.30500  0.42320  Biso   1.000  C
  H650     1.0000 0.20250  0.32100  0.41060  Biso   1.000  H
  H651     1.0000 0.21290  0.30900  0.43980  Biso   1.000  H
  C692     1.0000 0.21168  0.27898  0.40896  Biso   1.000  C
  H652     1.0000 0.22920  0.27260  0.41790  Biso   1.000  H
  C693     1.0000 0.21630  0.28210  0.37885  Biso   1.000  C
  H653     1.0000 0.22210  0.26350  0.37200  Biso   1.000  H
  C694     1.0000 0.19130  0.29020  0.36180  Biso   1.000  C
  H654     1.0000 0.17550  0.27860  0.36690  Biso   1.000  H
  H655     1.0000 0.19540  0.28760  0.34220  Biso   1.000  H
  H656     1.0000 0.18680  0.30960  0.36520  Biso   1.000  H
  C695     1.0000 0.24080  0.30220  0.37210  Biso   1.000  C
  H657     1.0000 0.24360  0.30290  0.35210  Biso   1.000  H
  H658     1.0000 0.25760  0.29550  0.38100  Biso   1.000  H
  H659     1.0000 0.23640  0.32070  0.37900  Biso   1.000  H
  N104     1.0000 0.21880  0.15922  0.45768  Biso   1.000  N
  C696     1.0000 0.24180  0.14360  0.45290  Biso   1.000  C
  O243     1.0000 0.25450  0.14180  0.43210  Biso   1.000  O
  O244     1.0000 0.25170  0.13180  0.47630  Biso   1.000  O
  C697     1.0000 0.23690  0.14270  0.49800  Biso   1.000  C
  H660     1.0000 0.24890  0.15540  0.50860  Biso   1.000  H
  H661     1.0000 0.23130  0.12760  0.51050  Biso   1.000  H
  C698     1.0000 0.21010  0.15910  0.48800  Biso   1.000  C
  H662     1.0000 0.21180  0.17840  0.49500  Biso   1.000  H
  O245     1.0000 0.19561  0.29806  0.50268  Biso   1.000  O
  N105     1.0000 0.16666  0.34152  0.50454  Biso   1.000  N
  C699     1.0000 0.19546  0.32302  0.50454  Biso   1.000  C
  H663     1.0000 0.17150  0.29610  0.50170  Biso   1.000  H
  C700     1.0000 0.17604  0.37123  0.50842  Biso   1.000  C
  H664     1.0000 0.17010  0.38460  0.49420  Biso   1.000  H
  H665     1.0000 0.19530  0.37400  0.51480  Biso   1.000  H
  C701     1.0000 0.22214  0.72495  0.96136  Biso   1.000  C
  O246     1.0000 0.21097  0.74700  0.97050  Biso   1.000  O
  O247     1.0000 0.24444  0.71412  0.96970  Biso   1.000  O
  C702     1.0000 0.20714  0.71072  0.93743  Biso   1.000  C
  C703     1.0000 0.19251  0.72619  0.91705  Biso   1.000  C
  C704     1.0000 0.18021  0.71312  0.89468  Biso   1.000  C
  H666     1.0000 0.17080  0.72380  0.88130  Biso   1.000  H
  C705     1.0000 0.18151  0.68376  0.89161  Biso   1.000  C
  C706     1.0000 0.19613  0.66837  0.91178  Biso   1.000  C
  H667     1.0000 0.19720  0.64890  0.91010  Biso   1.000  H
  C707     1.0000 0.20901  0.68129  0.93416  Biso   1.000  C
  C708     1.0000 0.14487  0.68096  0.85374  Biso   1.000  C
  H668     1.0000 0.13660  0.69700  0.86130  Biso   1.000  H
  C709     1.0000 0.16874  0.66971  0.86654  Biso   1.000  C
  N106     1.0000 0.18904  0.75857  0.91506  Biso   1.000  N
  C710     1.0000 0.16650  0.77140  0.92790  Biso   1.000  C
  O248     1.0000 0.14560  0.76050  0.93680  Biso   1.000  O
  O249     1.0000 0.17190  0.79856  0.93125  Biso   1.000  O
  C711     1.0000 0.20170  0.80500  0.92320  Biso   1.000  C
  H669     1.0000 0.20250  0.82100  0.91060  Biso   1.000  H
  H670     1.0000 0.21290  0.80900  0.93980  Biso   1.000  H
  C712     1.0000 0.21168  0.77898  0.90896  Biso   1.000  C
  H671     1.0000 0.22920  0.77260  0.91790  Biso   1.000  H
  C713     1.0000 0.21630  0.78210  0.87885  Biso   1.000  C
  H672     1.0000 0.22210  0.76350  0.87200  Biso   1.000  H
  C714     1.0000 0.19130  0.79020  0.86180  Biso   1.000  C
  H673     1.0000 0.17550  0.77860  0.86690  Biso   1.000  H
  H674     1.0000 0.19540  0.78760  0.84220  Biso   1.000  H
  H675     1.0000 0.18680  0.80960  0.86520  Biso   1.000  H
  C715     1.0000 0.24080  0.80220  0.87210  Biso   1.000  C
  H676     1.0000 0.24360  0.80290  0.85210  Biso   1.000  H
  H677     1.0000 0.25760  0.79550  0.88100  Biso   1.000  H
  H678     1.0000 0.23640  0.82070  0.87900  Biso   1.000  H
  N107     1.0000 0.21880  0.65922  0.95768  Biso   1.000  N
  C716     1.0000 0.24180  0.64360  0.95290  Biso   1.000  C
  O250     1.0000 0.25450  0.64180  0.93210  Biso   1.000  O
  O251     1.0000 0.25170  0.63180  0.97630  Biso   1.000  O
  C717     1.0000 0.23690  0.64270  0.99800  Biso   1.000  C
  H679     1.0000 0.24890  0.65540  0.00860  Biso   1.000  H
  H680     1.0000 0.23130  0.62760  0.01050  Biso   1.000  H
  C718     1.0000 0.21010  0.65910  0.98800  Biso   1.000  C
  H681     1.0000 0.21180  0.67840  0.99500  Biso   1.000  H
  O252     1.0000 0.19561  0.79806  0.00268  Biso   1.000  O
  N108     1.0000 0.16666  0.84152  0.00454  Biso   1.000  N
  C719     1.0000 0.19546  0.82302  0.00454  Biso   1.000  C
  H682     1.0000 0.17150  0.79610  0.00170  Biso   1.000  H
  C720     1.0000 0.17604  0.87123  0.00842  Biso   1.000  C
  H683     1.0000 0.17010  0.88460  0.99420  Biso   1.000  H
  H684     1.0000 0.19530  0.87400  0.01480  Biso   1.000  H
  C721     1.0000 0.27786  0.22495  0.03864  Biso   1.000  C
  O253     1.0000 0.28903  0.24700  0.02950  Biso   1.000  O
  O254     1.0000 0.25556  0.21412  0.03030  Biso   1.000  O
  C722     1.0000 0.29286  0.21072  0.06257  Biso   1.000  C
  C723     1.0000 0.30749  0.22619  0.08295  Biso   1.000  C
  C724     1.0000 0.31979  0.21312  0.10532  Biso   1.000  C
  H685     1.0000 0.32920  0.22380  0.11870  Biso   1.000  H
  C725     1.0000 0.31849  0.18376  0.10839  Biso   1.000  C
  C726     1.0000 0.30387  0.16837  0.08822  Biso   1.000  C
  H686     1.0000 0.30280  0.14890  0.08990  Biso   1.000  H
  C727     1.0000 0.29099  0.18129  0.06584  Biso   1.000  C
  C728     1.0000 0.35513  0.18096  0.14626  Biso   1.000  C
  H687     1.0000 0.36340  0.19700  0.13870  Biso   1.000  H
  C729     1.0000 0.33126  0.16971  0.13346  Biso   1.000  C
  N109     1.0000 0.31096  0.25857  0.08494  Biso   1.000  N
  C730     1.0000 0.33350  0.27140  0.07210  Biso   1.000  C
  O255     1.0000 0.35440  0.26050  0.06320  Biso   1.000  O
  O256     1.0000 0.32810  0.29856  0.06875  Biso   1.000  O
  C731     1.0000 0.29830  0.30500  0.07680  Biso   1.000  C
  H688     1.0000 0.29750  0.32100  0.08940  Biso   1.000  H
  H689     1.0000 0.28710  0.30900  0.06020  Biso   1.000  H
  C732     1.0000 0.28832  0.27898  0.09104  Biso   1.000  C
  H690     1.0000 0.27080  0.27260  0.08210  Biso   1.000  H
  C733     1.0000 0.28370  0.28210  0.12115  Biso   1.000  C
  H691     1.0000 0.27790  0.26350  0.12800  Biso   1.000  H
  C734     1.0000 0.30870  0.29020  0.13820  Biso   1.000  C
  H692     1.0000 0.32450  0.27860  0.13310  Biso   1.000  H
  H693     1.0000 0.30460  0.28760  0.15780  Biso   1.000  H
  H694     1.0000 0.31320  0.30960  0.13480  Biso   1.000  H
  C735     1.0000 0.25920  0.30220  0.12790  Biso   1.000  C
  H695     1.0000 0.25640  0.30290  0.14790  Biso   1.000  H
  H696     1.0000 0.24240  0.29550  0.11900  Biso   1.000  H
  H697     1.0000 0.26360  0.32070  0.12100  Biso   1.000  H
  N110     1.0000 0.28120  0.15922  0.04232  Biso   1.000  N
  C736     1.0000 0.25820  0.14360  0.04710  Biso   1.000  C
  O257     1.0000 0.24550  0.14180  0.06790  Biso   1.000  O
  O258     1.0000 0.24830  0.13180  0.02370  Biso   1.000  O
  C737     1.0000 0.26310  0.14270  0.00200  Biso   1.000  C
  H698     1.0000 0.25110  0.15540  0.99140  Biso   1.000  H
  H699     1.0000 0.26870  0.12760  0.98950  Biso   1.000  H
  C738     1.0000 0.28990  0.15910  0.01200  Biso   1.000  C
  H700     1.0000 0.28820  0.17840  0.00500  Biso   1.000  H
  O259     1.0000 0.30439  0.29806  0.99732  Biso   1.000  O
  N111     1.0000 0.33334  0.34152  0.99546  Biso   1.000  N
  C739     1.0000 0.30454  0.32302  0.99546  Biso   1.000  C
  H701     1.0000 0.32850  0.29610  0.99830  Biso   1.000  H
  C740     1.0000 0.32396  0.37123  0.99158  Biso   1.000  C
  H702     1.0000 0.32990  0.38460  0.00580  Biso   1.000  H
  H703     1.0000 0.30470  0.37400  0.98520  Biso   1.000  H
  C741     1.0000 0.27786  0.72495  0.53864  Biso   1.000  C
  O260     1.0000 0.28903  0.74700  0.52950  Biso   1.000  O
  O261     1.0000 0.25556  0.71412  0.53030  Biso   1.000  O
  C742     1.0000 0.29286  0.71072  0.56257  Biso   1.000  C
  C743     1.0000 0.30749  0.72619  0.58295  Biso   1.000  C
  C744     1.0000 0.31979  0.71312  0.60532  Biso   1.000  C
  H704     1.0000 0.32920  0.72380  0.61870  Biso   1.000  H
  C745     1.0000 0.31849  0.68376  0.60839  Biso   1.000  C
  C746     1.0000 0.30387  0.66837  0.58822  Biso   1.000  C
  H705     1.0000 0.30280  0.64890  0.58990  Biso   1.000  H
  C747     1.0000 0.29099  0.68129  0.56584  Biso   1.000  C
  C748     1.0000 0.35513  0.68096  0.64626  Biso   1.000  C
  H706     1.0000 0.36340  0.69700  0.63870  Biso   1.000  H
  C749     1.0000 0.33126  0.66971  0.63346  Biso   1.000  C
  N112     1.0000 0.31096  0.75857  0.58494  Biso   1.000  N
  C750     1.0000 0.33350  0.77140  0.57210  Biso   1.000  C
  O262     1.0000 0.35440  0.76050  0.56320  Biso   1.000  O
  O263     1.0000 0.32810  0.79856  0.56875  Biso   1.000  O
  C751     1.0000 0.29830  0.80500  0.57680  Biso   1.000  C
  H707     1.0000 0.29750  0.82100  0.58940  Biso   1.000  H
  H708     1.0000 0.28710  0.80900  0.56020  Biso   1.000  H
  C752     1.0000 0.28832  0.77898  0.59104  Biso   1.000  C
  H709     1.0000 0.27080  0.77260  0.58210  Biso   1.000  H
  C753     1.0000 0.28370  0.78210  0.62115  Biso   1.000  C
  H710     1.0000 0.27790  0.76350  0.62800  Biso   1.000  H
  C754     1.0000 0.30870  0.79020  0.63820  Biso   1.000  C
  H711     1.0000 0.32450  0.77860  0.63310  Biso   1.000  H
  H712     1.0000 0.30460  0.78760  0.65780  Biso   1.000  H
  H713     1.0000 0.31320  0.80960  0.63480  Biso   1.000  H
  C755     1.0000 0.25920  0.80220  0.62790  Biso   1.000  C
  H714     1.0000 0.25640  0.80290  0.64790  Biso   1.000  H
  H715     1.0000 0.24240  0.79550  0.61900  Biso   1.000  H
  H716     1.0000 0.26360  0.82070  0.62100  Biso   1.000  H
  N113     1.0000 0.28120  0.65922  0.54232  Biso   1.000  N
  C756     1.0000 0.25820  0.64360  0.54710  Biso   1.000  C
  O264     1.0000 0.24550  0.64180  0.56790  Biso   1.000  O
  O265     1.0000 0.24830  0.63180  0.52370  Biso   1.000  O
  C757     1.0000 0.26310  0.64270  0.50200  Biso   1.000  C
  H717     1.0000 0.25110  0.65540  0.49140  Biso   1.000  H
  H718     1.0000 0.26870  0.62760  0.48950  Biso   1.000  H
  C758     1.0000 0.28990  0.65910  0.51200  Biso   1.000  C
  H719     1.0000 0.28820  0.67840  0.50500  Biso   1.000  H
  O266     1.0000 0.30439  0.79806  0.49732  Biso   1.000  O
  N114     1.0000 0.33334  0.84152  0.49546  Biso   1.000  N
  C759     1.0000 0.30454  0.82302  0.49546  Biso   1.000  C
  H720     1.0000 0.32850  0.79610  0.49830  Biso   1.000  H
  C760     1.0000 0.32396  0.87123  0.49158  Biso   1.000  C
  H721     1.0000 0.32990  0.88460  0.50580  Biso   1.000  H
  H722     1.0000 0.30470  0.87400  0.48520  Biso   1.000  H
  C761     1.0000 0.77786  0.22495  0.53864  Biso   1.000  C
  O267     1.0000 0.78903  0.24700  0.52950  Biso   1.000  O
  O268     1.0000 0.75556  0.21412  0.53030  Biso   1.000  O
  C762     1.0000 0.79286  0.21072  0.56257  Biso   1.000  C
  C763     1.0000 0.80749  0.22619  0.58295  Biso   1.000  C
  C764     1.0000 0.81979  0.21312  0.60532  Biso   1.000  C
  H723     1.0000 0.82920  0.22380  0.61870  Biso   1.000  H
  C765     1.0000 0.81849  0.18376  0.60839  Biso   1.000  C
  C766     1.0000 0.80387  0.16837  0.58822  Biso   1.000  C
  H724     1.0000 0.80280  0.14890  0.58990  Biso   1.000  H
  C767     1.0000 0.79099  0.18129  0.56584  Biso   1.000  C
  C768     1.0000 0.85513  0.18096  0.64626  Biso   1.000  C
  H725     1.0000 0.86340  0.19700  0.63870  Biso   1.000  H
  C769     1.0000 0.83126  0.16971  0.63346  Biso   1.000  C
  N115     1.0000 0.81096  0.25857  0.58494  Biso   1.000  N
  C770     1.0000 0.83350  0.27140  0.57210  Biso   1.000  C
  O269     1.0000 0.85440  0.26050  0.56320  Biso   1.000  O
  O270     1.0000 0.82810  0.29856  0.56875  Biso   1.000  O
  C771     1.0000 0.79830  0.30500  0.57680  Biso   1.000  C
  H726     1.0000 0.79750  0.32100  0.58940  Biso   1.000  H
  H727     1.0000 0.78710  0.30900  0.56020  Biso   1.000  H
  C772     1.0000 0.78832  0.27898  0.59104  Biso   1.000  C
  H728     1.0000 0.77080  0.27260  0.58210  Biso   1.000  H
  C773     1.0000 0.78370  0.28210  0.62115  Biso   1.000  C
  H729     1.0000 0.77790  0.26350  0.62800  Biso   1.000  H
  C774     1.0000 0.80870  0.29020  0.63820  Biso   1.000  C
  H730     1.0000 0.82450  0.27860  0.63310  Biso   1.000  H
  H731     1.0000 0.80460  0.28760  0.65780  Biso   1.000  H
  H732     1.0000 0.81320  0.30960  0.63480  Biso   1.000  H
  C775     1.0000 0.75920  0.30220  0.62790  Biso   1.000  C
  H733     1.0000 0.75640  0.30290  0.64790  Biso   1.000  H
  H734     1.0000 0.74240  0.29550  0.61900  Biso   1.000  H
  H735     1.0000 0.76360  0.32070  0.62100  Biso   1.000  H
  N116     1.0000 0.78120  0.15922  0.54232  Biso   1.000  N
  C776     1.0000 0.75820  0.14360  0.54710  Biso   1.000  C
  O271     1.0000 0.74550  0.14180  0.56790  Biso   1.000  O
  O272     1.0000 0.74830  0.13180  0.52370  Biso   1.000  O
  C777     1.0000 0.76310  0.14270  0.50200  Biso   1.000  C
  H736     1.0000 0.75110  0.15540  0.49140  Biso   1.000  H
  H737     1.0000 0.76870  0.12760  0.48950  Biso   1.000  H
  C778     1.0000 0.78990  0.15910  0.51200  Biso   1.000  C
  H738     1.0000 0.78820  0.17840  0.50500  Biso   1.000  H
  O273     1.0000 0.80439  0.29806  0.49732  Biso   1.000  O
  N117     1.0000 0.83334  0.34152  0.49546  Biso   1.000  N
  C779     1.0000 0.80454  0.32302  0.49546  Biso   1.000  C
  H739     1.0000 0.82850  0.29610  0.49830  Biso   1.000  H
  C780     1.0000 0.82396  0.37123  0.49158  Biso   1.000  C
  H740     1.0000 0.82990  0.38460  0.50580  Biso   1.000  H
  H741     1.0000 0.80470  0.37400  0.48520  Biso   1.000  H
  C781     1.0000 0.77786  0.72495  0.03864  Biso   1.000  C
  O274     1.0000 0.78903  0.74700  0.02950  Biso   1.000  O
  O275     1.0000 0.75556  0.71412  0.03030  Biso   1.000  O
  C782     1.0000 0.79286  0.71072  0.06257  Biso   1.000  C
  C783     1.0000 0.80749  0.72619  0.08295  Biso   1.000  C
  C784     1.0000 0.81979  0.71312  0.10532  Biso   1.000  C
  H742     1.0000 0.82920  0.72380  0.11870  Biso   1.000  H
  C785     1.0000 0.81849  0.68376  0.10839  Biso   1.000  C
  C786     1.0000 0.80387  0.66837  0.08822  Biso   1.000  C
  H743     1.0000 0.80280  0.64890  0.08990  Biso   1.000  H
  C787     1.0000 0.79099  0.68129  0.06584  Biso   1.000  C
  C788     1.0000 0.85513  0.68096  0.14626  Biso   1.000  C
  H744     1.0000 0.86340  0.69700  0.13870  Biso   1.000  H
  C789     1.0000 0.83126  0.66971  0.13346  Biso   1.000  C
  N118     1.0000 0.81096  0.75857  0.08494  Biso   1.000  N
  C790     1.0000 0.83350  0.77140  0.07210  Biso   1.000  C
  O276     1.0000 0.85440  0.76050  0.06320  Biso   1.000  O
  O277     1.0000 0.82810  0.79856  0.06875  Biso   1.000  O
  C791     1.0000 0.79830  0.80500  0.07680  Biso   1.000  C
  H745     1.0000 0.79750  0.82100  0.08940  Biso   1.000  H
  H746     1.0000 0.78710  0.80900  0.06020  Biso   1.000  H
  C792     1.0000 0.78832  0.77898  0.09104  Biso   1.000  C
  H747     1.0000 0.77080  0.77260  0.08210  Biso   1.000  H
  C793     1.0000 0.78370  0.78210  0.12115  Biso   1.000  C
  H748     1.0000 0.77790  0.76350  0.12800  Biso   1.000  H
  C794     1.0000 0.80870  0.79020  0.13820  Biso   1.000  C
  H749     1.0000 0.82450  0.77860  0.13310  Biso   1.000  H
  H750     1.0000 0.80460  0.78760  0.15780  Biso   1.000  H
  H751     1.0000 0.81320  0.80960  0.13480  Biso   1.000  H
  C795     1.0000 0.75920  0.80220  0.12790  Biso   1.000  C
  H752     1.0000 0.75640  0.80290  0.14790  Biso   1.000  H
  H753     1.0000 0.74240  0.79550  0.11900  Biso   1.000  H
  H754     1.0000 0.76360  0.82070  0.12100  Biso   1.000  H
  N119     1.0000 0.78120  0.65922  0.04232  Biso   1.000  N
  C796     1.0000 0.75820  0.64360  0.04710  Biso   1.000  C
  O278     1.0000 0.74550  0.64180  0.06790  Biso   1.000  O
  O279     1.0000 0.74830  0.63180  0.02370  Biso   1.000  O
  C797     1.0000 0.76310  0.64270  0.00200  Biso   1.000  C
  H755     1.0000 0.75110  0.65540  0.99140  Biso   1.000  H
  H756     1.0000 0.76870  0.62760  0.98950  Biso   1.000  H
  C798     1.0000 0.78990  0.65910  0.01200  Biso   1.000  C
  H757     1.0000 0.78820  0.67840  0.00500  Biso   1.000  H
  O280     1.0000 0.80439  0.79806  0.99732  Biso   1.000  O
  N120     1.0000 0.83334  0.84152  0.99546  Biso   1.000  N
  C799     1.0000 0.80454  0.82302  0.99546  Biso   1.000  C
  H758     1.0000 0.82850  0.79610  0.99830  Biso   1.000  H
  C800     1.0000 0.82396  0.87123  0.99158  Biso   1.000  C
  H759     1.0000 0.82990  0.88460  0.00580  Biso   1.000  H
  H760     1.0000 0.80470  0.87400  0.98520  Biso   1.000  H
  C801     1.0000 0.72214  0.77505  0.03864  Biso   1.000  C
  O281     1.0000 0.71097  0.75300  0.02950  Biso   1.000  O
  O282     1.0000 0.74444  0.78588  0.03030  Biso   1.000  O
  C802     1.0000 0.70714  0.78928  0.06257  Biso   1.000  C
  C803     1.0000 0.69251  0.77381  0.08295  Biso   1.000  C
  C804     1.0000 0.68021  0.78688  0.10532  Biso   1.000  C
  H761     1.0000 0.67080  0.77620  0.11870  Biso   1.000  H
  C805     1.0000 0.68151  0.81624  0.10839  Biso   1.000  C
  C806     1.0000 0.69613  0.83163  0.08822  Biso   1.000  C
  H762     1.0000 0.69720  0.85110  0.08990  Biso   1.000  H
  C807     1.0000 0.70901  0.81871  0.06584  Biso   1.000  C
  C808     1.0000 0.64487  0.81904  0.14626  Biso   1.000  C
  H763     1.0000 0.63660  0.80300  0.13870  Biso   1.000  H
  C809     1.0000 0.66874  0.83029  0.13346  Biso   1.000  C
  N121     1.0000 0.68904  0.74143  0.08494  Biso   1.000  N
  C810     1.0000 0.66650  0.72860  0.07210  Biso   1.000  C
  O283     1.0000 0.64560  0.73950  0.06320  Biso   1.000  O
  O284     1.0000 0.67190  0.70144  0.06875  Biso   1.000  O
  C811     1.0000 0.70170  0.69500  0.07680  Biso   1.000  C
  H764     1.0000 0.70250  0.67900  0.08940  Biso   1.000  H
  H765     1.0000 0.71290  0.69100  0.06020  Biso   1.000  H
  C812     1.0000 0.71168  0.72102  0.09104  Biso   1.000  C
  H766     1.0000 0.72920  0.72740  0.08210  Biso   1.000  H
  C813     1.0000 0.71630  0.71790  0.12115  Biso   1.000  C
  H767     1.0000 0.72210  0.73650  0.12800  Biso   1.000  H
  C814     1.0000 0.69130  0.70980  0.13820  Biso   1.000  C
  H768     1.0000 0.67550  0.72140  0.13310  Biso   1.000  H
  H769     1.0000 0.69540  0.71240  0.15780  Biso   1.000  H
  H770     1.0000 0.68680  0.69040  0.13480  Biso   1.000  H
  C815     1.0000 0.74080  0.69780  0.12790  Biso   1.000  C
  H771     1.0000 0.74360  0.69710  0.14790  Biso   1.000  H
  H772     1.0000 0.75760  0.70450  0.11900  Biso   1.000  H
  H773     1.0000 0.73640  0.67930  0.12100  Biso   1.000  H
  N122     1.0000 0.71880  0.84078  0.04232  Biso   1.000  N
  C816     1.0000 0.74180  0.85640  0.04710  Biso   1.000  C
  O285     1.0000 0.75450  0.85820  0.06790  Biso   1.000  O
  O286     1.0000 0.75170  0.86820  0.02370  Biso   1.000  O
  C817     1.0000 0.73690  0.85730  0.00200  Biso   1.000  C
  H774     1.0000 0.74890  0.84460  0.99140  Biso   1.000  H
  H775     1.0000 0.73130  0.87240  0.98950  Biso   1.000  H
  C818     1.0000 0.71010  0.84090  0.01200  Biso   1.000  C
  H776     1.0000 0.71180  0.82160  0.00500  Biso   1.000  H
  O287     1.0000 0.69561  0.70194  0.99732  Biso   1.000  O
  N123     1.0000 0.66666  0.65848  0.99546  Biso   1.000  N
  C819     1.0000 0.69546  0.67698  0.99546  Biso   1.000  C
  H777     1.0000 0.67150  0.70390  0.99830  Biso   1.000  H
  C820     1.0000 0.67604  0.62877  0.99158  Biso   1.000  C
  H778     1.0000 0.67010  0.61540  0.00580  Biso   1.000  H
  H779     1.0000 0.69530  0.62600  0.98520  Biso   1.000  H
  C821     1.0000 0.72214  0.27505  0.53864  Biso   1.000  C
  O288     1.0000 0.71097  0.25300  0.52950  Biso   1.000  O
  O289     1.0000 0.74444  0.28588  0.53030  Biso   1.000  O
  C822     1.0000 0.70714  0.28928  0.56257  Biso   1.000  C
  C823     1.0000 0.69251  0.27381  0.58295  Biso   1.000  C
  C824     1.0000 0.68021  0.28688  0.60532  Biso   1.000  C
  H780     1.0000 0.67080  0.27620  0.61870  Biso   1.000  H
  C825     1.0000 0.68151  0.31624  0.60839  Biso   1.000  C
  C826     1.0000 0.69613  0.33163  0.58822  Biso   1.000  C
  H781     1.0000 0.69720  0.35110  0.58990  Biso   1.000  H
  C827     1.0000 0.70901  0.31871  0.56584  Biso   1.000  C
  C828     1.0000 0.64487  0.31904  0.64626  Biso   1.000  C
  H782     1.0000 0.63660  0.30300  0.63870  Biso   1.000  H
  C829     1.0000 0.66874  0.33029  0.63346  Biso   1.000  C
  N124     1.0000 0.68904  0.24143  0.58494  Biso   1.000  N
  C830     1.0000 0.66650  0.22860  0.57210  Biso   1.000  C
  O290     1.0000 0.64560  0.23950  0.56320  Biso   1.000  O
  O291     1.0000 0.67190  0.20144  0.56875  Biso   1.000  O
  C831     1.0000 0.70170  0.19500  0.57680  Biso   1.000  C
  H783     1.0000 0.70250  0.17900  0.58940  Biso   1.000  H
  H784     1.0000 0.71290  0.19100  0.56020  Biso   1.000  H
  C832     1.0000 0.71168  0.22102  0.59104  Biso   1.000  C
  H785     1.0000 0.72920  0.22740  0.58210  Biso   1.000  H
  C833     1.0000 0.71630  0.21790  0.62115  Biso   1.000  C
  H786     1.0000 0.72210  0.23650  0.62800  Biso   1.000  H
  C834     1.0000 0.69130  0.20980  0.63820  Biso   1.000  C
  H787     1.0000 0.67550  0.22140  0.63310  Biso   1.000  H
  H788     1.0000 0.69540  0.21240  0.65780  Biso   1.000  H
  H789     1.0000 0.68680  0.19040  0.63480  Biso   1.000  H
  C835     1.0000 0.74080  0.19780  0.62790  Biso   1.000  C
  H790     1.0000 0.74360  0.19710  0.64790  Biso   1.000  H
  H791     1.0000 0.75760  0.20450  0.61900  Biso   1.000  H
  H792     1.0000 0.73640  0.17930  0.62100  Biso   1.000  H
  N125     1.0000 0.71880  0.34078  0.54232  Biso   1.000  N
  C836     1.0000 0.74180  0.35640  0.54710  Biso   1.000  C
  O292     1.0000 0.75450  0.35820  0.56790  Biso   1.000  O
  O293     1.0000 0.75170  0.36820  0.52370  Biso   1.000  O
  C837     1.0000 0.73690  0.35730  0.50200  Biso   1.000  C
  H793     1.0000 0.74890  0.34460  0.49140  Biso   1.000  H
  H794     1.0000 0.73130  0.37240  0.48950  Biso   1.000  H
  C838     1.0000 0.71010  0.34090  0.51200  Biso   1.000  C
  H795     1.0000 0.71180  0.32160  0.50500  Biso   1.000  H
  O294     1.0000 0.69561  0.20194  0.49732  Biso   1.000  O
  N126     1.0000 0.66666  0.15848  0.49546  Biso   1.000  N
  C839     1.0000 0.69546  0.17698  0.49546  Biso   1.000  C
  H796     1.0000 0.67150  0.20390  0.49830  Biso   1.000  H
  C840     1.0000 0.67604  0.12877  0.49158  Biso   1.000  C
  H797     1.0000 0.67010  0.11540  0.50580  Biso   1.000  H
  H798     1.0000 0.69530  0.12600  0.48520  Biso   1.000  H
  C841     1.0000 0.22214  0.77505  0.53864  Biso   1.000  C
  O295     1.0000 0.21097  0.75300  0.52950  Biso   1.000  O
  O296     1.0000 0.24444  0.78588  0.53030  Biso   1.000  O
  C842     1.0000 0.20714  0.78928  0.56257  Biso   1.000  C
  C843     1.0000 0.19251  0.77381  0.58295  Biso   1.000  C
  C844     1.0000 0.18021  0.78688  0.60532  Biso   1.000  C
  H799     1.0000 0.17080  0.77620  0.61870  Biso   1.000  H
  C845     1.0000 0.18151  0.81624  0.60839  Biso   1.000  C
  C846     1.0000 0.19613  0.83163  0.58822  Biso   1.000  C
  H800     1.0000 0.19720  0.85110  0.58990  Biso   1.000  H
  C847     1.0000 0.20901  0.81871  0.56584  Biso   1.000  C
  C848     1.0000 0.14487  0.81904  0.64626  Biso   1.000  C
  H801     1.0000 0.13660  0.80300  0.63870  Biso   1.000  H
  C849     1.0000 0.16874  0.83029  0.63346  Biso   1.000  C
  N127     1.0000 0.18904  0.74143  0.58494  Biso   1.000  N
  C850     1.0000 0.16650  0.72860  0.57210  Biso   1.000  C
  O297     1.0000 0.14560  0.73950  0.56320  Biso   1.000  O
  O298     1.0000 0.17190  0.70144  0.56875  Biso   1.000  O
  C851     1.0000 0.20170  0.69500  0.57680  Biso   1.000  C
  H802     1.0000 0.20250  0.67900  0.58940  Biso   1.000  H
  H803     1.0000 0.21290  0.69100  0.56020  Biso   1.000  H
  C852     1.0000 0.21168  0.72102  0.59104  Biso   1.000  C
  H804     1.0000 0.22920  0.72740  0.58210  Biso   1.000  H
  C853     1.0000 0.21630  0.71790  0.62115  Biso   1.000  C
  H805     1.0000 0.22210  0.73650  0.62800  Biso   1.000  H
  C854     1.0000 0.19130  0.70980  0.63820  Biso   1.000  C
  H806     1.0000 0.17550  0.72140  0.63310  Biso   1.000  H
  H807     1.0000 0.19540  0.71240  0.65780  Biso   1.000  H
  H808     1.0000 0.18680  0.69040  0.63480  Biso   1.000  H
  C855     1.0000 0.24080  0.69780  0.62790  Biso   1.000  C
  H809     1.0000 0.24360  0.69710  0.64790  Biso   1.000  H
  H810     1.0000 0.25760  0.70450  0.61900  Biso   1.000  H
  H811     1.0000 0.23640  0.67930  0.62100  Biso   1.000  H
  N128     1.0000 0.21880  0.84078  0.54232  Biso   1.000  N
  C856     1.0000 0.24180  0.85640  0.54710  Biso   1.000  C
  O299     1.0000 0.25450  0.85820  0.56790  Biso   1.000  O
  O300     1.0000 0.25170  0.86820  0.52370  Biso   1.000  O
  C857     1.0000 0.23690  0.85730  0.50200  Biso   1.000  C
  H812     1.0000 0.24890  0.84460  0.49140  Biso   1.000  H
  H813     1.0000 0.23130  0.87240  0.48950  Biso   1.000  H
  C858     1.0000 0.21010  0.84090  0.51200  Biso   1.000  C
  H814     1.0000 0.21180  0.82160  0.50500  Biso   1.000  H
  O301     1.0000 0.19561  0.70194  0.49732  Biso   1.000  O
  N129     1.0000 0.16666  0.65848  0.49546  Biso   1.000  N
  C859     1.0000 0.19546  0.67698  0.49546  Biso   1.000  C
  H815     1.0000 0.17150  0.70390  0.49830  Biso   1.000  H
  C860     1.0000 0.17604  0.62877  0.49158  Biso   1.000  C
  H816     1.0000 0.17010  0.61540  0.50580  Biso   1.000  H
  H817     1.0000 0.19530  0.62600  0.48520  Biso   1.000  H
  C861     1.0000 0.22214  0.27505  0.03864  Biso   1.000  C
  O302     1.0000 0.21097  0.25300  0.02950  Biso   1.000  O
  O303     1.0000 0.24444  0.28588  0.03030  Biso   1.000  O
  C862     1.0000 0.20714  0.28928  0.06257  Biso   1.000  C
  C863     1.0000 0.19251  0.27381  0.08295  Biso   1.000  C
  C864     1.0000 0.18021  0.28688  0.10532  Biso   1.000  C
  H818     1.0000 0.17080  0.27620  0.11870  Biso   1.000  H
  C865     1.0000 0.18151  0.31624  0.10839  Biso   1.000  C
  C866     1.0000 0.19613  0.33163  0.08822  Biso   1.000  C
  H819     1.0000 0.19720  0.35110  0.08990  Biso   1.000  H
  C867     1.0000 0.20901  0.31871  0.06584  Biso   1.000  C
  C868     1.0000 0.14487  0.31904  0.14626  Biso   1.000  C
  H820     1.0000 0.13660  0.30300  0.13870  Biso   1.000  H
  C869     1.0000 0.16874  0.33029  0.13346  Biso   1.000  C
  N130     1.0000 0.18904  0.24143  0.08494  Biso   1.000  N
  C870     1.0000 0.16650  0.22860  0.07210  Biso   1.000  C
  O304     1.0000 0.14560  0.23950  0.06320  Biso   1.000  O
  O305     1.0000 0.17190  0.20144  0.06875  Biso   1.000  O
  C871     1.0000 0.20170  0.19500  0.07680  Biso   1.000  C
  H821     1.0000 0.20250  0.17900  0.08940  Biso   1.000  H
  H822     1.0000 0.21290  0.19100  0.06020  Biso   1.000  H
  C872     1.0000 0.21168  0.22102  0.09104  Biso   1.000  C
  H823     1.0000 0.22920  0.22740  0.08210  Biso   1.000  H
  C873     1.0000 0.21630  0.21790  0.12115  Biso   1.000  C
  H824     1.0000 0.22210  0.23650  0.12800  Biso   1.000  H
  C874     1.0000 0.19130  0.20980  0.13820  Biso   1.000  C
  H825     1.0000 0.17550  0.22140  0.13310  Biso   1.000  H
  H826     1.0000 0.19540  0.21240  0.15780  Biso   1.000  H
  H827     1.0000 0.18680  0.19040  0.13480  Biso   1.000  H
  C875     1.0000 0.24080  0.19780  0.12790  Biso   1.000  C
  H828     1.0000 0.24360  0.19710  0.14790  Biso   1.000  H
  H829     1.0000 0.25760  0.20450  0.11900  Biso   1.000  H
  H830     1.0000 0.23640  0.17930  0.12100  Biso   1.000  H
  N131     1.0000 0.21880  0.34078  0.04232  Biso   1.000  N
  C876     1.0000 0.24180  0.35640  0.04710  Biso   1.000  C
  O306     1.0000 0.25450  0.35820  0.06790  Biso   1.000  O
  O307     1.0000 0.25170  0.36820  0.02370  Biso   1.000  O
  C877     1.0000 0.23690  0.35730  0.00200  Biso   1.000  C
  H831     1.0000 0.24890  0.34460  0.99140  Biso   1.000  H
  H832     1.0000 0.23130  0.37240  0.98950  Biso   1.000  H
  C878     1.0000 0.21010  0.34090  0.01200  Biso   1.000  C
  H833     1.0000 0.21180  0.32160  0.00500  Biso   1.000  H
  O308     1.0000 0.19561  0.20194  0.99732  Biso   1.000  O
  N132     1.0000 0.16666  0.15848  0.99546  Biso   1.000  N
  C879     1.0000 0.19546  0.17698  0.99546  Biso   1.000  C
  H834     1.0000 0.17150  0.20390  0.99830  Biso   1.000  H
  C880     1.0000 0.17604  0.12877  0.99158  Biso   1.000  C
  H835     1.0000 0.17010  0.11540  0.00580  Biso   1.000  H
  H836     1.0000 0.19530  0.12600  0.98520  Biso   1.000  H
  C881     1.0000 0.27786  0.77505  0.96136  Biso   1.000  C
  O309     1.0000 0.28903  0.75300  0.97050  Biso   1.000  O
  O310     1.0000 0.25556  0.78588  0.96970  Biso   1.000  O
  C882     1.0000 0.29286  0.78928  0.93743  Biso   1.000  C
  C883     1.0000 0.30749  0.77381  0.91705  Biso   1.000  C
  C884     1.0000 0.31979  0.78688  0.89468  Biso   1.000  C
  H837     1.0000 0.32920  0.77620  0.88130  Biso   1.000  H
  C885     1.0000 0.31849  0.81624  0.89161  Biso   1.000  C
  C886     1.0000 0.30387  0.83163  0.91178  Biso   1.000  C
  H838     1.0000 0.30280  0.85110  0.91010  Biso   1.000  H
  C887     1.0000 0.29099  0.81871  0.93416  Biso   1.000  C
  C888     1.0000 0.35513  0.81904  0.85374  Biso   1.000  C
  H839     1.0000 0.36340  0.80300  0.86130  Biso   1.000  H
  C889     1.0000 0.33126  0.83029  0.86654  Biso   1.000  C
  N133     1.0000 0.31096  0.74143  0.91506  Biso   1.000  N
  C890     1.0000 0.33350  0.72860  0.92790  Biso   1.000  C
  O311     1.0000 0.35440  0.73950  0.93680  Biso   1.000  O
  O312     1.0000 0.32810  0.70144  0.93125  Biso   1.000  O
  C891     1.0000 0.29830  0.69500  0.92320  Biso   1.000  C
  H840     1.0000 0.29750  0.67900  0.91060  Biso   1.000  H
  H841     1.0000 0.28710  0.69100  0.93980  Biso   1.000  H
  C892     1.0000 0.28832  0.72102  0.90896  Biso   1.000  C
  H842     1.0000 0.27080  0.72740  0.91790  Biso   1.000  H
  C893     1.0000 0.28370  0.71790  0.87885  Biso   1.000  C
  H843     1.0000 0.27790  0.73650  0.87200  Biso   1.000  H
  C894     1.0000 0.30870  0.70980  0.86180  Biso   1.000  C
  H844     1.0000 0.32450  0.72140  0.86690  Biso   1.000  H
  H845     1.0000 0.30460  0.71240  0.84220  Biso   1.000  H
  H846     1.0000 0.31320  0.69040  0.86520  Biso   1.000  H
  C895     1.0000 0.25920  0.69780  0.87210  Biso   1.000  C
  H847     1.0000 0.25640  0.69710  0.85210  Biso   1.000  H
  H848     1.0000 0.24240  0.70450  0.88100  Biso   1.000  H
  H849     1.0000 0.26360  0.67930  0.87900  Biso   1.000  H
  N134     1.0000 0.28120  0.84078  0.95768  Biso   1.000  N
  C896     1.0000 0.25820  0.85640  0.95290  Biso   1.000  C
  O313     1.0000 0.24550  0.85820  0.93210  Biso   1.000  O
  O314     1.0000 0.24830  0.86820  0.97630  Biso   1.000  O
  C897     1.0000 0.26310  0.85730  0.99800  Biso   1.000  C
  H850     1.0000 0.25110  0.84460  0.00860  Biso   1.000  H
  H851     1.0000 0.26870  0.87240  0.01050  Biso   1.000  H
  C898     1.0000 0.28990  0.84090  0.98800  Biso   1.000  C
  H852     1.0000 0.28820  0.82160  0.99500  Biso   1.000  H
  O315     1.0000 0.30439  0.70194  0.00268  Biso   1.000  O
  N135     1.0000 0.33334  0.65848  0.00454  Biso   1.000  N
  C899     1.0000 0.30454  0.67698  0.00454  Biso   1.000  C
  H853     1.0000 0.32850  0.70390  0.00170  Biso   1.000  H
  C900     1.0000 0.32396  0.62877  0.00842  Biso   1.000  C
  H854     1.0000 0.32990  0.61540  0.99420  Biso   1.000  H
  H855     1.0000 0.30470  0.62600  0.01480  Biso   1.000  H
  C901     1.0000 0.27786  0.27505  0.46136  Biso   1.000  C
  O316     1.0000 0.28903  0.25300  0.47050  Biso   1.000  O
  O317     1.0000 0.25556  0.28588  0.46970  Biso   1.000  O
  C902     1.0000 0.29286  0.28928  0.43743  Biso   1.000  C
  C903     1.0000 0.30749  0.27381  0.41705  Biso   1.000  C
  C904     1.0000 0.31979  0.28688  0.39468  Biso   1.000  C
  H856     1.0000 0.32920  0.27620  0.38130  Biso   1.000  H
  C905     1.0000 0.31849  0.31624  0.39161  Biso   1.000  C
  C906     1.0000 0.30387  0.33163  0.41178  Biso   1.000  C
  H857     1.0000 0.30280  0.35110  0.41010  Biso   1.000  H
  C907     1.0000 0.29099  0.31871  0.43416  Biso   1.000  C
  C908     1.0000 0.35513  0.31904  0.35374  Biso   1.000  C
  H858     1.0000 0.36340  0.30300  0.36130  Biso   1.000  H
  C909     1.0000 0.33126  0.33029  0.36654  Biso   1.000  C
  N136     1.0000 0.31096  0.24143  0.41506  Biso   1.000  N
  C910     1.0000 0.33350  0.22860  0.42790  Biso   1.000  C
  O318     1.0000 0.35440  0.23950  0.43680  Biso   1.000  O
  O319     1.0000 0.32810  0.20144  0.43125  Biso   1.000  O
  C911     1.0000 0.29830  0.19500  0.42320  Biso   1.000  C
  H859     1.0000 0.29750  0.17900  0.41060  Biso   1.000  H
  H860     1.0000 0.28710  0.19100  0.43980  Biso   1.000  H
  C912     1.0000 0.28832  0.22102  0.40896  Biso   1.000  C
  H861     1.0000 0.27080  0.22740  0.41790  Biso   1.000  H
  C913     1.0000 0.28370  0.21790  0.37885  Biso   1.000  C
  H862     1.0000 0.27790  0.23650  0.37200  Biso   1.000  H
  C914     1.0000 0.30870  0.20980  0.36180  Biso   1.000  C
  H863     1.0000 0.32450  0.22140  0.36690  Biso   1.000  H
  H864     1.0000 0.30460  0.21240  0.34220  Biso   1.000  H
  H865     1.0000 0.31320  0.19040  0.36520  Biso   1.000  H
  C915     1.0000 0.25920  0.19780  0.37210  Biso   1.000  C
  H866     1.0000 0.25640  0.19710  0.35210  Biso   1.000  H
  H867     1.0000 0.24240  0.20450  0.38100  Biso   1.000  H
  H868     1.0000 0.26360  0.17930  0.37900  Biso   1.000  H
  N137     1.0000 0.28120  0.34078  0.45768  Biso   1.000  N
  C916     1.0000 0.25820  0.35640  0.45290  Biso   1.000  C
  O320     1.0000 0.24550  0.35820  0.43210  Biso   1.000  O
  O321     1.0000 0.24830  0.36820  0.47630  Biso   1.000  O
  C917     1.0000 0.26310  0.35730  0.49800  Biso   1.000  C
  H869     1.0000 0.25110  0.34460  0.50860  Biso   1.000  H
  H870     1.0000 0.26870  0.37240  0.51050  Biso   1.000  H
  C918     1.0000 0.28990  0.34090  0.48800  Biso   1.000  C
  H871     1.0000 0.28820  0.32160  0.49500  Biso   1.000  H
  O322     1.0000 0.30439  0.20194  0.50268  Biso   1.000  O
  N138     1.0000 0.33334  0.15848  0.50454  Biso   1.000  N
  C919     1.0000 0.30454  0.17698  0.50454  Biso   1.000  C
  H872     1.0000 0.32850  0.20390  0.50170  Biso   1.000  H
  C920     1.0000 0.32396  0.12877  0.50842  Biso   1.000  C
  H873     1.0000 0.32990  0.11540  0.49420  Biso   1.000  H
  H874     1.0000 0.30470  0.12600  0.51480  Biso   1.000  H
  C921     1.0000 0.77786  0.77505  0.46136  Biso   1.000  C
  O323     1.0000 0.78903  0.75300  0.47050  Biso   1.000  O
  O324     1.0000 0.75556  0.78588  0.46970  Biso   1.000  O
  C922     1.0000 0.79286  0.78928  0.43743  Biso   1.000  C
  C923     1.0000 0.80749  0.77381  0.41705  Biso   1.000  C
  C924     1.0000 0.81979  0.78688  0.39468  Biso   1.000  C
  H875     1.0000 0.82920  0.77620  0.38130  Biso   1.000  H
  C925     1.0000 0.81849  0.81624  0.39161  Biso   1.000  C
  C926     1.0000 0.80387  0.83163  0.41178  Biso   1.000  C
  H876     1.0000 0.80280  0.85110  0.41010  Biso   1.000  H
  C927     1.0000 0.79099  0.81871  0.43416  Biso   1.000  C
  C928     1.0000 0.85513  0.81904  0.35374  Biso   1.000  C
  H877     1.0000 0.86340  0.80300  0.36130  Biso   1.000  H
  C929     1.0000 0.83126  0.83029  0.36654  Biso   1.000  C
  N139     1.0000 0.81096  0.74143  0.41506  Biso   1.000  N
  C930     1.0000 0.83350  0.72860  0.42790  Biso   1.000  C
  O325     1.0000 0.85440  0.73950  0.43680  Biso   1.000  O
  O326     1.0000 0.82810  0.70144  0.43125  Biso   1.000  O
  C931     1.0000 0.79830  0.69500  0.42320  Biso   1.000  C
  H878     1.0000 0.79750  0.67900  0.41060  Biso   1.000  H
  H879     1.0000 0.78710  0.69100  0.43980  Biso   1.000  H
  C932     1.0000 0.78832  0.72102  0.40896  Biso   1.000  C
  H880     1.0000 0.77080  0.72740  0.41790  Biso   1.000  H
  C933     1.0000 0.78370  0.71790  0.37885  Biso   1.000  C
  H881     1.0000 0.77790  0.73650  0.37200  Biso   1.000  H
  C934     1.0000 0.80870  0.70980  0.36180  Biso   1.000  C
  H882     1.0000 0.82450  0.72140  0.36690  Biso   1.000  H
  H883     1.0000 0.80460  0.71240  0.34220  Biso   1.000  H
  H884     1.0000 0.81320  0.69040  0.36520  Biso   1.000  H
  C935     1.0000 0.75920  0.69780  0.37210  Biso   1.000  C
  H885     1.0000 0.75640  0.69710  0.35210  Biso   1.000  H
  H886     1.0000 0.74240  0.70450  0.38100  Biso   1.000  H
  H887     1.0000 0.76360  0.67930  0.37900  Biso   1.000  H
  N140     1.0000 0.78120  0.84078  0.45768  Biso   1.000  N
  C936     1.0000 0.75820  0.85640  0.45290  Biso   1.000  C
  O327     1.0000 0.74550  0.85820  0.43210  Biso   1.000  O
  O328     1.0000 0.74830  0.86820  0.47630  Biso   1.000  O
  C937     1.0000 0.76310  0.85730  0.49800  Biso   1.000  C
  H888     1.0000 0.75110  0.84460  0.50860  Biso   1.000  H
  H889     1.0000 0.76870  0.87240  0.51050  Biso   1.000  H
  C938     1.0000 0.78990  0.84090  0.48800  Biso   1.000  C
  H890     1.0000 0.78820  0.82160  0.49500  Biso   1.000  H
  O329     1.0000 0.80439  0.70194  0.50268  Biso   1.000  O
  N141     1.0000 0.83334  0.65848  0.50454  Biso   1.000  N
  C939     1.0000 0.80454  0.67698  0.50454  Biso   1.000  C
  H891     1.0000 0.82850  0.70390  0.50170  Biso   1.000  H
  C940     1.0000 0.82396  0.62877  0.50842  Biso   1.000  C
  H892     1.0000 0.82990  0.61540  0.49420  Biso   1.000  H
  H893     1.0000 0.80470  0.62600  0.51480  Biso   1.000  H
  C941     1.0000 0.77786  0.27505  0.96136  Biso   1.000  C
  O330     1.0000 0.78903  0.25300  0.97050  Biso   1.000  O
  O331     1.0000 0.75556  0.28588  0.96970  Biso   1.000  O
  C942     1.0000 0.79286  0.28928  0.93743  Biso   1.000  C
  C943     1.0000 0.80749  0.27381  0.91705  Biso   1.000  C
  C944     1.0000 0.81979  0.28688  0.89468  Biso   1.000  C
  H894     1.0000 0.82920  0.27620  0.88130  Biso   1.000  H
  C945     1.0000 0.81849  0.31624  0.89161  Biso   1.000  C
  C946     1.0000 0.80387  0.33163  0.91178  Biso   1.000  C
  H895     1.0000 0.80280  0.35110  0.91010  Biso   1.000  H
  C947     1.0000 0.79099  0.31871  0.93416  Biso   1.000  C
  C948     1.0000 0.85513  0.31904  0.85374  Biso   1.000  C
  H896     1.0000 0.86340  0.30300  0.86130  Biso   1.000  H
  C949     1.0000 0.83126  0.33029  0.86654  Biso   1.000  C
  N142     1.0000 0.81096  0.24143  0.91506  Biso   1.000  N
  C950     1.0000 0.83350  0.22860  0.92790  Biso   1.000  C
  O332     1.0000 0.85440  0.23950  0.93680  Biso   1.000  O
  O333     1.0000 0.82810  0.20144  0.93125  Biso   1.000  O
  C951     1.0000 0.79830  0.19500  0.92320  Biso   1.000  C
  H897     1.0000 0.79750  0.17900  0.91060  Biso   1.000  H
  H898     1.0000 0.78710  0.19100  0.93980  Biso   1.000  H
  C952     1.0000 0.78832  0.22102  0.90896  Biso   1.000  C
  H899     1.0000 0.77080  0.22740  0.91790  Biso   1.000  H
  C953     1.0000 0.78370  0.21790  0.87885  Biso   1.000  C
  H900     1.0000 0.77790  0.23650  0.87200  Biso   1.000  H
  C954     1.0000 0.80870  0.20980  0.86180  Biso   1.000  C
  H901     1.0000 0.82450  0.22140  0.86690  Biso   1.000  H
  H902     1.0000 0.80460  0.21240  0.84220  Biso   1.000  H
  H903     1.0000 0.81320  0.19040  0.86520  Biso   1.000  H
  C955     1.0000 0.75920  0.19780  0.87210  Biso   1.000  C
  H904     1.0000 0.75640  0.19710  0.85210  Biso   1.000  H
  H905     1.0000 0.74240  0.20450  0.88100  Biso   1.000  H
  H906     1.0000 0.76360  0.17930  0.87900  Biso   1.000  H
  N143     1.0000 0.78120  0.34078  0.95768  Biso   1.000  N
  C956     1.0000 0.75820  0.35640  0.95290  Biso   1.000  C
  O334     1.0000 0.74550  0.35820  0.93210  Biso   1.000  O
  O335     1.0000 0.74830  0.36820  0.97630  Biso   1.000  O
  C957     1.0000 0.76310  0.35730  0.99800  Biso   1.000  C
  H907     1.0000 0.75110  0.34460  0.00860  Biso   1.000  H
  H908     1.0000 0.76870  0.37240  0.01050  Biso   1.000  H
  C958     1.0000 0.78990  0.34090  0.98800  Biso   1.000  C
  H909     1.0000 0.78820  0.32160  0.99500  Biso   1.000  H
  O336     1.0000 0.80439  0.20194  0.00268  Biso   1.000  O
  N144     1.0000 0.83334  0.15848  0.00454  Biso   1.000  N
  C959     1.0000 0.80454  0.17698  0.00454  Biso   1.000  C
  H910     1.0000 0.82850  0.20390  0.00170  Biso   1.000  H
  C960     1.0000 0.82396  0.12877  0.00842  Biso   1.000  C
  H911     1.0000 0.82990  0.11540  0.99420  Biso   1.000  H
  H912     1.0000 0.80470  0.12600  0.01480  Biso   1.000  H
  C961     1.0000 0.72214  0.96136  0.77505  Biso   1.000  C
  O337     1.0000 0.71097  0.97050  0.75300  Biso   1.000  O
  O338     1.0000 0.74444  0.96970  0.78588  Biso   1.000  O
  C962     1.0000 0.70714  0.93743  0.78928  Biso   1.000  C
  C963     1.0000 0.69251  0.91705  0.77381  Biso   1.000  C
  C964     1.0000 0.68021  0.89468  0.78688  Biso   1.000  C
  H913     1.0000 0.67080  0.88130  0.77620  Biso   1.000  H
  C965     1.0000 0.68151  0.89161  0.81624  Biso   1.000  C
  C966     1.0000 0.69613  0.91178  0.83163  Biso   1.000  C
  H914     1.0000 0.69720  0.91010  0.85110  Biso   1.000  H
  C967     1.0000 0.70901  0.93416  0.81871  Biso   1.000  C
  C968     1.0000 0.64487  0.85374  0.81904  Biso   1.000  C
  H915     1.0000 0.63660  0.86130  0.80300  Biso   1.000  H
  C969     1.0000 0.66874  0.86654  0.83029  Biso   1.000  C
  N145     1.0000 0.68904  0.91506  0.74143  Biso   1.000  N
  C970     1.0000 0.66650  0.92790  0.72860  Biso   1.000  C
  O339     1.0000 0.64560  0.93680  0.73950  Biso   1.000  O
  O340     1.0000 0.67190  0.93125  0.70144  Biso   1.000  O
  C971     1.0000 0.70170  0.92320  0.69500  Biso   1.000  C
  H916     1.0000 0.70250  0.91060  0.67900  Biso   1.000  H
  H917     1.0000 0.71290  0.93980  0.69100  Biso   1.000  H
  C972     1.0000 0.71168  0.90896  0.72102  Biso   1.000  C
  H918     1.0000 0.72920  0.91790  0.72740  Biso   1.000  H
  C973     1.0000 0.71630  0.87885  0.71790  Biso   1.000  C
  H919     1.0000 0.72210  0.87200  0.73650  Biso   1.000  H
  C974     1.0000 0.69130  0.86180  0.70980  Biso   1.000  C
  H920     1.0000 0.67550  0.86690  0.72140  Biso   1.000  H
  H921     1.0000 0.69540  0.84220  0.71240  Biso   1.000  H
  H922     1.0000 0.68680  0.86520  0.69040  Biso   1.000  H
  C975     1.0000 0.74080  0.87210  0.69780  Biso   1.000  C
  H923     1.0000 0.74360  0.85210  0.69710  Biso   1.000  H
  H924     1.0000 0.75760  0.88100  0.70450  Biso   1.000  H
  H925     1.0000 0.73640  0.87900  0.67930  Biso   1.000  H
  N146     1.0000 0.71880  0.95768  0.84078  Biso   1.000  N
  C976     1.0000 0.74180  0.95290  0.85640  Biso   1.000  C
  O341     1.0000 0.75450  0.93210  0.85820  Biso   1.000  O
  O342     1.0000 0.75170  0.97630  0.86820  Biso   1.000  O
  C977     1.0000 0.73690  0.99800  0.85730  Biso   1.000  C
  H926     1.0000 0.74890  0.00860  0.84460  Biso   1.000  H
  H927     1.0000 0.73130  0.01050  0.87240  Biso   1.000  H
  C978     1.0000 0.71010  0.98800  0.84090  Biso   1.000  C
  H928     1.0000 0.71180  0.99500  0.82160  Biso   1.000  H
  O343     1.0000 0.69561  0.00268  0.70194  Biso   1.000  O
  N147     1.0000 0.66666  0.00454  0.65848  Biso   1.000  N
  C979     1.0000 0.69546  0.00454  0.67698  Biso   1.000  C
  H929     1.0000 0.67150  0.00170  0.70390  Biso   1.000  H
  C980     1.0000 0.67604  0.00842  0.62877  Biso   1.000  C
  H930     1.0000 0.67010  0.99420  0.61540  Biso   1.000  H
  H931     1.0000 0.69530  0.01480  0.62600  Biso   1.000  H
  C981     1.0000 0.72214  0.46136  0.27505  Biso   1.000  C
  O344     1.0000 0.71097  0.47050  0.25300  Biso   1.000  O
  O345     1.0000 0.74444  0.46970  0.28588  Biso   1.000  O
  C982     1.0000 0.70714  0.43743  0.28928  Biso   1.000  C
  C983     1.0000 0.69251  0.41705  0.27381  Biso   1.000  C
  C984     1.0000 0.68021  0.39468  0.28688  Biso   1.000  C
  H932     1.0000 0.67080  0.38130  0.27620  Biso   1.000  H
  C985     1.0000 0.68151  0.39161  0.31624  Biso   1.000  C
  C986     1.0000 0.69613  0.41178  0.33163  Biso   1.000  C
  H933     1.0000 0.69720  0.41010  0.35110  Biso   1.000  H
  C987     1.0000 0.70901  0.43416  0.31871  Biso   1.000  C
  C988     1.0000 0.64487  0.35374  0.31904  Biso   1.000  C
  H934     1.0000 0.63660  0.36130  0.30300  Biso   1.000  H
  C989     1.0000 0.66874  0.36654  0.33029  Biso   1.000  C
  N148     1.0000 0.68904  0.41506  0.24143  Biso   1.000  N
  C990     1.0000 0.66650  0.42790  0.22860  Biso   1.000  C
  O346     1.0000 0.64560  0.43680  0.23950  Biso   1.000  O
  O347     1.0000 0.67190  0.43125  0.20144  Biso   1.000  O
  C991     1.0000 0.70170  0.42320  0.19500  Biso   1.000  C
  H935     1.0000 0.70250  0.41060  0.17900  Biso   1.000  H
  H936     1.0000 0.71290  0.43980  0.19100  Biso   1.000  H
  C992     1.0000 0.71168  0.40896  0.22102  Biso   1.000  C
  H937     1.0000 0.72920  0.41790  0.22740  Biso   1.000  H
  C993     1.0000 0.71630  0.37885  0.21790  Biso   1.000  C
  H938     1.0000 0.72210  0.37200  0.23650  Biso   1.000  H
  C994     1.0000 0.69130  0.36180  0.20980  Biso   1.000  C
  H939     1.0000 0.67550  0.36690  0.22140  Biso   1.000  H
  H940     1.0000 0.69540  0.34220  0.21240  Biso   1.000  H
  H941     1.0000 0.68680  0.36520  0.19040  Biso   1.000  H
  C995     1.0000 0.74080  0.37210  0.19780  Biso   1.000  C
  H942     1.0000 0.74360  0.35210  0.19710  Biso   1.000  H
  H943     1.0000 0.75760  0.38100  0.20450  Biso   1.000  H
  H944     1.0000 0.73640  0.37900  0.17930  Biso   1.000  H
  N149     1.0000 0.71880  0.45768  0.34078  Biso   1.000  N
  C996     1.0000 0.74180  0.45290  0.35640  Biso   1.000  C
  O348     1.0000 0.75450  0.43210  0.35820  Biso   1.000  O
  O349     1.0000 0.75170  0.47630  0.36820  Biso   1.000  O
  C997     1.0000 0.73690  0.49800  0.35730  Biso   1.000  C
  H945     1.0000 0.74890  0.50860  0.34460  Biso   1.000  H
  H946     1.0000 0.73130  0.51050  0.37240  Biso   1.000  H
  C998     1.0000 0.71010  0.48800  0.34090  Biso   1.000  C
  H947     1.0000 0.71180  0.49500  0.32160  Biso   1.000  H
  O350     1.0000 0.69561  0.50268  0.20194  Biso   1.000  O
  N150     1.0000 0.66666  0.50454  0.15848  Biso   1.000  N
  C999     1.0000 0.69546  0.50454  0.17698  Biso   1.000  C
  H948     1.0000 0.67150  0.50170  0.20390  Biso   1.000  H
  C1000    1.0000 0.67604  0.50842  0.12877  Biso   1.000  C
  H949     1.0000 0.67010  0.49420  0.11540  Biso   1.000  H
  H950     1.0000 0.69530  0.51480  0.12600  Biso   1.000  H
  C1001    1.0000 0.22214  0.96136  0.27505  Biso   1.000  C
  O351     1.0000 0.21097  0.97050  0.25300  Biso   1.000  O
  O352     1.0000 0.24444  0.96970  0.28588  Biso   1.000  O
  C1002    1.0000 0.20714  0.93743  0.28928  Biso   1.000  C
  C1003    1.0000 0.19251  0.91705  0.27381  Biso   1.000  C
  C1004    1.0000 0.18021  0.89468  0.28688  Biso   1.000  C
  H951     1.0000 0.17080  0.88130  0.27620  Biso   1.000  H
  C1005    1.0000 0.18151  0.89161  0.31624  Biso   1.000  C
  C1006    1.0000 0.19613  0.91178  0.33163  Biso   1.000  C
  H952     1.0000 0.19720  0.91010  0.35110  Biso   1.000  H
  C1007    1.0000 0.20901  0.93416  0.31871  Biso   1.000  C
  C1008    1.0000 0.14487  0.85374  0.31904  Biso   1.000  C
  H953     1.0000 0.13660  0.86130  0.30300  Biso   1.000  H
  C1009    1.0000 0.16874  0.86654  0.33029  Biso   1.000  C
  N151     1.0000 0.18904  0.91506  0.24143  Biso   1.000  N
  C1010    1.0000 0.16650  0.92790  0.22860  Biso   1.000  C
  O353     1.0000 0.14560  0.93680  0.23950  Biso   1.000  O
  O354     1.0000 0.17190  0.93125  0.20144  Biso   1.000  O
  C1011    1.0000 0.20170  0.92320  0.19500  Biso   1.000  C
  H954     1.0000 0.20250  0.91060  0.17900  Biso   1.000  H
  H955     1.0000 0.21290  0.93980  0.19100  Biso   1.000  H
  C1012    1.0000 0.21168  0.90896  0.22102  Biso   1.000  C
  H956     1.0000 0.22920  0.91790  0.22740  Biso   1.000  H
  C1013    1.0000 0.21630  0.87885  0.21790  Biso   1.000  C
  H957     1.0000 0.22210  0.87200  0.23650  Biso   1.000  H
  C1014    1.0000 0.19130  0.86180  0.20980  Biso   1.000  C
  H958     1.0000 0.17550  0.86690  0.22140  Biso   1.000  H
  H959     1.0000 0.19540  0.84220  0.21240  Biso   1.000  H
  H960     1.0000 0.18680  0.86520  0.19040  Biso   1.000  H
  C1015    1.0000 0.24080  0.87210  0.19780  Biso   1.000  C
  H961     1.0000 0.24360  0.85210  0.19710  Biso   1.000  H
  H962     1.0000 0.25760  0.88100  0.20450  Biso   1.000  H
  H963     1.0000 0.23640  0.87900  0.17930  Biso   1.000  H
  N152     1.0000 0.21880  0.95768  0.34078  Biso   1.000  N
  C1016    1.0000 0.24180  0.95290  0.35640  Biso   1.000  C
  O355     1.0000 0.25450  0.93210  0.35820  Biso   1.000  O
  O356     1.0000 0.25170  0.97630  0.36820  Biso   1.000  O
  C1017    1.0000 0.23690  0.99800  0.35730  Biso   1.000  C
  H964     1.0000 0.24890  0.00860  0.34460  Biso   1.000  H
  H965     1.0000 0.23130  0.01050  0.37240  Biso   1.000  H
  C1018    1.0000 0.21010  0.98800  0.34090  Biso   1.000  C
  H966     1.0000 0.21180  0.99500  0.32160  Biso   1.000  H
  O357     1.0000 0.19561  0.00268  0.20194  Biso   1.000  O
  N153     1.0000 0.16666  0.00454  0.15848  Biso   1.000  N
  C1019    1.0000 0.19546  0.00454  0.17698  Biso   1.000  C
  H967     1.0000 0.17150  0.00170  0.20390  Biso   1.000  H
  C1020    1.0000 0.17604  0.00842  0.12877  Biso   1.000  C
  H968     1.0000 0.17010  0.99420  0.11540  Biso   1.000  H
  H969     1.0000 0.19530  0.01480  0.12600  Biso   1.000  H
  C1021    1.0000 0.22214  0.46136  0.77505  Biso   1.000  C
  O358     1.0000 0.21097  0.47050  0.75300  Biso   1.000  O
  O359     1.0000 0.24444  0.46970  0.78588  Biso   1.000  O
  C1022    1.0000 0.20714  0.43743  0.78928  Biso   1.000  C
  C1023    1.0000 0.19251  0.41705  0.77381  Biso   1.000  C
  C1024    1.0000 0.18021  0.39468  0.78688  Biso   1.000  C
  H970     1.0000 0.17080  0.38130  0.77620  Biso   1.000  H
  C1025    1.0000 0.18151  0.39161  0.81624  Biso   1.000  C
  C1026    1.0000 0.19613  0.41178  0.83163  Biso   1.000  C
  H971     1.0000 0.19720  0.41010  0.85110  Biso   1.000  H
  C1027    1.0000 0.20901  0.43416  0.81871  Biso   1.000  C
  C1028    1.0000 0.14487  0.35374  0.81904  Biso   1.000  C
  H972     1.0000 0.13660  0.36130  0.80300  Biso   1.000  H
  C1029    1.0000 0.16874  0.36654  0.83029  Biso   1.000  C
  N154     1.0000 0.18904  0.41506  0.74143  Biso   1.000  N
  C1030    1.0000 0.16650  0.42790  0.72860  Biso   1.000  C
  O360     1.0000 0.14560  0.43680  0.73950  Biso   1.000  O
  O361     1.0000 0.17190  0.43125  0.70144  Biso   1.000  O
  C1031    1.0000 0.20170  0.42320  0.69500  Biso   1.000  C
  H973     1.0000 0.20250  0.41060  0.67900  Biso   1.000  H
  H974     1.0000 0.21290  0.43980  0.69100  Biso   1.000  H
  C1032    1.0000 0.21168  0.40896  0.72102  Biso   1.000  C
  H975     1.0000 0.22920  0.41790  0.72740  Biso   1.000  H
  C1033    1.0000 0.21630  0.37885  0.71790  Biso   1.000  C
  H976     1.0000 0.22210  0.37200  0.73650  Biso   1.000  H
  C1034    1.0000 0.19130  0.36180  0.70980  Biso   1.000  C
  H977     1.0000 0.17550  0.36690  0.72140  Biso   1.000  H
  H978     1.0000 0.19540  0.34220  0.71240  Biso   1.000  H
  H979     1.0000 0.18680  0.36520  0.69040  Biso   1.000  H
  C1035    1.0000 0.24080  0.37210  0.69780  Biso   1.000  C
  H980     1.0000 0.24360  0.35210  0.69710  Biso   1.000  H
  H981     1.0000 0.25760  0.38100  0.70450  Biso   1.000  H
  H982     1.0000 0.23640  0.37900  0.67930  Biso   1.000  H
  N155     1.0000 0.21880  0.45768  0.84078  Biso   1.000  N
  C1036    1.0000 0.24180  0.45290  0.85640  Biso   1.000  C
  O362     1.0000 0.25450  0.43210  0.85820  Biso   1.000  O
  O363     1.0000 0.25170  0.47630  0.86820  Biso   1.000  O
  C1037    1.0000 0.23690  0.49800  0.85730  Biso   1.000  C
  H983     1.0000 0.24890  0.50860  0.84460  Biso   1.000  H
  H984     1.0000 0.23130  0.51050  0.87240  Biso   1.000  H
  C1038    1.0000 0.21010  0.48800  0.84090  Biso   1.000  C
  H985     1.0000 0.21180  0.49500  0.82160  Biso   1.000  H
  O364     1.0000 0.19561  0.50268  0.70194  Biso   1.000  O
  N156     1.0000 0.16666  0.50454  0.65848  Biso   1.000  N
  C1039    1.0000 0.19546  0.50454  0.67698  Biso   1.000  C
  H986     1.0000 0.17150  0.50170  0.70390  Biso   1.000  H
  C1040    1.0000 0.17604  0.50842  0.62877  Biso   1.000  C
  H987     1.0000 0.17010  0.49420  0.61540  Biso   1.000  H
  H988     1.0000 0.19530  0.51480  0.62600  Biso   1.000  H
  C1041    1.0000 0.27786  0.03864  0.77505  Biso   1.000  C
  O365     1.0000 0.28903  0.02950  0.75300  Biso   1.000  O
  O366     1.0000 0.25556  0.03030  0.78588  Biso   1.000  O
  C1042    1.0000 0.29286  0.06257  0.78928  Biso   1.000  C
  C1043    1.0000 0.30749  0.08295  0.77381  Biso   1.000  C
  C1044    1.0000 0.31979  0.10532  0.78688  Biso   1.000  C
  H989     1.0000 0.32920  0.11870  0.77620  Biso   1.000  H
  C1045    1.0000 0.31849  0.10839  0.81624  Biso   1.000  C
  C1046    1.0000 0.30387  0.08822  0.83163  Biso   1.000  C
  H990     1.0000 0.30280  0.08990  0.85110  Biso   1.000  H
  C1047    1.0000 0.29099  0.06584  0.81871  Biso   1.000  C
  C1048    1.0000 0.35513  0.14626  0.81904  Biso   1.000  C
  H991     1.0000 0.36340  0.13870  0.80300  Biso   1.000  H
  C1049    1.0000 0.33126  0.13346  0.83029  Biso   1.000  C
  N157     1.0000 0.31096  0.08494  0.74143  Biso   1.000  N
  C1050    1.0000 0.33350  0.07210  0.72860  Biso   1.000  C
  O367     1.0000 0.35440  0.06320  0.73950  Biso   1.000  O
  O368     1.0000 0.32810  0.06875  0.70144  Biso   1.000  O
  C1051    1.0000 0.29830  0.07680  0.69500  Biso   1.000  C
  H992     1.0000 0.29750  0.08940  0.67900  Biso   1.000  H
  H993     1.0000 0.28710  0.06020  0.69100  Biso   1.000  H
  C1052    1.0000 0.28832  0.09104  0.72102  Biso   1.000  C
  H994     1.0000 0.27080  0.08210  0.72740  Biso   1.000  H
  C1053    1.0000 0.28370  0.12115  0.71790  Biso   1.000  C
  H995     1.0000 0.27790  0.12800  0.73650  Biso   1.000  H
  C1054    1.0000 0.30870  0.13820  0.70980  Biso   1.000  C
  H996     1.0000 0.32450  0.13310  0.72140  Biso   1.000  H
  H997     1.0000 0.30460  0.15780  0.71240  Biso   1.000  H
  H998     1.0000 0.31320  0.13480  0.69040  Biso   1.000  H
  C1055    1.0000 0.25920  0.12790  0.69780  Biso   1.000  C
  H999     1.0000 0.25640  0.14790  0.69710  Biso   1.000  H
  H1000    1.0000 0.24240  0.11900  0.70450  Biso   1.000  H
  H1001    1.0000 0.26360  0.12100  0.67930  Biso   1.000  H
  N158     1.0000 0.28120  0.04232  0.84078  Biso   1.000  N
  C1056    1.0000 0.25820  0.04710  0.85640  Biso   1.000  C
  O369     1.0000 0.24550  0.06790  0.85820  Biso   1.000  O
  O370     1.0000 0.24830  0.02370  0.86820  Biso   1.000  O
  C1057    1.0000 0.26310  0.00200  0.85730  Biso   1.000  C
  H1002    1.0000 0.25110  0.99140  0.84460  Biso   1.000  H
  H1003    1.0000 0.26870  0.98950  0.87240  Biso   1.000  H
  C1058    1.0000 0.28990  0.01200  0.84090  Biso   1.000  C
  H1004    1.0000 0.28820  0.00500  0.82160  Biso   1.000  H
  O371     1.0000 0.30439  0.99732  0.70194  Biso   1.000  O
  N159     1.0000 0.33334  0.99546  0.65848  Biso   1.000  N
  C1059    1.0000 0.30454  0.99546  0.67698  Biso   1.000  C
  H1005    1.0000 0.32850  0.99830  0.70390  Biso   1.000  H
  C1060    1.0000 0.32396  0.99158  0.62877  Biso   1.000  C
  H1006    1.0000 0.32990  0.00580  0.61540  Biso   1.000  H
  H1007    1.0000 0.30470  0.98520  0.62600  Biso   1.000  H
  C1061    1.0000 0.27786  0.53864  0.27505  Biso   1.000  C
  O372     1.0000 0.28903  0.52950  0.25300  Biso   1.000  O
  O373     1.0000 0.25556  0.53030  0.28588  Biso   1.000  O
  C1062    1.0000 0.29286  0.56257  0.28928  Biso   1.000  C
  C1063    1.0000 0.30749  0.58295  0.27381  Biso   1.000  C
  C1064    1.0000 0.31979  0.60532  0.28688  Biso   1.000  C
  H1008    1.0000 0.32920  0.61870  0.27620  Biso   1.000  H
  C1065    1.0000 0.31849  0.60839  0.31624  Biso   1.000  C
  C1066    1.0000 0.30387  0.58822  0.33163  Biso   1.000  C
  H1009    1.0000 0.30280  0.58990  0.35110  Biso   1.000  H
  C1067    1.0000 0.29099  0.56584  0.31871  Biso   1.000  C
  C1068    1.0000 0.35513  0.64626  0.31904  Biso   1.000  C
  H1010    1.0000 0.36340  0.63870  0.30300  Biso   1.000  H
  C1069    1.0000 0.33126  0.63346  0.33029  Biso   1.000  C
  N160     1.0000 0.31096  0.58494  0.24143  Biso   1.000  N
  C1070    1.0000 0.33350  0.57210  0.22860  Biso   1.000  C
  O374     1.0000 0.35440  0.56320  0.23950  Biso   1.000  O
  O375     1.0000 0.32810  0.56875  0.20144  Biso   1.000  O
  C1071    1.0000 0.29830  0.57680  0.19500  Biso   1.000  C
  H1011    1.0000 0.29750  0.58940  0.17900  Biso   1.000  H
  H1012    1.0000 0.28710  0.56020  0.19100  Biso   1.000  H
  C1072    1.0000 0.28832  0.59104  0.22102  Biso   1.000  C
  H1013    1.0000 0.27080  0.58210  0.22740  Biso   1.000  H
  C1073    1.0000 0.28370  0.62115  0.21790  Biso   1.000  C
  H1014    1.0000 0.27790  0.62800  0.23650  Biso   1.000  H
  C1074    1.0000 0.30870  0.63820  0.20980  Biso   1.000  C
  H1015    1.0000 0.32450  0.63310  0.22140  Biso   1.000  H
  H1016    1.0000 0.30460  0.65780  0.21240  Biso   1.000  H
  H1017    1.0000 0.31320  0.63480  0.19040  Biso   1.000  H
  C1075    1.0000 0.25920  0.62790  0.19780  Biso   1.000  C
  H1018    1.0000 0.25640  0.64790  0.19710  Biso   1.000  H
  H1019    1.0000 0.24240  0.61900  0.20450  Biso   1.000  H
  H1020    1.0000 0.26360  0.62100  0.17930  Biso   1.000  H
  N161     1.0000 0.28120  0.54232  0.34078  Biso   1.000  N
  C1076    1.0000 0.25820  0.54710  0.35640  Biso   1.000  C
  O376     1.0000 0.24550  0.56790  0.35820  Biso   1.000  O
  O377     1.0000 0.24830  0.52370  0.36820  Biso   1.000  O
  C1077    1.0000 0.26310  0.50200  0.35730  Biso   1.000  C
  H1021    1.0000 0.25110  0.49140  0.34460  Biso   1.000  H
  H1022    1.0000 0.26870  0.48950  0.37240  Biso   1.000  H
  C1078    1.0000 0.28990  0.51200  0.34090  Biso   1.000  C
  H1023    1.0000 0.28820  0.50500  0.32160  Biso   1.000  H
  O378     1.0000 0.30439  0.49732  0.20194  Biso   1.000  O
  N162     1.0000 0.33334  0.49546  0.15848  Biso   1.000  N
  C1079    1.0000 0.30454  0.49546  0.17698  Biso   1.000  C
  H1024    1.0000 0.32850  0.49830  0.20390  Biso   1.000  H
  C1080    1.0000 0.32396  0.49158  0.12877  Biso   1.000  C
  H1025    1.0000 0.32990  0.50580  0.11540  Biso   1.000  H
  H1026    1.0000 0.30470  0.48520  0.12600  Biso   1.000  H
  C1081    1.0000 0.77786  0.03864  0.27505  Biso   1.000  C
  O379     1.0000 0.78903  0.02950  0.25300  Biso   1.000  O
  O380     1.0000 0.75556  0.03030  0.28588  Biso   1.000  O
  C1082    1.0000 0.79286  0.06257  0.28928  Biso   1.000  C
  C1083    1.0000 0.80749  0.08295  0.27381  Biso   1.000  C
  C1084    1.0000 0.81979  0.10532  0.28688  Biso   1.000  C
  H1027    1.0000 0.82920  0.11870  0.27620  Biso   1.000  H
  C1085    1.0000 0.81849  0.10839  0.31624  Biso   1.000  C
  C1086    1.0000 0.80387  0.08822  0.33163  Biso   1.000  C
  H1028    1.0000 0.80280  0.08990  0.35110  Biso   1.000  H
  C1087    1.0000 0.79099  0.06584  0.31871  Biso   1.000  C
  C1088    1.0000 0.85513  0.14626  0.31904  Biso   1.000  C
  H1029    1.0000 0.86340  0.13870  0.30300  Biso   1.000  H
  C1089    1.0000 0.83126  0.13346  0.33029  Biso   1.000  C
  N163     1.0000 0.81096  0.08494  0.24143  Biso   1.000  N
  C1090    1.0000 0.83350  0.07210  0.22860  Biso   1.000  C
  O381     1.0000 0.85440  0.06320  0.23950  Biso   1.000  O
  O382     1.0000 0.82810  0.06875  0.20144  Biso   1.000  O
  C1091    1.0000 0.79830  0.07680  0.19500  Biso   1.000  C
  H1030    1.0000 0.79750  0.08940  0.17900  Biso   1.000  H
  H1031    1.0000 0.78710  0.06020  0.19100  Biso   1.000  H
  C1092    1.0000 0.78832  0.09104  0.22102  Biso   1.000  C
  H1032    1.0000 0.77080  0.08210  0.22740  Biso   1.000  H
  C1093    1.0000 0.78370  0.12115  0.21790  Biso   1.000  C
  H1033    1.0000 0.77790  0.12800  0.23650  Biso   1.000  H
  C1094    1.0000 0.80870  0.13820  0.20980  Biso   1.000  C
  H1034    1.0000 0.82450  0.13310  0.22140  Biso   1.000  H
  H1035    1.0000 0.80460  0.15780  0.21240  Biso   1.000  H
  H1036    1.0000 0.81320  0.13480  0.19040  Biso   1.000  H
  C1095    1.0000 0.75920  0.12790  0.19780  Biso   1.000  C
  H1037    1.0000 0.75640  0.14790  0.19710  Biso   1.000  H
  H1038    1.0000 0.74240  0.11900  0.20450  Biso   1.000  H
  H1039    1.0000 0.76360  0.12100  0.17930  Biso   1.000  H
  N164     1.0000 0.78120  0.04232  0.34078  Biso   1.000  N
  C1096    1.0000 0.75820  0.04710  0.35640  Biso   1.000  C
  O383     1.0000 0.74550  0.06790  0.35820  Biso   1.000  O
  O384     1.0000 0.74830  0.02370  0.36820  Biso   1.000  O
  C1097    1.0000 0.76310  0.00200  0.35730  Biso   1.000  C
  H1040    1.0000 0.75110  0.99140  0.34460  Biso   1.000  H
  H1041    1.0000 0.76870  0.98950  0.37240  Biso   1.000  H
  C1098    1.0000 0.78990  0.01200  0.34090  Biso   1.000  C
  H1042    1.0000 0.78820  0.00500  0.32160  Biso   1.000  H
  O385     1.0000 0.80439  0.99732  0.20194  Biso   1.000  O
  N165     1.0000 0.83334  0.99546  0.15848  Biso   1.000  N
  C1099    1.0000 0.80454  0.99546  0.17698  Biso   1.000  C
  H1043    1.0000 0.82850  0.99830  0.20390  Biso   1.000  H
  C1100    1.0000 0.82396  0.99158  0.12877  Biso   1.000  C
  H1044    1.0000 0.82990  0.00580  0.11540  Biso   1.000  H
  H1045    1.0000 0.80470  0.98520  0.12600  Biso   1.000  H
  C1101    1.0000 0.77786  0.53864  0.77505  Biso   1.000  C
  O386     1.0000 0.78903  0.52950  0.75300  Biso   1.000  O
  O387     1.0000 0.75556  0.53030  0.78588  Biso   1.000  O
  C1102    1.0000 0.79286  0.56257  0.78928  Biso   1.000  C
  C1103    1.0000 0.80749  0.58295  0.77381  Biso   1.000  C
  C1104    1.0000 0.81979  0.60532  0.78688  Biso   1.000  C
  H1046    1.0000 0.82920  0.61870  0.77620  Biso   1.000  H
  C1105    1.0000 0.81849  0.60839  0.81624  Biso   1.000  C
  C1106    1.0000 0.80387  0.58822  0.83163  Biso   1.000  C
  H1047    1.0000 0.80280  0.58990  0.85110  Biso   1.000  H
  C1107    1.0000 0.79099  0.56584  0.81871  Biso   1.000  C
  C1108    1.0000 0.85513  0.64626  0.81904  Biso   1.000  C
  H1048    1.0000 0.86340  0.63870  0.80300  Biso   1.000  H
  C1109    1.0000 0.83126  0.63346  0.83029  Biso   1.000  C
  N166     1.0000 0.81096  0.58494  0.74143  Biso   1.000  N
  C1110    1.0000 0.83350  0.57210  0.72860  Biso   1.000  C
  O388     1.0000 0.85440  0.56320  0.73950  Biso   1.000  O
  O389     1.0000 0.82810  0.56875  0.70144  Biso   1.000  O
  C1111    1.0000 0.79830  0.57680  0.69500  Biso   1.000  C
  H1049    1.0000 0.79750  0.58940  0.67900  Biso   1.000  H
  H1050    1.0000 0.78710  0.56020  0.69100  Biso   1.000  H
  C1112    1.0000 0.78832  0.59104  0.72102  Biso   1.000  C
  H1051    1.0000 0.77080  0.58210  0.72740  Biso   1.000  H
  C1113    1.0000 0.78370  0.62115  0.71790  Biso   1.000  C
  H1052    1.0000 0.77790  0.62800  0.73650  Biso   1.000  H
  C1114    1.0000 0.80870  0.63820  0.70980  Biso   1.000  C
  H1053    1.0000 0.82450  0.63310  0.72140  Biso   1.000  H
  H1054    1.0000 0.80460  0.65780  0.71240  Biso   1.000  H
  H1055    1.0000 0.81320  0.63480  0.69040  Biso   1.000  H
  C1115    1.0000 0.75920  0.62790  0.69780  Biso   1.000  C
  H1056    1.0000 0.75640  0.64790  0.69710  Biso   1.000  H
  H1057    1.0000 0.74240  0.61900  0.70450  Biso   1.000  H
  H1058    1.0000 0.76360  0.62100  0.67930  Biso   1.000  H
  N167     1.0000 0.78120  0.54232  0.84078  Biso   1.000  N
  C1116    1.0000 0.75820  0.54710  0.85640  Biso   1.000  C
  O390     1.0000 0.74550  0.56790  0.85820  Biso   1.000  O
  O391     1.0000 0.74830  0.52370  0.86820  Biso   1.000  O
  C1117    1.0000 0.76310  0.50200  0.85730  Biso   1.000  C
  H1059    1.0000 0.75110  0.49140  0.84460  Biso   1.000  H
  H1060    1.0000 0.76870  0.48950  0.87240  Biso   1.000  H
  C1118    1.0000 0.78990  0.51200  0.84090  Biso   1.000  C
  H1061    1.0000 0.78820  0.50500  0.82160  Biso   1.000  H
  O392     1.0000 0.80439  0.49732  0.70194  Biso   1.000  O
  N168     1.0000 0.83334  0.49546  0.65848  Biso   1.000  N
  C1119    1.0000 0.80454  0.49546  0.67698  Biso   1.000  C
  H1062    1.0000 0.82850  0.49830  0.70390  Biso   1.000  H
  C1120    1.0000 0.82396  0.49158  0.62877  Biso   1.000  C
  H1063    1.0000 0.82990  0.50580  0.61540  Biso   1.000  H
  H1064    1.0000 0.80470  0.48520  0.62600  Biso   1.000  H
  C1121    1.0000 0.72214  0.03864  0.22495  Biso   1.000  C
  O393     1.0000 0.71097  0.02950  0.24700  Biso   1.000  O
  O394     1.0000 0.74444  0.03030  0.21412  Biso   1.000  O
  C1122    1.0000 0.70714  0.06257  0.21072  Biso   1.000  C
  C1123    1.0000 0.69251  0.08295  0.22619  Biso   1.000  C
  C1124    1.0000 0.68021  0.10532  0.21312  Biso   1.000  C
  H1065    1.0000 0.67080  0.11870  0.22380  Biso   1.000  H
  C1125    1.0000 0.68151  0.10839  0.18376  Biso   1.000  C
  C1126    1.0000 0.69613  0.08822  0.16837  Biso   1.000  C
  H1066    1.0000 0.69720  0.08990  0.14890  Biso   1.000  H
  C1127    1.0000 0.70901  0.06584  0.18129  Biso   1.000  C
  C1128    1.0000 0.64487  0.14626  0.18096  Biso   1.000  C
  H1067    1.0000 0.63660  0.13870  0.19700  Biso   1.000  H
  C1129    1.0000 0.66874  0.13346  0.16971  Biso   1.000  C
  N169     1.0000 0.68904  0.08494  0.25857  Biso   1.000  N
  C1130    1.0000 0.66650  0.07210  0.27140  Biso   1.000  C
  O395     1.0000 0.64560  0.06320  0.26050  Biso   1.000  O
  O396     1.0000 0.67190  0.06875  0.29856  Biso   1.000  O
  C1131    1.0000 0.70170  0.07680  0.30500  Biso   1.000  C
  H1068    1.0000 0.70250  0.08940  0.32100  Biso   1.000  H
  H1069    1.0000 0.71290  0.06020  0.30900  Biso   1.000  H
  C1132    1.0000 0.71168  0.09104  0.27898  Biso   1.000  C
  H1070    1.0000 0.72920  0.08210  0.27260  Biso   1.000  H
  C1133    1.0000 0.71630  0.12115  0.28210  Biso   1.000  C
  H1071    1.0000 0.72210  0.12800  0.26350  Biso   1.000  H
  C1134    1.0000 0.69130  0.13820  0.29020  Biso   1.000  C
  H1072    1.0000 0.67550  0.13310  0.27860  Biso   1.000  H
  H1073    1.0000 0.69540  0.15780  0.28760  Biso   1.000  H
  H1074    1.0000 0.68680  0.13480  0.30960  Biso   1.000  H
  C1135    1.0000 0.74080  0.12790  0.30220  Biso   1.000  C
  H1075    1.0000 0.74360  0.14790  0.30290  Biso   1.000  H
  H1076    1.0000 0.75760  0.11900  0.29550  Biso   1.000  H
  H1077    1.0000 0.73640  0.12100  0.32070  Biso   1.000  H
  N170     1.0000 0.71880  0.04232  0.15922  Biso   1.000  N
  C1136    1.0000 0.74180  0.04710  0.14360  Biso   1.000  C
  O397     1.0000 0.75450  0.06790  0.14180  Biso   1.000  O
  O398     1.0000 0.75170  0.02370  0.13180  Biso   1.000  O
  C1137    1.0000 0.73690  0.00200  0.14270  Biso   1.000  C
  H1078    1.0000 0.74890  0.99140  0.15540  Biso   1.000  H
  H1079    1.0000 0.73130  0.98950  0.12760  Biso   1.000  H
  C1138    1.0000 0.71010  0.01200  0.15910  Biso   1.000  C
  H1080    1.0000 0.71180  0.00500  0.17840  Biso   1.000  H
  O399     1.0000 0.69561  0.99732  0.29806  Biso   1.000  O
  N171     1.0000 0.66666  0.99546  0.34152  Biso   1.000  N
  C1139    1.0000 0.69546  0.99546  0.32302  Biso   1.000  C
  H1081    1.0000 0.67150  0.99830  0.29610  Biso   1.000  H
  C1140    1.0000 0.67604  0.99158  0.37123  Biso   1.000  C
  H1082    1.0000 0.67010  0.00580  0.38460  Biso   1.000  H
  H1083    1.0000 0.69530  0.98520  0.37400  Biso   1.000  H
  C1141    1.0000 0.72214  0.53864  0.72495  Biso   1.000  C
  O400     1.0000 0.71097  0.52950  0.74700  Biso   1.000  O
  O401     1.0000 0.74444  0.53030  0.71412  Biso   1.000  O
  C1142    1.0000 0.70714  0.56257  0.71072  Biso   1.000  C
  C1143    1.0000 0.69251  0.58295  0.72619  Biso   1.000  C
  C1144    1.0000 0.68021  0.60532  0.71312  Biso   1.000  C
  H1084    1.0000 0.67080  0.61870  0.72380  Biso   1.000  H
  C1145    1.0000 0.68151  0.60839  0.68376  Biso   1.000  C
  C1146    1.0000 0.69613  0.58822  0.66837  Biso   1.000  C
  H1085    1.0000 0.69720  0.58990  0.64890  Biso   1.000  H
  C1147    1.0000 0.70901  0.56584  0.68129  Biso   1.000  C
  C1148    1.0000 0.64487  0.64626  0.68096  Biso   1.000  C
  H1086    1.0000 0.63660  0.63870  0.69700  Biso   1.000  H
  C1149    1.0000 0.66874  0.63346  0.66971  Biso   1.000  C
  N172     1.0000 0.68904  0.58494  0.75857  Biso   1.000  N
  C1150    1.0000 0.66650  0.57210  0.77140  Biso   1.000  C
  O402     1.0000 0.64560  0.56320  0.76050  Biso   1.000  O
  O403     1.0000 0.67190  0.56875  0.79856  Biso   1.000  O
  C1151    1.0000 0.70170  0.57680  0.80500  Biso   1.000  C
  H1087    1.0000 0.70250  0.58940  0.82100  Biso   1.000  H
  H1088    1.0000 0.71290  0.56020  0.80900  Biso   1.000  H
  C1152    1.0000 0.71168  0.59104  0.77898  Biso   1.000  C
  H1089    1.0000 0.72920  0.58210  0.77260  Biso   1.000  H
  C1153    1.0000 0.71630  0.62115  0.78210  Biso   1.000  C
  H1090    1.0000 0.72210  0.62800  0.76350  Biso   1.000  H
  C1154    1.0000 0.69130  0.63820  0.79020  Biso   1.000  C
  H1091    1.0000 0.67550  0.63310  0.77860  Biso   1.000  H
  H1092    1.0000 0.69540  0.65780  0.78760  Biso   1.000  H
  H1093    1.0000 0.68680  0.63480  0.80960  Biso   1.000  H
  C1155    1.0000 0.74080  0.62790  0.80220  Biso   1.000  C
  H1094    1.0000 0.74360  0.64790  0.80290  Biso   1.000  H
  H1095    1.0000 0.75760  0.61900  0.79550  Biso   1.000  H
  H1096    1.0000 0.73640  0.62100  0.82070  Biso   1.000  H
  N173     1.0000 0.71880  0.54232  0.65922  Biso   1.000  N
  C1156    1.0000 0.74180  0.54710  0.64360  Biso   1.000  C
  O404     1.0000 0.75450  0.56790  0.64180  Biso   1.000  O
  O405     1.0000 0.75170  0.52370  0.63180  Biso   1.000  O
  C1157    1.0000 0.73690  0.50200  0.64270  Biso   1.000  C
  H1097    1.0000 0.74890  0.49140  0.65540  Biso   1.000  H
  H1098    1.0000 0.73130  0.48950  0.62760  Biso   1.000  H
  C1158    1.0000 0.71010  0.51200  0.65910  Biso   1.000  C
  H1099    1.0000 0.71180  0.50500  0.67840  Biso   1.000  H
  O406     1.0000 0.69561  0.49732  0.79806  Biso   1.000  O
  N174     1.0000 0.66666  0.49546  0.84152  Biso   1.000  N
  C1159    1.0000 0.69546  0.49546  0.82302  Biso   1.000  C
  H1100    1.0000 0.67150  0.49830  0.79610  Biso   1.000  H
  C1160    1.0000 0.67604  0.49158  0.87123  Biso   1.000  C
  H1101    1.0000 0.67010  0.50580  0.88460  Biso   1.000  H
  H1102    1.0000 0.69530  0.48520  0.87400  Biso   1.000  H
  C1161    1.0000 0.22214  0.03864  0.72495  Biso   1.000  C
  O407     1.0000 0.21097  0.02950  0.74700  Biso   1.000  O
  O408     1.0000 0.24444  0.03030  0.71412  Biso   1.000  O
  C1162    1.0000 0.20714  0.06257  0.71072  Biso   1.000  C
  C1163    1.0000 0.19251  0.08295  0.72619  Biso   1.000  C
  C1164    1.0000 0.18021  0.10532  0.71312  Biso   1.000  C
  H1103    1.0000 0.17080  0.11870  0.72380  Biso   1.000  H
  C1165    1.0000 0.18151  0.10839  0.68376  Biso   1.000  C
  C1166    1.0000 0.19613  0.08822  0.66837  Biso   1.000  C
  H1104    1.0000 0.19720  0.08990  0.64890  Biso   1.000  H
  C1167    1.0000 0.20901  0.06584  0.68129  Biso   1.000  C
  C1168    1.0000 0.14487  0.14626  0.68096  Biso   1.000  C
  H1105    1.0000 0.13660  0.13870  0.69700  Biso   1.000  H
  C1169    1.0000 0.16874  0.13346  0.66971  Biso   1.000  C
  N175     1.0000 0.18904  0.08494  0.75857  Biso   1.000  N
  C1170    1.0000 0.16650  0.07210  0.77140  Biso   1.000  C
  O409     1.0000 0.14560  0.06320  0.76050  Biso   1.000  O
  O410     1.0000 0.17190  0.06875  0.79856  Biso   1.000  O
  C1171    1.0000 0.20170  0.07680  0.80500  Biso   1.000  C
  H1106    1.0000 0.20250  0.08940  0.82100  Biso   1.000  H
  H1107    1.0000 0.21290  0.06020  0.80900  Biso   1.000  H
  C1172    1.0000 0.21168  0.09104  0.77898  Biso   1.000  C
  H1108    1.0000 0.22920  0.08210  0.77260  Biso   1.000  H
  C1173    1.0000 0.21630  0.12115  0.78210  Biso   1.000  C
  H1109    1.0000 0.22210  0.12800  0.76350  Biso   1.000  H
  C1174    1.0000 0.19130  0.13820  0.79020  Biso   1.000  C
  H1110    1.0000 0.17550  0.13310  0.77860  Biso   1.000  H
  H1111    1.0000 0.19540  0.15780  0.78760  Biso   1.000  H
  H1112    1.0000 0.18680  0.13480  0.80960  Biso   1.000  H
  C1175    1.0000 0.24080  0.12790  0.80220  Biso   1.000  C
  H1113    1.0000 0.24360  0.14790  0.80290  Biso   1.000  H
  H1114    1.0000 0.25760  0.11900  0.79550  Biso   1.000  H
  H1115    1.0000 0.23640  0.12100  0.82070  Biso   1.000  H
  N176     1.0000 0.21880  0.04232  0.65922  Biso   1.000  N
  C1176    1.0000 0.24180  0.04710  0.64360  Biso   1.000  C
  O411     1.0000 0.25450  0.06790  0.64180  Biso   1.000  O
  O412     1.0000 0.25170  0.02370  0.63180  Biso   1.000  O
  C1177    1.0000 0.23690  0.00200  0.64270  Biso   1.000  C
  H1116    1.0000 0.24890  0.99140  0.65540  Biso   1.000  H
  H1117    1.0000 0.23130  0.98950  0.62760  Biso   1.000  H
  C1178    1.0000 0.21010  0.01200  0.65910  Biso   1.000  C
  H1118    1.0000 0.21180  0.00500  0.67840  Biso   1.000  H
  O413     1.0000 0.19561  0.99732  0.79806  Biso   1.000  O
  N177     1.0000 0.16666  0.99546  0.84152  Biso   1.000  N
  C1179    1.0000 0.19546  0.99546  0.82302  Biso   1.000  C
  H1119    1.0000 0.17150  0.99830  0.79610  Biso   1.000  H
  C1180    1.0000 0.17604  0.99158  0.87123  Biso   1.000  C
  H1120    1.0000 0.17010  0.00580  0.88460  Biso   1.000  H
  H1121    1.0000 0.19530  0.98520  0.87400  Biso   1.000  H
  C1181    1.0000 0.22214  0.53864  0.22495  Biso   1.000  C
  O414     1.0000 0.21097  0.52950  0.24700  Biso   1.000  O
  O415     1.0000 0.24444  0.53030  0.21412  Biso   1.000  O
  C1182    1.0000 0.20714  0.56257  0.21072  Biso   1.000  C
  C1183    1.0000 0.19251  0.58295  0.22619  Biso   1.000  C
  C1184    1.0000 0.18021  0.60532  0.21312  Biso   1.000  C
  H1122    1.0000 0.17080  0.61870  0.22380  Biso   1.000  H
  C1185    1.0000 0.18151  0.60839  0.18376  Biso   1.000  C
  C1186    1.0000 0.19613  0.58822  0.16837  Biso   1.000  C
  H1123    1.0000 0.19720  0.58990  0.14890  Biso   1.000  H
  C1187    1.0000 0.20901  0.56584  0.18129  Biso   1.000  C
  C1188    1.0000 0.14487  0.64626  0.18096  Biso   1.000  C
  H1124    1.0000 0.13660  0.63870  0.19700  Biso   1.000  H
  C1189    1.0000 0.16874  0.63346  0.16971  Biso   1.000  C
  N178     1.0000 0.18904  0.58494  0.25857  Biso   1.000  N
  C1190    1.0000 0.16650  0.57210  0.27140  Biso   1.000  C
  O416     1.0000 0.14560  0.56320  0.26050  Biso   1.000  O
  O417     1.0000 0.17190  0.56875  0.29856  Biso   1.000  O
  C1191    1.0000 0.20170  0.57680  0.30500  Biso   1.000  C
  H1125    1.0000 0.20250  0.58940  0.32100  Biso   1.000  H
  H1126    1.0000 0.21290  0.56020  0.30900  Biso   1.000  H
  C1192    1.0000 0.21168  0.59104  0.27898  Biso   1.000  C
  H1127    1.0000 0.22920  0.58210  0.27260  Biso   1.000  H
  C1193    1.0000 0.21630  0.62115  0.28210  Biso   1.000  C
  H1128    1.0000 0.22210  0.62800  0.26350  Biso   1.000  H
  C1194    1.0000 0.19130  0.63820  0.29020  Biso   1.000  C
  H1129    1.0000 0.17550  0.63310  0.27860  Biso   1.000  H
  H1130    1.0000 0.19540  0.65780  0.28760  Biso   1.000  H
  H1131    1.0000 0.18680  0.63480  0.30960  Biso   1.000  H
  C1195    1.0000 0.24080  0.62790  0.30220  Biso   1.000  C
  H1132    1.0000 0.24360  0.64790  0.30290  Biso   1.000  H
  H1133    1.0000 0.25760  0.61900  0.29550  Biso   1.000  H
  H1134    1.0000 0.23640  0.62100  0.32070  Biso   1.000  H
  N179     1.0000 0.21880  0.54232  0.15922  Biso   1.000  N
  C1196    1.0000 0.24180  0.54710  0.14360  Biso   1.000  C
  O418     1.0000 0.25450  0.56790  0.14180  Biso   1.000  O
  O419     1.0000 0.25170  0.52370  0.13180  Biso   1.000  O
  C1197    1.0000 0.23690  0.50200  0.14270  Biso   1.000  C
  H1135    1.0000 0.24890  0.49140  0.15540  Biso   1.000  H
  H1136    1.0000 0.23130  0.48950  0.12760  Biso   1.000  H
  C1198    1.0000 0.21010  0.51200  0.15910  Biso   1.000  C
  H1137    1.0000 0.21180  0.50500  0.17840  Biso   1.000  H
  O420     1.0000 0.19561  0.49732  0.29806  Biso   1.000  O
  N180     1.0000 0.16666  0.49546  0.34152  Biso   1.000  N
  C1199    1.0000 0.19546  0.49546  0.32302  Biso   1.000  C
  H1138    1.0000 0.17150  0.49830  0.29610  Biso   1.000  H
  C1200    1.0000 0.17604  0.49158  0.37123  Biso   1.000  C
  H1139    1.0000 0.17010  0.50580  0.38460  Biso   1.000  H
  H1140    1.0000 0.19530  0.48520  0.37400  Biso   1.000  H
  C1201    1.0000 0.27786  0.96136  0.22495  Biso   1.000  C
  O421     1.0000 0.28903  0.97050  0.24700  Biso   1.000  O
  O422     1.0000 0.25556  0.96970  0.21412  Biso   1.000  O
  C1202    1.0000 0.29286  0.93743  0.21072  Biso   1.000  C
  C1203    1.0000 0.30749  0.91705  0.22619  Biso   1.000  C
  C1204    1.0000 0.31979  0.89468  0.21312  Biso   1.000  C
  H1141    1.0000 0.32920  0.88130  0.22380  Biso   1.000  H
  C1205    1.0000 0.31849  0.89161  0.18376  Biso   1.000  C
  C1206    1.0000 0.30387  0.91178  0.16837  Biso   1.000  C
  H1142    1.0000 0.30280  0.91010  0.14890  Biso   1.000  H
  C1207    1.0000 0.29099  0.93416  0.18129  Biso   1.000  C
  C1208    1.0000 0.35513  0.85374  0.18096  Biso   1.000  C
  H1143    1.0000 0.36340  0.86130  0.19700  Biso   1.000  H
  C1209    1.0000 0.33126  0.86654  0.16971  Biso   1.000  C
  N181     1.0000 0.31096  0.91506  0.25857  Biso   1.000  N
  C1210    1.0000 0.33350  0.92790  0.27140  Biso   1.000  C
  O423     1.0000 0.35440  0.93680  0.26050  Biso   1.000  O
  O424     1.0000 0.32810  0.93125  0.29856  Biso   1.000  O
  C1211    1.0000 0.29830  0.92320  0.30500  Biso   1.000  C
  H1144    1.0000 0.29750  0.91060  0.32100  Biso   1.000  H
  H1145    1.0000 0.28710  0.93980  0.30900  Biso   1.000  H
  C1212    1.0000 0.28832  0.90896  0.27898  Biso   1.000  C
  H1146    1.0000 0.27080  0.91790  0.27260  Biso   1.000  H
  C1213    1.0000 0.28370  0.87885  0.28210  Biso   1.000  C
  H1147    1.0000 0.27790  0.87200  0.26350  Biso   1.000  H
  C1214    1.0000 0.30870  0.86180  0.29020  Biso   1.000  C
  H1148    1.0000 0.32450  0.86690  0.27860  Biso   1.000  H
  H1149    1.0000 0.30460  0.84220  0.28760  Biso   1.000  H
  H1150    1.0000 0.31320  0.86520  0.30960  Biso   1.000  H
  C1215    1.0000 0.25920  0.87210  0.30220  Biso   1.000  C
  H1151    1.0000 0.25640  0.85210  0.30290  Biso   1.000  H
  H1152    1.0000 0.24240  0.88100  0.29550  Biso   1.000  H
  H1153    1.0000 0.26360  0.87900  0.32070  Biso   1.000  H
  N182     1.0000 0.28120  0.95768  0.15922  Biso   1.000  N
  C1216    1.0000 0.25820  0.95290  0.14360  Biso   1.000  C
  O425     1.0000 0.24550  0.93210  0.14180  Biso   1.000  O
  O426     1.0000 0.24830  0.97630  0.13180  Biso   1.000  O
  C1217    1.0000 0.26310  0.99800  0.14270  Biso   1.000  C
  H1154    1.0000 0.25110  0.00860  0.15540  Biso   1.000  H
  H1155    1.0000 0.26870  0.01050  0.12760  Biso   1.000  H
  C1218    1.0000 0.28990  0.98800  0.15910  Biso   1.000  C
  H1156    1.0000 0.28820  0.99500  0.17840  Biso   1.000  H
  O427     1.0000 0.30439  0.00268  0.29806  Biso   1.000  O
  N183     1.0000 0.33334  0.00454  0.34152  Biso   1.000  N
  C1219    1.0000 0.30454  0.00454  0.32302  Biso   1.000  C
  H1157    1.0000 0.32850  0.00170  0.29610  Biso   1.000  H
  C1220    1.0000 0.32396  0.00842  0.37123  Biso   1.000  C
  H1158    1.0000 0.32990  0.99420  0.38460  Biso   1.000  H
  H1159    1.0000 0.30470  0.01480  0.37400  Biso   1.000  H
  C1221    1.0000 0.27786  0.46136  0.72495  Biso   1.000  C
  O428     1.0000 0.28903  0.47050  0.74700  Biso   1.000  O
  O429     1.0000 0.25556  0.46970  0.71412  Biso   1.000  O
  C1222    1.0000 0.29286  0.43743  0.71072  Biso   1.000  C
  C1223    1.0000 0.30749  0.41705  0.72619  Biso   1.000  C
  C1224    1.0000 0.31979  0.39468  0.71312  Biso   1.000  C
  H1160    1.0000 0.32920  0.38130  0.72380  Biso   1.000  H
  C1225    1.0000 0.31849  0.39161  0.68376  Biso   1.000  C
  C1226    1.0000 0.30387  0.41178  0.66837  Biso   1.000  C
  H1161    1.0000 0.30280  0.41010  0.64890  Biso   1.000  H
  C1227    1.0000 0.29099  0.43416  0.68129  Biso   1.000  C
  C1228    1.0000 0.35513  0.35374  0.68096  Biso   1.000  C
  H1162    1.0000 0.36340  0.36130  0.69700  Biso   1.000  H
  C1229    1.0000 0.33126  0.36654  0.66971  Biso   1.000  C
  N184     1.0000 0.31096  0.41506  0.75857  Biso   1.000  N
  C1230    1.0000 0.33350  0.42790  0.77140  Biso   1.000  C
  O430     1.0000 0.35440  0.43680  0.76050  Biso   1.000  O
  O431     1.0000 0.32810  0.43125  0.79856  Biso   1.000  O
  C1231    1.0000 0.29830  0.42320  0.80500  Biso   1.000  C
  H1163    1.0000 0.29750  0.41060  0.82100  Biso   1.000  H
  H1164    1.0000 0.28710  0.43980  0.80900  Biso   1.000  H
  C1232    1.0000 0.28832  0.40896  0.77898  Biso   1.000  C
  H1165    1.0000 0.27080  0.41790  0.77260  Biso   1.000  H
  C1233    1.0000 0.28370  0.37885  0.78210  Biso   1.000  C
  H1166    1.0000 0.27790  0.37200  0.76350  Biso   1.000  H
  C1234    1.0000 0.30870  0.36180  0.79020  Biso   1.000  C
  H1167    1.0000 0.32450  0.36690  0.77860  Biso   1.000  H
  H1168    1.0000 0.30460  0.34220  0.78760  Biso   1.000  H
  H1169    1.0000 0.31320  0.36520  0.80960  Biso   1.000  H
  C1235    1.0000 0.25920  0.37210  0.80220  Biso   1.000  C
  H1170    1.0000 0.25640  0.35210  0.80290  Biso   1.000  H
  H1171    1.0000 0.24240  0.38100  0.79550  Biso   1.000  H
  H1172    1.0000 0.26360  0.37900  0.82070  Biso   1.000  H
  N185     1.0000 0.28120  0.45768  0.65922  Biso   1.000  N
  C1236    1.0000 0.25820  0.45290  0.64360  Biso   1.000  C
  O432     1.0000 0.24550  0.43210  0.64180  Biso   1.000  O
  O433     1.0000 0.24830  0.47630  0.63180  Biso   1.000  O
  C1237    1.0000 0.26310  0.49800  0.64270  Biso   1.000  C
  H1173    1.0000 0.25110  0.50860  0.65540  Biso   1.000  H
  H1174    1.0000 0.26870  0.51050  0.62760  Biso   1.000  H
  C1238    1.0000 0.28990  0.48800  0.65910  Biso   1.000  C
  H1175    1.0000 0.28820  0.49500  0.67840  Biso   1.000  H
  O434     1.0000 0.30439  0.50268  0.79806  Biso   1.000  O
  N186     1.0000 0.33334  0.50454  0.84152  Biso   1.000  N
  C1239    1.0000 0.30454  0.50454  0.82302  Biso   1.000  C
  H1176    1.0000 0.32850  0.50170  0.79610  Biso   1.000  H
  C1240    1.0000 0.32396  0.50842  0.87123  Biso   1.000  C
  H1177    1.0000 0.32990  0.49420  0.88460  Biso   1.000  H
  H1178    1.0000 0.30470  0.51480  0.87400  Biso   1.000  H
  C1241    1.0000 0.77786  0.96136  0.72495  Biso   1.000  C
  O435     1.0000 0.78903  0.97050  0.74700  Biso   1.000  O
  O436     1.0000 0.75556  0.96970  0.71412  Biso   1.000  O
  C1242    1.0000 0.79286  0.93743  0.71072  Biso   1.000  C
  C1243    1.0000 0.80749  0.91705  0.72619  Biso   1.000  C
  C1244    1.0000 0.81979  0.89468  0.71312  Biso   1.000  C
  H1179    1.0000 0.82920  0.88130  0.72380  Biso   1.000  H
  C1245    1.0000 0.81849  0.89161  0.68376  Biso   1.000  C
  C1246    1.0000 0.80387  0.91178  0.66837  Biso   1.000  C
  H1180    1.0000 0.80280  0.91010  0.64890  Biso   1.000  H
  C1247    1.0000 0.79099  0.93416  0.68129  Biso   1.000  C
  C1248    1.0000 0.85513  0.85374  0.68096  Biso   1.000  C
  H1181    1.0000 0.86340  0.86130  0.69700  Biso   1.000  H
  C1249    1.0000 0.83126  0.86654  0.66971  Biso   1.000  C
  N187     1.0000 0.81096  0.91506  0.75857  Biso   1.000  N
  C1250    1.0000 0.83350  0.92790  0.77140  Biso   1.000  C
  O437     1.0000 0.85440  0.93680  0.76050  Biso   1.000  O
  O438     1.0000 0.82810  0.93125  0.79856  Biso   1.000  O
  C1251    1.0000 0.79830  0.92320  0.80500  Biso   1.000  C
  H1182    1.0000 0.79750  0.91060  0.82100  Biso   1.000  H
  H1183    1.0000 0.78710  0.93980  0.80900  Biso   1.000  H
  C1252    1.0000 0.78832  0.90896  0.77898  Biso   1.000  C
  H1184    1.0000 0.77080  0.91790  0.77260  Biso   1.000  H
  C1253    1.0000 0.78370  0.87885  0.78210  Biso   1.000  C
  H1185    1.0000 0.77790  0.87200  0.76350  Biso   1.000  H
  C1254    1.0000 0.80870  0.86180  0.79020  Biso   1.000  C
  H1186    1.0000 0.82450  0.86690  0.77860  Biso   1.000  H
  H1187    1.0000 0.80460  0.84220  0.78760  Biso   1.000  H
  H1188    1.0000 0.81320  0.86520  0.80960  Biso   1.000  H
  C1255    1.0000 0.75920  0.87210  0.80220  Biso   1.000  C
  H1189    1.0000 0.75640  0.85210  0.80290  Biso   1.000  H
  H1190    1.0000 0.74240  0.88100  0.79550  Biso   1.000  H
  H1191    1.0000 0.76360  0.87900  0.82070  Biso   1.000  H
  N188     1.0000 0.78120  0.95768  0.65922  Biso   1.000  N
  C1256    1.0000 0.75820  0.95290  0.64360  Biso   1.000  C
  O439     1.0000 0.74550  0.93210  0.64180  Biso   1.000  O
  O440     1.0000 0.74830  0.97630  0.63180  Biso   1.000  O
  C1257    1.0000 0.76310  0.99800  0.64270  Biso   1.000  C
  H1192    1.0000 0.75110  0.00860  0.65540  Biso   1.000  H
  H1193    1.0000 0.76870  0.01050  0.62760  Biso   1.000  H
  C1258    1.0000 0.78990  0.98800  0.65910  Biso   1.000  C
  H1194    1.0000 0.78820  0.99500  0.67840  Biso   1.000  H
  O441     1.0000 0.80439  0.00268  0.79806  Biso   1.000  O
  N189     1.0000 0.83334  0.00454  0.84152  Biso   1.000  N
  C1259    1.0000 0.80454  0.00454  0.82302  Biso   1.000  C
  H1195    1.0000 0.82850  0.00170  0.79610  Biso   1.000  H
  C1260    1.0000 0.82396  0.00842  0.87123  Biso   1.000  C
  H1196    1.0000 0.82990  0.99420  0.88460  Biso   1.000  H
  H1197    1.0000 0.80470  0.01480  0.87400  Biso   1.000  H
  C1261    1.0000 0.77786  0.46136  0.22495  Biso   1.000  C
  O442     1.0000 0.78903  0.47050  0.24700  Biso   1.000  O
  O443     1.0000 0.75556  0.46970  0.21412  Biso   1.000  O
  C1262    1.0000 0.79286  0.43743  0.21072  Biso   1.000  C
  C1263    1.0000 0.80749  0.41705  0.22619  Biso   1.000  C
  C1264    1.0000 0.81979  0.39468  0.21312  Biso   1.000  C
  H1198    1.0000 0.82920  0.38130  0.22380  Biso   1.000  H
  C1265    1.0000 0.81849  0.39161  0.18376  Biso   1.000  C
  C1266    1.0000 0.80387  0.41178  0.16837  Biso   1.000  C
  H1199    1.0000 0.80280  0.41010  0.14890  Biso   1.000  H
  C1267    1.0000 0.79099  0.43416  0.18129  Biso   1.000  C
  C1268    1.0000 0.85513  0.35374  0.18096  Biso   1.000  C
  H1200    1.0000 0.86340  0.36130  0.19700  Biso   1.000  H
  C1269    1.0000 0.83126  0.36654  0.16971  Biso   1.000  C
  N190     1.0000 0.81096  0.41506  0.25857  Biso   1.000  N
  C1270    1.0000 0.83350  0.42790  0.27140  Biso   1.000  C
  O444     1.0000 0.85440  0.43680  0.26050  Biso   1.000  O
  O445     1.0000 0.82810  0.43125  0.29856  Biso   1.000  O
  C1271    1.0000 0.79830  0.42320  0.30500  Biso   1.000  C
  H1201    1.0000 0.79750  0.41060  0.32100  Biso   1.000  H
  H1202    1.0000 0.78710  0.43980  0.30900  Biso   1.000  H
  C1272    1.0000 0.78832  0.40896  0.27898  Biso   1.000  C
  H1203    1.0000 0.77080  0.41790  0.27260  Biso   1.000  H
  C1273    1.0000 0.78370  0.37885  0.28210  Biso   1.000  C
  H1204    1.0000 0.77790  0.37200  0.26350  Biso   1.000  H
  C1274    1.0000 0.80870  0.36180  0.29020  Biso   1.000  C
  H1205    1.0000 0.82450  0.36690  0.27860  Biso   1.000  H
  H1206    1.0000 0.80460  0.34220  0.28760  Biso   1.000  H
  H1207    1.0000 0.81320  0.36520  0.30960  Biso   1.000  H
  C1275    1.0000 0.75920  0.37210  0.30220  Biso   1.000  C
  H1208    1.0000 0.75640  0.35210  0.30290  Biso   1.000  H
  H1209    1.0000 0.74240  0.38100  0.29550  Biso   1.000  H
  H1210    1.0000 0.76360  0.37900  0.32070  Biso   1.000  H
  N191     1.0000 0.78120  0.45768  0.15922  Biso   1.000  N
  C1276    1.0000 0.75820  0.45290  0.14360  Biso   1.000  C
  O446     1.0000 0.74550  0.43210  0.14180  Biso   1.000  O
  O447     1.0000 0.74830  0.47630  0.13180  Biso   1.000  O
  C1277    1.0000 0.76310  0.49800  0.14270  Biso   1.000  C
  H1211    1.0000 0.75110  0.50860  0.15540  Biso   1.000  H
  H1212    1.0000 0.76870  0.51050  0.12760  Biso   1.000  H
  C1278    1.0000 0.78990  0.48800  0.15910  Biso   1.000  C
  H1213    1.0000 0.78820  0.49500  0.17840  Biso   1.000  H
  O448     1.0000 0.80439  0.50268  0.29806  Biso   1.000  O
  N192     1.0000 0.83334  0.50454  0.34152  Biso   1.000  N
  C1279    1.0000 0.80454  0.50454  0.32302  Biso   1.000  C
  H1214    1.0000 0.82850  0.50170  0.29610  Biso   1.000  H
  C1280    1.0000 0.82396  0.50842  0.37123  Biso   1.000  C
  H1215    1.0000 0.82990  0.49420  0.38460  Biso   1.000  H
  H1216    1.0000 0.80470  0.51480  0.37400  Biso   1.000  H
  C1281    1.0000 0.96136  0.22495  0.27786  Biso   1.000  C
  O449     1.0000 0.97050  0.24700  0.28903  Biso   1.000  O
  O450     1.0000 0.96970  0.21412  0.25556  Biso   1.000  O
  C1282    1.0000 0.93743  0.21072  0.29286  Biso   1.000  C
  C1283    1.0000 0.91705  0.22619  0.30749  Biso   1.000  C
  C1284    1.0000 0.89468  0.21312  0.31979  Biso   1.000  C
  H1217    1.0000 0.88130  0.22380  0.32920  Biso   1.000  H
  C1285    1.0000 0.89161  0.18376  0.31849  Biso   1.000  C
  C1286    1.0000 0.91178  0.16837  0.30387  Biso   1.000  C
  H1218    1.0000 0.91010  0.14890  0.30280  Biso   1.000  H
  C1287    1.0000 0.93416  0.18129  0.29099  Biso   1.000  C
  C1288    1.0000 0.85374  0.18096  0.35513  Biso   1.000  C
  H1219    1.0000 0.86130  0.19700  0.36340  Biso   1.000  H
  C1289    1.0000 0.86654  0.16971  0.33126  Biso   1.000  C
  N193     1.0000 0.91506  0.25857  0.31096  Biso   1.000  N
  C1290    1.0000 0.92790  0.27140  0.33350  Biso   1.000  C
  O451     1.0000 0.93680  0.26050  0.35440  Biso   1.000  O
  O452     1.0000 0.93125  0.29856  0.32810  Biso   1.000  O
  C1291    1.0000 0.92320  0.30500  0.29830  Biso   1.000  C
  H1220    1.0000 0.91060  0.32100  0.29750  Biso   1.000  H
  H1221    1.0000 0.93980  0.30900  0.28710  Biso   1.000  H
  C1292    1.0000 0.90896  0.27898  0.28832  Biso   1.000  C
  H1222    1.0000 0.91790  0.27260  0.27080  Biso   1.000  H
  C1293    1.0000 0.87885  0.28210  0.28370  Biso   1.000  C
  H1223    1.0000 0.87200  0.26350  0.27790  Biso   1.000  H
  C1294    1.0000 0.86180  0.29020  0.30870  Biso   1.000  C
  H1224    1.0000 0.86690  0.27860  0.32450  Biso   1.000  H
  H1225    1.0000 0.84220  0.28760  0.30460  Biso   1.000  H
  H1226    1.0000 0.86520  0.30960  0.31320  Biso   1.000  H
  C1295    1.0000 0.87210  0.30220  0.25920  Biso   1.000  C
  H1227    1.0000 0.85210  0.30290  0.25640  Biso   1.000  H
  H1228    1.0000 0.88100  0.29550  0.24240  Biso   1.000  H
  H1229    1.0000 0.87900  0.32070  0.26360  Biso   1.000  H
  N194     1.0000 0.95768  0.15922  0.28120  Biso   1.000  N
  C1296    1.0000 0.95290  0.14360  0.25820  Biso   1.000  C
  O453     1.0000 0.93210  0.14180  0.24550  Biso   1.000  O
  O454     1.0000 0.97630  0.13180  0.24830  Biso   1.000  O
  C1297    1.0000 0.99800  0.14270  0.26310  Biso   1.000  C
  H1230    1.0000 0.00860  0.15540  0.25110  Biso   1.000  H
  H1231    1.0000 0.01050  0.12760  0.26870  Biso   1.000  H
  C1298    1.0000 0.98800  0.15910  0.28990  Biso   1.000  C
  H1232    1.0000 0.99500  0.17840  0.28820  Biso   1.000  H
  O455     1.0000 0.00268  0.29806  0.30439  Biso   1.000  O
  N195     1.0000 0.00454  0.34152  0.33334  Biso   1.000  N
  C1299    1.0000 0.00454  0.32302  0.30454  Biso   1.000  C
  H1233    1.0000 0.00170  0.29610  0.32850  Biso   1.000  H
  C1300    1.0000 0.00842  0.37123  0.32396  Biso   1.000  C
  H1234    1.0000 0.99420  0.38460  0.32990  Biso   1.000  H
  H1235    1.0000 0.01480  0.37400  0.30470  Biso   1.000  H
  C1301    1.0000 0.96136  0.72495  0.77786  Biso   1.000  C
  O456     1.0000 0.97050  0.74700  0.78903  Biso   1.000  O
  O457     1.0000 0.96970  0.71412  0.75556  Biso   1.000  O
  C1302    1.0000 0.93743  0.71072  0.79286  Biso   1.000  C
  C1303    1.0000 0.91705  0.72619  0.80749  Biso   1.000  C
  C1304    1.0000 0.89468  0.71312  0.81979  Biso   1.000  C
  H1236    1.0000 0.88130  0.72380  0.82920  Biso   1.000  H
  C1305    1.0000 0.89161  0.68376  0.81849  Biso   1.000  C
  C1306    1.0000 0.91178  0.66837  0.80387  Biso   1.000  C
  H1237    1.0000 0.91010  0.64890  0.80280  Biso   1.000  H
  C1307    1.0000 0.93416  0.68129  0.79099  Biso   1.000  C
  C1308    1.0000 0.85374  0.68096  0.85513  Biso   1.000  C
  H1238    1.0000 0.86130  0.69700  0.86340  Biso   1.000  H
  C1309    1.0000 0.86654  0.66971  0.83126  Biso   1.000  C
  N196     1.0000 0.91506  0.75857  0.81096  Biso   1.000  N
  C1310    1.0000 0.92790  0.77140  0.83350  Biso   1.000  C
  O458     1.0000 0.93680  0.76050  0.85440  Biso   1.000  O
  O459     1.0000 0.93125  0.79856  0.82810  Biso   1.000  O
  C1311    1.0000 0.92320  0.80500  0.79830  Biso   1.000  C
  H1239    1.0000 0.91060  0.82100  0.79750  Biso   1.000  H
  H1240    1.0000 0.93980  0.80900  0.78710  Biso   1.000  H
  C1312    1.0000 0.90896  0.77898  0.78832  Biso   1.000  C
  H1241    1.0000 0.91790  0.77260  0.77080  Biso   1.000  H
  C1313    1.0000 0.87885  0.78210  0.78370  Biso   1.000  C
  H1242    1.0000 0.87200  0.76350  0.77790  Biso   1.000  H
  C1314    1.0000 0.86180  0.79020  0.80870  Biso   1.000  C
  H1243    1.0000 0.86690  0.77860  0.82450  Biso   1.000  H
  H1244    1.0000 0.84220  0.78760  0.80460  Biso   1.000  H
  H1245    1.0000 0.86520  0.80960  0.81320  Biso   1.000  H
  C1315    1.0000 0.87210  0.80220  0.75920  Biso   1.000  C
  H1246    1.0000 0.85210  0.80290  0.75640  Biso   1.000  H
  H1247    1.0000 0.88100  0.79550  0.74240  Biso   1.000  H
  H1248    1.0000 0.87900  0.82070  0.76360  Biso   1.000  H
  N197     1.0000 0.95768  0.65922  0.78120  Biso   1.000  N
  C1316    1.0000 0.95290  0.64360  0.75820  Biso   1.000  C
  O460     1.0000 0.93210  0.64180  0.74550  Biso   1.000  O
  O461     1.0000 0.97630  0.63180  0.74830  Biso   1.000  O
  C1317    1.0000 0.99800  0.64270  0.76310  Biso   1.000  C
  H1249    1.0000 0.00860  0.65540  0.75110  Biso   1.000  H
  H1250    1.0000 0.01050  0.62760  0.76870  Biso   1.000  H
  C1318    1.0000 0.98800  0.65910  0.78990  Biso   1.000  C
  H1251    1.0000 0.99500  0.67840  0.78820  Biso   1.000  H
  O462     1.0000 0.00268  0.79806  0.80439  Biso   1.000  O
  N198     1.0000 0.00454  0.84152  0.83334  Biso   1.000  N
  C1319    1.0000 0.00454  0.82302  0.80454  Biso   1.000  C
  H1252    1.0000 0.00170  0.79610  0.82850  Biso   1.000  H
  C1320    1.0000 0.00842  0.87123  0.82396  Biso   1.000  C
  H1253    1.0000 0.99420  0.88460  0.82990  Biso   1.000  H
  H1254    1.0000 0.01480  0.87400  0.80470  Biso   1.000  H
  C1321    1.0000 0.46136  0.22495  0.77786  Biso   1.000  C
  O463     1.0000 0.47050  0.24700  0.78903  Biso   1.000  O
  O464     1.0000 0.46970  0.21412  0.75556  Biso   1.000  O
  C1322    1.0000 0.43743  0.21072  0.79286  Biso   1.000  C
  C1323    1.0000 0.41705  0.22619  0.80749  Biso   1.000  C
  C1324    1.0000 0.39468  0.21312  0.81979  Biso   1.000  C
  H1255    1.0000 0.38130  0.22380  0.82920  Biso   1.000  H
  C1325    1.0000 0.39161  0.18376  0.81849  Biso   1.000  C
  C1326    1.0000 0.41178  0.16837  0.80387  Biso   1.000  C
  H1256    1.0000 0.41010  0.14890  0.80280  Biso   1.000  H
  C1327    1.0000 0.43416  0.18129  0.79099  Biso   1.000  C
  C1328    1.0000 0.35374  0.18096  0.85513  Biso   1.000  C
  H1257    1.0000 0.36130  0.19700  0.86340  Biso   1.000  H
  C1329    1.0000 0.36654  0.16971  0.83126  Biso   1.000  C
  N199     1.0000 0.41506  0.25857  0.81096  Biso   1.000  N
  C1330    1.0000 0.42790  0.27140  0.83350  Biso   1.000  C
  O465     1.0000 0.43680  0.26050  0.85440  Biso   1.000  O
  O466     1.0000 0.43125  0.29856  0.82810  Biso   1.000  O
  C1331    1.0000 0.42320  0.30500  0.79830  Biso   1.000  C
  H1258    1.0000 0.41060  0.32100  0.79750  Biso   1.000  H
  H1259    1.0000 0.43980  0.30900  0.78710  Biso   1.000  H
  C1332    1.0000 0.40896  0.27898  0.78832  Biso   1.000  C
  H1260    1.0000 0.41790  0.27260  0.77080  Biso   1.000  H
  C1333    1.0000 0.37885  0.28210  0.78370  Biso   1.000  C
  H1261    1.0000 0.37200  0.26350  0.77790  Biso   1.000  H
  C1334    1.0000 0.36180  0.29020  0.80870  Biso   1.000  C
  H1262    1.0000 0.36690  0.27860  0.82450  Biso   1.000  H
  H1263    1.0000 0.34220  0.28760  0.80460  Biso   1.000  H
  H1264    1.0000 0.36520  0.30960  0.81320  Biso   1.000  H
  C1335    1.0000 0.37210  0.30220  0.75920  Biso   1.000  C
  H1265    1.0000 0.35210  0.30290  0.75640  Biso   1.000  H
  H1266    1.0000 0.38100  0.29550  0.74240  Biso   1.000  H
  H1267    1.0000 0.37900  0.32070  0.76360  Biso   1.000  H
  N200     1.0000 0.45768  0.15922  0.78120  Biso   1.000  N
  C1336    1.0000 0.45290  0.14360  0.75820  Biso   1.000  C
  O467     1.0000 0.43210  0.14180  0.74550  Biso   1.000  O
  O468     1.0000 0.47630  0.13180  0.74830  Biso   1.000  O
  C1337    1.0000 0.49800  0.14270  0.76310  Biso   1.000  C
  H1268    1.0000 0.50860  0.15540  0.75110  Biso   1.000  H
  H1269    1.0000 0.51050  0.12760  0.76870  Biso   1.000  H
  C1338    1.0000 0.48800  0.15910  0.78990  Biso   1.000  C
  H1270    1.0000 0.49500  0.17840  0.78820  Biso   1.000  H
  O469     1.0000 0.50268  0.29806  0.80439  Biso   1.000  O
  N201     1.0000 0.50454  0.34152  0.83334  Biso   1.000  N
  C1339    1.0000 0.50454  0.32302  0.80454  Biso   1.000  C
  H1271    1.0000 0.50170  0.29610  0.82850  Biso   1.000  H
  C1340    1.0000 0.50842  0.37123  0.82396  Biso   1.000  C
  H1272    1.0000 0.49420  0.38460  0.82990  Biso   1.000  H
  H1273    1.0000 0.51480  0.37400  0.80470  Biso   1.000  H
  C1341    1.0000 0.46136  0.72495  0.27786  Biso   1.000  C
  O470     1.0000 0.47050  0.74700  0.28903  Biso   1.000  O
  O471     1.0000 0.46970  0.71412  0.25556  Biso   1.000  O
  C1342    1.0000 0.43743  0.71072  0.29286  Biso   1.000  C
  C1343    1.0000 0.41705  0.72619  0.30749  Biso   1.000  C
  C1344    1.0000 0.39468  0.71312  0.31979  Biso   1.000  C
  H1274    1.0000 0.38130  0.72380  0.32920  Biso   1.000  H
  C1345    1.0000 0.39161  0.68376  0.31849  Biso   1.000  C
  C1346    1.0000 0.41178  0.66837  0.30387  Biso   1.000  C
  H1275    1.0000 0.41010  0.64890  0.30280  Biso   1.000  H
  C1347    1.0000 0.43416  0.68129  0.29099  Biso   1.000  C
  C1348    1.0000 0.35374  0.68096  0.35513  Biso   1.000  C
  H1276    1.0000 0.36130  0.69700  0.36340  Biso   1.000  H
  C1349    1.0000 0.36654  0.66971  0.33126  Biso   1.000  C
  N202     1.0000 0.41506  0.75857  0.31096  Biso   1.000  N
  C1350    1.0000 0.42790  0.77140  0.33350  Biso   1.000  C
  O472     1.0000 0.43680  0.76050  0.35440  Biso   1.000  O
  O473     1.0000 0.43125  0.79856  0.32810  Biso   1.000  O
  C1351    1.0000 0.42320  0.80500  0.29830  Biso   1.000  C
  H1277    1.0000 0.41060  0.82100  0.29750  Biso   1.000  H
  H1278    1.0000 0.43980  0.80900  0.28710  Biso   1.000  H
  C1352    1.0000 0.40896  0.77898  0.28832  Biso   1.000  C
  H1279    1.0000 0.41790  0.77260  0.27080  Biso   1.000  H
  C1353    1.0000 0.37885  0.78210  0.28370  Biso   1.000  C
  H1280    1.0000 0.37200  0.76350  0.27790  Biso   1.000  H
  C1354    1.0000 0.36180  0.79020  0.30870  Biso   1.000  C
  H1281    1.0000 0.36690  0.77860  0.32450  Biso   1.000  H
  H1282    1.0000 0.34220  0.78760  0.30460  Biso   1.000  H
  H1283    1.0000 0.36520  0.80960  0.31320  Biso   1.000  H
  C1355    1.0000 0.37210  0.80220  0.25920  Biso   1.000  C
  H1284    1.0000 0.35210  0.80290  0.25640  Biso   1.000  H
  H1285    1.0000 0.38100  0.79550  0.24240  Biso   1.000  H
  H1286    1.0000 0.37900  0.82070  0.26360  Biso   1.000  H
  N203     1.0000 0.45768  0.65922  0.28120  Biso   1.000  N
  C1356    1.0000 0.45290  0.64360  0.25820  Biso   1.000  C
  O474     1.0000 0.43210  0.64180  0.24550  Biso   1.000  O
  O475     1.0000 0.47630  0.63180  0.24830  Biso   1.000  O
  C1357    1.0000 0.49800  0.64270  0.26310  Biso   1.000  C
  H1287    1.0000 0.50860  0.65540  0.25110  Biso   1.000  H
  H1288    1.0000 0.51050  0.62760  0.26870  Biso   1.000  H
  C1358    1.0000 0.48800  0.65910  0.28990  Biso   1.000  C
  H1289    1.0000 0.49500  0.67840  0.28820  Biso   1.000  H
  O476     1.0000 0.50268  0.79806  0.30439  Biso   1.000  O
  N204     1.0000 0.50454  0.84152  0.33334  Biso   1.000  N
  C1359    1.0000 0.50454  0.82302  0.30454  Biso   1.000  C
  H1290    1.0000 0.50170  0.79610  0.32850  Biso   1.000  H
  C1360    1.0000 0.50842  0.87123  0.32396  Biso   1.000  C
  H1291    1.0000 0.49420  0.88460  0.32990  Biso   1.000  H
  H1292    1.0000 0.51480  0.87400  0.30470  Biso   1.000  H
  C1361    1.0000 0.03864  0.22495  0.72214  Biso   1.000  C
  O477     1.0000 0.02950  0.24700  0.71097  Biso   1.000  O
  O478     1.0000 0.03030  0.21412  0.74444  Biso   1.000  O
  C1362    1.0000 0.06257  0.21072  0.70714  Biso   1.000  C
  C1363    1.0000 0.08295  0.22619  0.69251  Biso   1.000  C
  C1364    1.0000 0.10532  0.21312  0.68021  Biso   1.000  C
  H1293    1.0000 0.11870  0.22380  0.67080  Biso   1.000  H
  C1365    1.0000 0.10839  0.18376  0.68151  Biso   1.000  C
  C1366    1.0000 0.08822  0.16837  0.69613  Biso   1.000  C
  H1294    1.0000 0.08990  0.14890  0.69720  Biso   1.000  H
  C1367    1.0000 0.06584  0.18129  0.70901  Biso   1.000  C
  C1368    1.0000 0.14626  0.18096  0.64487  Biso   1.000  C
  H1295    1.0000 0.13870  0.19700  0.63660  Biso   1.000  H
  C1369    1.0000 0.13346  0.16971  0.66874  Biso   1.000  C
  N205     1.0000 0.08494  0.25857  0.68904  Biso   1.000  N
  C1370    1.0000 0.07210  0.27140  0.66650  Biso   1.000  C
  O479     1.0000 0.06320  0.26050  0.64560  Biso   1.000  O
  O480     1.0000 0.06875  0.29856  0.67190  Biso   1.000  O
  C1371    1.0000 0.07680  0.30500  0.70170  Biso   1.000  C
  H1296    1.0000 0.08940  0.32100  0.70250  Biso   1.000  H
  H1297    1.0000 0.06020  0.30900  0.71290  Biso   1.000  H
  C1372    1.0000 0.09104  0.27898  0.71168  Biso   1.000  C
  H1298    1.0000 0.08210  0.27260  0.72920  Biso   1.000  H
  C1373    1.0000 0.12115  0.28210  0.71630  Biso   1.000  C
  H1299    1.0000 0.12800  0.26350  0.72210  Biso   1.000  H
  C1374    1.0000 0.13820  0.29020  0.69130  Biso   1.000  C
  H1300    1.0000 0.13310  0.27860  0.67550  Biso   1.000  H
  H1301    1.0000 0.15780  0.28760  0.69540  Biso   1.000  H
  H1302    1.0000 0.13480  0.30960  0.68680  Biso   1.000  H
  C1375    1.0000 0.12790  0.30220  0.74080  Biso   1.000  C
  H1303    1.0000 0.14790  0.30290  0.74360  Biso   1.000  H
  H1304    1.0000 0.11900  0.29550  0.75760  Biso   1.000  H
  H1305    1.0000 0.12100  0.32070  0.73640  Biso   1.000  H
  N206     1.0000 0.04232  0.15922  0.71880  Biso   1.000  N
  C1376    1.0000 0.04710  0.14360  0.74180  Biso   1.000  C
  O481     1.0000 0.06790  0.14180  0.75450  Biso   1.000  O
  O482     1.0000 0.02370  0.13180  0.75170  Biso   1.000  O
  C1377    1.0000 0.00200  0.14270  0.73690  Biso   1.000  C
  H1306    1.0000 0.99140  0.15540  0.74890  Biso   1.000  H
  H1307    1.0000 0.98950  0.12760  0.73130  Biso   1.000  H
  C1378    1.0000 0.01200  0.15910  0.71010  Biso   1.000  C
  H1308    1.0000 0.00500  0.17840  0.71180  Biso   1.000  H
  O483     1.0000 0.99732  0.29806  0.69561  Biso   1.000  O
  N207     1.0000 0.99546  0.34152  0.66666  Biso   1.000  N
  C1379    1.0000 0.99546  0.32302  0.69546  Biso   1.000  C
  H1309    1.0000 0.99830  0.29610  0.67150  Biso   1.000  H
  C1380    1.0000 0.99158  0.37123  0.67604  Biso   1.000  C
  H1310    1.0000 0.00580  0.38460  0.67010  Biso   1.000  H
  H1311    1.0000 0.98520  0.37400  0.69530  Biso   1.000  H
  C1381    1.0000 0.03864  0.72495  0.22214  Biso   1.000  C
  O484     1.0000 0.02950  0.74700  0.21097  Biso   1.000  O
  O485     1.0000 0.03030  0.71412  0.24444  Biso   1.000  O
  C1382    1.0000 0.06257  0.71072  0.20714  Biso   1.000  C
  C1383    1.0000 0.08295  0.72619  0.19251  Biso   1.000  C
  C1384    1.0000 0.10532  0.71312  0.18021  Biso   1.000  C
  H1312    1.0000 0.11870  0.72380  0.17080  Biso   1.000  H
  C1385    1.0000 0.10839  0.68376  0.18151  Biso   1.000  C
  C1386    1.0000 0.08822  0.66837  0.19613  Biso   1.000  C
  H1313    1.0000 0.08990  0.64890  0.19720  Biso   1.000  H
  C1387    1.0000 0.06584  0.68129  0.20901  Biso   1.000  C
  C1388    1.0000 0.14626  0.68096  0.14487  Biso   1.000  C
  H1314    1.0000 0.13870  0.69700  0.13660  Biso   1.000  H
  C1389    1.0000 0.13346  0.66971  0.16874  Biso   1.000  C
  N208     1.0000 0.08494  0.75857  0.18904  Biso   1.000  N
  C1390    1.0000 0.07210  0.77140  0.16650  Biso   1.000  C
  O486     1.0000 0.06320  0.76050  0.14560  Biso   1.000  O
  O487     1.0000 0.06875  0.79856  0.17190  Biso   1.000  O
  C1391    1.0000 0.07680  0.80500  0.20170  Biso   1.000  C
  H1315    1.0000 0.08940  0.82100  0.20250  Biso   1.000  H
  H1316    1.0000 0.06020  0.80900  0.21290  Biso   1.000  H
  C1392    1.0000 0.09104  0.77898  0.21168  Biso   1.000  C
  H1317    1.0000 0.08210  0.77260  0.22920  Biso   1.000  H
  C1393    1.0000 0.12115  0.78210  0.21630  Biso   1.000  C
  H1318    1.0000 0.12800  0.76350  0.22210  Biso   1.000  H
  C1394    1.0000 0.13820  0.79020  0.19130  Biso   1.000  C
  H1319    1.0000 0.13310  0.77860  0.17550  Biso   1.000  H
  H1320    1.0000 0.15780  0.78760  0.19540  Biso   1.000  H
  H1321    1.0000 0.13480  0.80960  0.18680  Biso   1.000  H
  C1395    1.0000 0.12790  0.80220  0.24080  Biso   1.000  C
  H1322    1.0000 0.14790  0.80290  0.24360  Biso   1.000  H
  H1323    1.0000 0.11900  0.79550  0.25760  Biso   1.000  H
  H1324    1.0000 0.12100  0.82070  0.23640  Biso   1.000  H
  N209     1.0000 0.04232  0.65922  0.21880  Biso   1.000  N
  C1396    1.0000 0.04710  0.64360  0.24180  Biso   1.000  C
  O488     1.0000 0.06790  0.64180  0.25450  Biso   1.000  O
  O489     1.0000 0.02370  0.63180  0.25170  Biso   1.000  O
  C1397    1.0000 0.00200  0.64270  0.23690  Biso   1.000  C
  H1325    1.0000 0.99140  0.65540  0.24890  Biso   1.000  H
  H1326    1.0000 0.98950  0.62760  0.23130  Biso   1.000  H
  C1398    1.0000 0.01200  0.65910  0.21010  Biso   1.000  C
  H1327    1.0000 0.00500  0.67840  0.21180  Biso   1.000  H
  O490     1.0000 0.99732  0.79806  0.19561  Biso   1.000  O
  N210     1.0000 0.99546  0.84152  0.16666  Biso   1.000  N
  C1399    1.0000 0.99546  0.82302  0.19546  Biso   1.000  C
  H1328    1.0000 0.99830  0.79610  0.17150  Biso   1.000  H
  C1400    1.0000 0.99158  0.87123  0.17604  Biso   1.000  C
  H1329    1.0000 0.00580  0.88460  0.17010  Biso   1.000  H
  H1330    1.0000 0.98520  0.87400  0.19530  Biso   1.000  H
  C1401    1.0000 0.53864  0.22495  0.22214  Biso   1.000  C
  O491     1.0000 0.52950  0.24700  0.21097  Biso   1.000  O
  O492     1.0000 0.53030  0.21412  0.24444  Biso   1.000  O
  C1402    1.0000 0.56257  0.21072  0.20714  Biso   1.000  C
  C1403    1.0000 0.58295  0.22619  0.19251  Biso   1.000  C
  C1404    1.0000 0.60532  0.21312  0.18021  Biso   1.000  C
  H1331    1.0000 0.61870  0.22380  0.17080  Biso   1.000  H
  C1405    1.0000 0.60839  0.18376  0.18151  Biso   1.000  C
  C1406    1.0000 0.58822  0.16837  0.19613  Biso   1.000  C
  H1332    1.0000 0.58990  0.14890  0.19720  Biso   1.000  H
  C1407    1.0000 0.56584  0.18129  0.20901  Biso   1.000  C
  C1408    1.0000 0.64626  0.18096  0.14487  Biso   1.000  C
  H1333    1.0000 0.63870  0.19700  0.13660  Biso   1.000  H
  C1409    1.0000 0.63346  0.16971  0.16874  Biso   1.000  C
  N211     1.0000 0.58494  0.25857  0.18904  Biso   1.000  N
  C1410    1.0000 0.57210  0.27140  0.16650  Biso   1.000  C
  O493     1.0000 0.56320  0.26050  0.14560  Biso   1.000  O
  O494     1.0000 0.56875  0.29856  0.17190  Biso   1.000  O
  C1411    1.0000 0.57680  0.30500  0.20170  Biso   1.000  C
  H1334    1.0000 0.58940  0.32100  0.20250  Biso   1.000  H
  H1335    1.0000 0.56020  0.30900  0.21290  Biso   1.000  H
  C1412    1.0000 0.59104  0.27898  0.21168  Biso   1.000  C
  H1336    1.0000 0.58210  0.27260  0.22920  Biso   1.000  H
  C1413    1.0000 0.62115  0.28210  0.21630  Biso   1.000  C
  H1337    1.0000 0.62800  0.26350  0.22210  Biso   1.000  H
  C1414    1.0000 0.63820  0.29020  0.19130  Biso   1.000  C
  H1338    1.0000 0.63310  0.27860  0.17550  Biso   1.000  H
  H1339    1.0000 0.65780  0.28760  0.19540  Biso   1.000  H
  H1340    1.0000 0.63480  0.30960  0.18680  Biso   1.000  H
  C1415    1.0000 0.62790  0.30220  0.24080  Biso   1.000  C
  H1341    1.0000 0.64790  0.30290  0.24360  Biso   1.000  H
  H1342    1.0000 0.61900  0.29550  0.25760  Biso   1.000  H
  H1343    1.0000 0.62100  0.32070  0.23640  Biso   1.000  H
  N212     1.0000 0.54232  0.15922  0.21880  Biso   1.000  N
  C1416    1.0000 0.54710  0.14360  0.24180  Biso   1.000  C
  O495     1.0000 0.56790  0.14180  0.25450  Biso   1.000  O
  O496     1.0000 0.52370  0.13180  0.25170  Biso   1.000  O
  C1417    1.0000 0.50200  0.14270  0.23690  Biso   1.000  C
  H1344    1.0000 0.49140  0.15540  0.24890  Biso   1.000  H
  H1345    1.0000 0.48950  0.12760  0.23130  Biso   1.000  H
  C1418    1.0000 0.51200  0.15910  0.21010  Biso   1.000  C
  H1346    1.0000 0.50500  0.17840  0.21180  Biso   1.000  H
  O497     1.0000 0.49732  0.29806  0.19561  Biso   1.000  O
  N213     1.0000 0.49546  0.34152  0.16666  Biso   1.000  N
  C1419    1.0000 0.49546  0.32302  0.19546  Biso   1.000  C
  H1347    1.0000 0.49830  0.29610  0.17150  Biso   1.000  H
  C1420    1.0000 0.49158  0.37123  0.17604  Biso   1.000  C
  H1348    1.0000 0.50580  0.38460  0.17010  Biso   1.000  H
  H1349    1.0000 0.48520  0.37400  0.19530  Biso   1.000  H
  C1421    1.0000 0.53864  0.72495  0.72214  Biso   1.000  C
  O498     1.0000 0.52950  0.74700  0.71097  Biso   1.000  O
  O499     1.0000 0.53030  0.71412  0.74444  Biso   1.000  O
  C1422    1.0000 0.56257  0.71072  0.70714  Biso   1.000  C
  C1423    1.0000 0.58295  0.72619  0.69251  Biso   1.000  C
  C1424    1.0000 0.60532  0.71312  0.68021  Biso   1.000  C
  H1350    1.0000 0.61870  0.72380  0.67080  Biso   1.000  H
  C1425    1.0000 0.60839  0.68376  0.68151  Biso   1.000  C
  C1426    1.0000 0.58822  0.66837  0.69613  Biso   1.000  C
  H1351    1.0000 0.58990  0.64890  0.69720  Biso   1.000  H
  C1427    1.0000 0.56584  0.68129  0.70901  Biso   1.000  C
  C1428    1.0000 0.64626  0.68096  0.64487  Biso   1.000  C
  H1352    1.0000 0.63870  0.69700  0.63660  Biso   1.000  H
  C1429    1.0000 0.63346  0.66971  0.66874  Biso   1.000  C
  N214     1.0000 0.58494  0.75857  0.68904  Biso   1.000  N
  C1430    1.0000 0.57210  0.77140  0.66650  Biso   1.000  C
  O500     1.0000 0.56320  0.76050  0.64560  Biso   1.000  O
  O501     1.0000 0.56875  0.79856  0.67190  Biso   1.000  O
  C1431    1.0000 0.57680  0.80500  0.70170  Biso   1.000  C
  H1353    1.0000 0.58940  0.82100  0.70250  Biso   1.000  H
  H1354    1.0000 0.56020  0.80900  0.71290  Biso   1.000  H
  C1432    1.0000 0.59104  0.77898  0.71168  Biso   1.000  C
  H1355    1.0000 0.58210  0.77260  0.72920  Biso   1.000  H
  C1433    1.0000 0.62115  0.78210  0.71630  Biso   1.000  C
  H1356    1.0000 0.62800  0.76350  0.72210  Biso   1.000  H
  C1434    1.0000 0.63820  0.79020  0.69130  Biso   1.000  C
  H1357    1.0000 0.63310  0.77860  0.67550  Biso   1.000  H
  H1358    1.0000 0.65780  0.78760  0.69540  Biso   1.000  H
  H1359    1.0000 0.63480  0.80960  0.68680  Biso   1.000  H
  C1435    1.0000 0.62790  0.80220  0.74080  Biso   1.000  C
  H1360    1.0000 0.64790  0.80290  0.74360  Biso   1.000  H
  H1361    1.0000 0.61900  0.79550  0.75760  Biso   1.000  H
  H1362    1.0000 0.62100  0.82070  0.73640  Biso   1.000  H
  N215     1.0000 0.54232  0.65922  0.71880  Biso   1.000  N
  C1436    1.0000 0.54710  0.64360  0.74180  Biso   1.000  C
  O502     1.0000 0.56790  0.64180  0.75450  Biso   1.000  O
  O503     1.0000 0.52370  0.63180  0.75170  Biso   1.000  O
  C1437    1.0000 0.50200  0.64270  0.73690  Biso   1.000  C
  H1363    1.0000 0.49140  0.65540  0.74890  Biso   1.000  H
  H1364    1.0000 0.48950  0.62760  0.73130  Biso   1.000  H
  C1438    1.0000 0.51200  0.65910  0.71010  Biso   1.000  C
  H1365    1.0000 0.50500  0.67840  0.71180  Biso   1.000  H
  O504     1.0000 0.49732  0.79806  0.69561  Biso   1.000  O
  N216     1.0000 0.49546  0.84152  0.66666  Biso   1.000  N
  C1439    1.0000 0.49546  0.82302  0.69546  Biso   1.000  C
  H1366    1.0000 0.49830  0.79610  0.67150  Biso   1.000  H
  C1440    1.0000 0.49158  0.87123  0.67604  Biso   1.000  C
  H1367    1.0000 0.50580  0.88460  0.67010  Biso   1.000  H
  H1368    1.0000 0.48520  0.87400  0.69530  Biso   1.000  H
  C1441    1.0000 0.03864  0.77505  0.27786  Biso   1.000  C
  O505     1.0000 0.02950  0.75300  0.28903  Biso   1.000  O
  O506     1.0000 0.03030  0.78588  0.25556  Biso   1.000  O
  C1442    1.0000 0.06257  0.78928  0.29286  Biso   1.000  C
  C1443    1.0000 0.08295  0.77381  0.30749  Biso   1.000  C
  C1444    1.0000 0.10532  0.78688  0.31979  Biso   1.000  C
  H1369    1.0000 0.11870  0.77620  0.32920  Biso   1.000  H
  C1445    1.0000 0.10839  0.81624  0.31849  Biso   1.000  C
  C1446    1.0000 0.08822  0.83163  0.30387  Biso   1.000  C
  H1370    1.0000 0.08990  0.85110  0.30280  Biso   1.000  H
  C1447    1.0000 0.06584  0.81871  0.29099  Biso   1.000  C
  C1448    1.0000 0.14626  0.81904  0.35513  Biso   1.000  C
  H1371    1.0000 0.13870  0.80300  0.36340  Biso   1.000  H
  C1449    1.0000 0.13346  0.83029  0.33126  Biso   1.000  C
  N217     1.0000 0.08494  0.74143  0.31096  Biso   1.000  N
  C1450    1.0000 0.07210  0.72860  0.33350  Biso   1.000  C
  O507     1.0000 0.06320  0.73950  0.35440  Biso   1.000  O
  O508     1.0000 0.06875  0.70144  0.32810  Biso   1.000  O
  C1451    1.0000 0.07680  0.69500  0.29830  Biso   1.000  C
  H1372    1.0000 0.08940  0.67900  0.29750  Biso   1.000  H
  H1373    1.0000 0.06020  0.69100  0.28710  Biso   1.000  H
  C1452    1.0000 0.09104  0.72102  0.28832  Biso   1.000  C
  H1374    1.0000 0.08210  0.72740  0.27080  Biso   1.000  H
  C1453    1.0000 0.12115  0.71790  0.28370  Biso   1.000  C
  H1375    1.0000 0.12800  0.73650  0.27790  Biso   1.000  H
  C1454    1.0000 0.13820  0.70980  0.30870  Biso   1.000  C
  H1376    1.0000 0.13310  0.72140  0.32450  Biso   1.000  H
  H1377    1.0000 0.15780  0.71240  0.30460  Biso   1.000  H
  H1378    1.0000 0.13480  0.69040  0.31320  Biso   1.000  H
  C1455    1.0000 0.12790  0.69780  0.25920  Biso   1.000  C
  H1379    1.0000 0.14790  0.69710  0.25640  Biso   1.000  H
  H1380    1.0000 0.11900  0.70450  0.24240  Biso   1.000  H
  H1381    1.0000 0.12100  0.67930  0.26360  Biso   1.000  H
  N218     1.0000 0.04232  0.84078  0.28120  Biso   1.000  N
  C1456    1.0000 0.04710  0.85640  0.25820  Biso   1.000  C
  O509     1.0000 0.06790  0.85820  0.24550  Biso   1.000  O
  O510     1.0000 0.02370  0.86820  0.24830  Biso   1.000  O
  C1457    1.0000 0.00200  0.85730  0.26310  Biso   1.000  C
  H1382    1.0000 0.99140  0.84460  0.25110  Biso   1.000  H
  H1383    1.0000 0.98950  0.87240  0.26870  Biso   1.000  H
  C1458    1.0000 0.01200  0.84090  0.28990  Biso   1.000  C
  H1384    1.0000 0.00500  0.82160  0.28820  Biso   1.000  H
  O511     1.0000 0.99732  0.70194  0.30439  Biso   1.000  O
  N219     1.0000 0.99546  0.65848  0.33334  Biso   1.000  N
  C1459    1.0000 0.99546  0.67698  0.30454  Biso   1.000  C
  H1385    1.0000 0.99830  0.70390  0.32850  Biso   1.000  H
  C1460    1.0000 0.99158  0.62877  0.32396  Biso   1.000  C
  H1386    1.0000 0.00580  0.61540  0.32990  Biso   1.000  H
  H1387    1.0000 0.98520  0.62600  0.30470  Biso   1.000  H
  C1461    1.0000 0.03864  0.27505  0.77786  Biso   1.000  C
  O512     1.0000 0.02950  0.25300  0.78903  Biso   1.000  O
  O513     1.0000 0.03030  0.28588  0.75556  Biso   1.000  O
  C1462    1.0000 0.06257  0.28928  0.79286  Biso   1.000  C
  C1463    1.0000 0.08295  0.27381  0.80749  Biso   1.000  C
  C1464    1.0000 0.10532  0.28688  0.81979  Biso   1.000  C
  H1388    1.0000 0.11870  0.27620  0.82920  Biso   1.000  H
  C1465    1.0000 0.10839  0.31624  0.81849  Biso   1.000  C
  C1466    1.0000 0.08822  0.33163  0.80387  Biso   1.000  C
  H1389    1.0000 0.08990  0.35110  0.80280  Biso   1.000  H
  C1467    1.0000 0.06584  0.31871  0.79099  Biso   1.000  C
  C1468    1.0000 0.14626  0.31904  0.85513  Biso   1.000  C
  H1390    1.0000 0.13870  0.30300  0.86340  Biso   1.000  H
  C1469    1.0000 0.13346  0.33029  0.83126  Biso   1.000  C
  N220     1.0000 0.08494  0.24143  0.81096  Biso   1.000  N
  C1470    1.0000 0.07210  0.22860  0.83350  Biso   1.000  C
  O514     1.0000 0.06320  0.23950  0.85440  Biso   1.000  O
  O515     1.0000 0.06875  0.20144  0.82810  Biso   1.000  O
  C1471    1.0000 0.07680  0.19500  0.79830  Biso   1.000  C
  H1391    1.0000 0.08940  0.17900  0.79750  Biso   1.000  H
  H1392    1.0000 0.06020  0.19100  0.78710  Biso   1.000  H
  C1472    1.0000 0.09104  0.22102  0.78832  Biso   1.000  C
  H1393    1.0000 0.08210  0.22740  0.77080  Biso   1.000  H
  C1473    1.0000 0.12115  0.21790  0.78370  Biso   1.000  C
  H1394    1.0000 0.12800  0.23650  0.77790  Biso   1.000  H
  C1474    1.0000 0.13820  0.20980  0.80870  Biso   1.000  C
  H1395    1.0000 0.13310  0.22140  0.82450  Biso   1.000  H
  H1396    1.0000 0.15780  0.21240  0.80460  Biso   1.000  H
  H1397    1.0000 0.13480  0.19040  0.81320  Biso   1.000  H
  C1475    1.0000 0.12790  0.19780  0.75920  Biso   1.000  C
  H1398    1.0000 0.14790  0.19710  0.75640  Biso   1.000  H
  H1399    1.0000 0.11900  0.20450  0.74240  Biso   1.000  H
  H1400    1.0000 0.12100  0.17930  0.76360  Biso   1.000  H
  N221     1.0000 0.04232  0.34078  0.78120  Biso   1.000  N
  C1476    1.0000 0.04710  0.35640  0.75820  Biso   1.000  C
  O516     1.0000 0.06790  0.35820  0.74550  Biso   1.000  O
  O517     1.0000 0.02370  0.36820  0.74830  Biso   1.000  O
  C1477    1.0000 0.00200  0.35730  0.76310  Biso   1.000  C
  H1401    1.0000 0.99140  0.34460  0.75110  Biso   1.000  H
  H1402    1.0000 0.98950  0.37240  0.76870  Biso   1.000  H
  C1478    1.0000 0.01200  0.34090  0.78990  Biso   1.000  C
  H1403    1.0000 0.00500  0.32160  0.78820  Biso   1.000  H
  O518     1.0000 0.99732  0.20194  0.80439  Biso   1.000  O
  N222     1.0000 0.99546  0.15848  0.83334  Biso   1.000  N
  C1479    1.0000 0.99546  0.17698  0.80454  Biso   1.000  C
  H1404    1.0000 0.99830  0.20390  0.82850  Biso   1.000  H
  C1480    1.0000 0.99158  0.12877  0.82396  Biso   1.000  C
  H1405    1.0000 0.00580  0.11540  0.82990  Biso   1.000  H
  H1406    1.0000 0.98520  0.12600  0.80470  Biso   1.000  H
  C1481    1.0000 0.53864  0.77505  0.77786  Biso   1.000  C
  O519     1.0000 0.52950  0.75300  0.78903  Biso   1.000  O
  O520     1.0000 0.53030  0.78588  0.75556  Biso   1.000  O
  C1482    1.0000 0.56257  0.78928  0.79286  Biso   1.000  C
  C1483    1.0000 0.58295  0.77381  0.80749  Biso   1.000  C
  C1484    1.0000 0.60532  0.78688  0.81979  Biso   1.000  C
  H1407    1.0000 0.61870  0.77620  0.82920  Biso   1.000  H
  C1485    1.0000 0.60839  0.81624  0.81849  Biso   1.000  C
  C1486    1.0000 0.58822  0.83163  0.80387  Biso   1.000  C
  H1408    1.0000 0.58990  0.85110  0.80280  Biso   1.000  H
  C1487    1.0000 0.56584  0.81871  0.79099  Biso   1.000  C
  C1488    1.0000 0.64626  0.81904  0.85513  Biso   1.000  C
  H1409    1.0000 0.63870  0.80300  0.86340  Biso   1.000  H
  C1489    1.0000 0.63346  0.83029  0.83126  Biso   1.000  C
  N223     1.0000 0.58494  0.74143  0.81096  Biso   1.000  N
  C1490    1.0000 0.57210  0.72860  0.83350  Biso   1.000  C
  O521     1.0000 0.56320  0.73950  0.85440  Biso   1.000  O
  O522     1.0000 0.56875  0.70144  0.82810  Biso   1.000  O
  C1491    1.0000 0.57680  0.69500  0.79830  Biso   1.000  C
  H1410    1.0000 0.58940  0.67900  0.79750  Biso   1.000  H
  H1411    1.0000 0.56020  0.69100  0.78710  Biso   1.000  H
  C1492    1.0000 0.59104  0.72102  0.78832  Biso   1.000  C
  H1412    1.0000 0.58210  0.72740  0.77080  Biso   1.000  H
  C1493    1.0000 0.62115  0.71790  0.78370  Biso   1.000  C
  H1413    1.0000 0.62800  0.73650  0.77790  Biso   1.000  H
  C1494    1.0000 0.63820  0.70980  0.80870  Biso   1.000  C
  H1414    1.0000 0.63310  0.72140  0.82450  Biso   1.000  H
  H1415    1.0000 0.65780  0.71240  0.80460  Biso   1.000  H
  H1416    1.0000 0.63480  0.69040  0.81320  Biso   1.000  H
  C1495    1.0000 0.62790  0.69780  0.75920  Biso   1.000  C
  H1417    1.0000 0.64790  0.69710  0.75640  Biso   1.000  H
  H1418    1.0000 0.61900  0.70450  0.74240  Biso   1.000  H
  H1419    1.0000 0.62100  0.67930  0.76360  Biso   1.000  H
  N224     1.0000 0.54232  0.84078  0.78120  Biso   1.000  N
  C1496    1.0000 0.54710  0.85640  0.75820  Biso   1.000  C
  O523     1.0000 0.56790  0.85820  0.74550  Biso   1.000  O
  O524     1.0000 0.52370  0.86820  0.74830  Biso   1.000  O
  C1497    1.0000 0.50200  0.85730  0.76310  Biso   1.000  C
  H1420    1.0000 0.49140  0.84460  0.75110  Biso   1.000  H
  H1421    1.0000 0.48950  0.87240  0.76870  Biso   1.000  H
  C1498    1.0000 0.51200  0.84090  0.78990  Biso   1.000  C
  H1422    1.0000 0.50500  0.82160  0.78820  Biso   1.000  H
  O525     1.0000 0.49732  0.70194  0.80439  Biso   1.000  O
  N225     1.0000 0.49546  0.65848  0.83334  Biso   1.000  N
  C1499    1.0000 0.49546  0.67698  0.80454  Biso   1.000  C
  H1423    1.0000 0.49830  0.70390  0.82850  Biso   1.000  H
  C1500    1.0000 0.49158  0.62877  0.82396  Biso   1.000  C
  H1424    1.0000 0.50580  0.61540  0.82990  Biso   1.000  H
  H1425    1.0000 0.48520  0.62600  0.80470  Biso   1.000  H
  C1501    1.0000 0.53864  0.27505  0.27786  Biso   1.000  C
  O526     1.0000 0.52950  0.25300  0.28903  Biso   1.000  O
  O527     1.0000 0.53030  0.28588  0.25556  Biso   1.000  O
  C1502    1.0000 0.56257  0.28928  0.29286  Biso   1.000  C
  C1503    1.0000 0.58295  0.27381  0.30749  Biso   1.000  C
  C1504    1.0000 0.60532  0.28688  0.31979  Biso   1.000  C
  H1426    1.0000 0.61870  0.27620  0.32920  Biso   1.000  H
  C1505    1.0000 0.60839  0.31624  0.31849  Biso   1.000  C
  C1506    1.0000 0.58822  0.33163  0.30387  Biso   1.000  C
  H1427    1.0000 0.58990  0.35110  0.30280  Biso   1.000  H
  C1507    1.0000 0.56584  0.31871  0.29099  Biso   1.000  C
  C1508    1.0000 0.64626  0.31904  0.35513  Biso   1.000  C
  H1428    1.0000 0.63870  0.30300  0.36340  Biso   1.000  H
  C1509    1.0000 0.63346  0.33029  0.33126  Biso   1.000  C
  N226     1.0000 0.58494  0.24143  0.31096  Biso   1.000  N
  C1510    1.0000 0.57210  0.22860  0.33350  Biso   1.000  C
  O528     1.0000 0.56320  0.23950  0.35440  Biso   1.000  O
  O529     1.0000 0.56875  0.20144  0.32810  Biso   1.000  O
  C1511    1.0000 0.57680  0.19500  0.29830  Biso   1.000  C
  H1429    1.0000 0.58940  0.17900  0.29750  Biso   1.000  H
  H1430    1.0000 0.56020  0.19100  0.28710  Biso   1.000  H
  C1512    1.0000 0.59104  0.22102  0.28832  Biso   1.000  C
  H1431    1.0000 0.58210  0.22740  0.27080  Biso   1.000  H
  C1513    1.0000 0.62115  0.21790  0.28370  Biso   1.000  C
  H1432    1.0000 0.62800  0.23650  0.27790  Biso   1.000  H
  C1514    1.0000 0.63820  0.20980  0.30870  Biso   1.000  C
  H1433    1.0000 0.63310  0.22140  0.32450  Biso   1.000  H
  H1434    1.0000 0.65780  0.21240  0.30460  Biso   1.000  H
  H1435    1.0000 0.63480  0.19040  0.31320  Biso   1.000  H
  C1515    1.0000 0.62790  0.19780  0.25920  Biso   1.000  C
  H1436    1.0000 0.64790  0.19710  0.25640  Biso   1.000  H
  H1437    1.0000 0.61900  0.20450  0.24240  Biso   1.000  H
  H1438    1.0000 0.62100  0.17930  0.26360  Biso   1.000  H
  N227     1.0000 0.54232  0.34078  0.28120  Biso   1.000  N
  C1516    1.0000 0.54710  0.35640  0.25820  Biso   1.000  C
  O530     1.0000 0.56790  0.35820  0.24550  Biso   1.000  O
  O531     1.0000 0.52370  0.36820  0.24830  Biso   1.000  O
  C1517    1.0000 0.50200  0.35730  0.26310  Biso   1.000  C
  H1439    1.0000 0.49140  0.34460  0.25110  Biso   1.000  H
  H1440    1.0000 0.48950  0.37240  0.26870  Biso   1.000  H
  C1518    1.0000 0.51200  0.34090  0.28990  Biso   1.000  C
  H1441    1.0000 0.50500  0.32160  0.28820  Biso   1.000  H
  O532     1.0000 0.49732  0.20194  0.30439  Biso   1.000  O
  N228     1.0000 0.49546  0.15848  0.33334  Biso   1.000  N
  C1519    1.0000 0.49546  0.17698  0.30454  Biso   1.000  C
  H1442    1.0000 0.49830  0.20390  0.32850  Biso   1.000  H
  C1520    1.0000 0.49158  0.12877  0.32396  Biso   1.000  C
  H1443    1.0000 0.50580  0.11540  0.32990  Biso   1.000  H
  H1444    1.0000 0.48520  0.12600  0.30470  Biso   1.000  H
  C1521    1.0000 0.96136  0.77505  0.72214  Biso   1.000  C
  O533     1.0000 0.97050  0.75300  0.71097  Biso   1.000  O
  O534     1.0000 0.96970  0.78588  0.74444  Biso   1.000  O
  C1522    1.0000 0.93743  0.78928  0.70714  Biso   1.000  C
  C1523    1.0000 0.91705  0.77381  0.69251  Biso   1.000  C
  C1524    1.0000 0.89468  0.78688  0.68021  Biso   1.000  C
  H1445    1.0000 0.88130  0.77620  0.67080  Biso   1.000  H
  C1525    1.0000 0.89161  0.81624  0.68151  Biso   1.000  C
  C1526    1.0000 0.91178  0.83163  0.69613  Biso   1.000  C
  H1446    1.0000 0.91010  0.85110  0.69720  Biso   1.000  H
  C1527    1.0000 0.93416  0.81871  0.70901  Biso   1.000  C
  C1528    1.0000 0.85374  0.81904  0.64487  Biso   1.000  C
  H1447    1.0000 0.86130  0.80300  0.63660  Biso   1.000  H
  C1529    1.0000 0.86654  0.83029  0.66874  Biso   1.000  C
  N229     1.0000 0.91506  0.74143  0.68904  Biso   1.000  N
  C1530    1.0000 0.92790  0.72860  0.66650  Biso   1.000  C
  O535     1.0000 0.93680  0.73950  0.64560  Biso   1.000  O
  O536     1.0000 0.93125  0.70144  0.67190  Biso   1.000  O
  C1531    1.0000 0.92320  0.69500  0.70170  Biso   1.000  C
  H1448    1.0000 0.91060  0.67900  0.70250  Biso   1.000  H
  H1449    1.0000 0.93980  0.69100  0.71290  Biso   1.000  H
  C1532    1.0000 0.90896  0.72102  0.71168  Biso   1.000  C
  H1450    1.0000 0.91790  0.72740  0.72920  Biso   1.000  H
  C1533    1.0000 0.87885  0.71790  0.71630  Biso   1.000  C
  H1451    1.0000 0.87200  0.73650  0.72210  Biso   1.000  H
  C1534    1.0000 0.86180  0.70980  0.69130  Biso   1.000  C
  H1452    1.0000 0.86690  0.72140  0.67550  Biso   1.000  H
  H1453    1.0000 0.84220  0.71240  0.69540  Biso   1.000  H
  H1454    1.0000 0.86520  0.69040  0.68680  Biso   1.000  H
  C1535    1.0000 0.87210  0.69780  0.74080  Biso   1.000  C
  H1455    1.0000 0.85210  0.69710  0.74360  Biso   1.000  H
  H1456    1.0000 0.88100  0.70450  0.75760  Biso   1.000  H
  H1457    1.0000 0.87900  0.67930  0.73640  Biso   1.000  H
  N230     1.0000 0.95768  0.84078  0.71880  Biso   1.000  N
  C1536    1.0000 0.95290  0.85640  0.74180  Biso   1.000  C
  O537     1.0000 0.93210  0.85820  0.75450  Biso   1.000  O
  O538     1.0000 0.97630  0.86820  0.75170  Biso   1.000  O
  C1537    1.0000 0.99800  0.85730  0.73690  Biso   1.000  C
  H1458    1.0000 0.00860  0.84460  0.74890  Biso   1.000  H
  H1459    1.0000 0.01050  0.87240  0.73130  Biso   1.000  H
  C1538    1.0000 0.98800  0.84090  0.71010  Biso   1.000  C
  H1460    1.0000 0.99500  0.82160  0.71180  Biso   1.000  H
  O539     1.0000 0.00268  0.70194  0.69561  Biso   1.000  O
  N231     1.0000 0.00454  0.65848  0.66666  Biso   1.000  N
  C1539    1.0000 0.00454  0.67698  0.69546  Biso   1.000  C
  H1461    1.0000 0.00170  0.70390  0.67150  Biso   1.000  H
  C1540    1.0000 0.00842  0.62877  0.67604  Biso   1.000  C
  H1462    1.0000 0.99420  0.61540  0.67010  Biso   1.000  H
  H1463    1.0000 0.01480  0.62600  0.69530  Biso   1.000  H
  C1541    1.0000 0.96136  0.27505  0.22214  Biso   1.000  C
  O540     1.0000 0.97050  0.25300  0.21097  Biso   1.000  O
  O541     1.0000 0.96970  0.28588  0.24444  Biso   1.000  O
  C1542    1.0000 0.93743  0.28928  0.20714  Biso   1.000  C
  C1543    1.0000 0.91705  0.27381  0.19251  Biso   1.000  C
  C1544    1.0000 0.89468  0.28688  0.18021  Biso   1.000  C
  H1464    1.0000 0.88130  0.27620  0.17080  Biso   1.000  H
  C1545    1.0000 0.89161  0.31624  0.18151  Biso   1.000  C
  C1546    1.0000 0.91178  0.33163  0.19613  Biso   1.000  C
  H1465    1.0000 0.91010  0.35110  0.19720  Biso   1.000  H
  C1547    1.0000 0.93416  0.31871  0.20901  Biso   1.000  C
  C1548    1.0000 0.85374  0.31904  0.14487  Biso   1.000  C
  H1466    1.0000 0.86130  0.30300  0.13660  Biso   1.000  H
  C1549    1.0000 0.86654  0.33029  0.16874  Biso   1.000  C
  N232     1.0000 0.91506  0.24143  0.18904  Biso   1.000  N
  C1550    1.0000 0.92790  0.22860  0.16650  Biso   1.000  C
  O542     1.0000 0.93680  0.23950  0.14560  Biso   1.000  O
  O543     1.0000 0.93125  0.20144  0.17190  Biso   1.000  O
  C1551    1.0000 0.92320  0.19500  0.20170  Biso   1.000  C
  H1467    1.0000 0.91060  0.17900  0.20250  Biso   1.000  H
  H1468    1.0000 0.93980  0.19100  0.21290  Biso   1.000  H
  C1552    1.0000 0.90896  0.22102  0.21168  Biso   1.000  C
  H1469    1.0000 0.91790  0.22740  0.22920  Biso   1.000  H
  C1553    1.0000 0.87885  0.21790  0.21630  Biso   1.000  C
  H1470    1.0000 0.87200  0.23650  0.22210  Biso   1.000  H
  C1554    1.0000 0.86180  0.20980  0.19130  Biso   1.000  C
  H1471    1.0000 0.86690  0.22140  0.17550  Biso   1.000  H
  H1472    1.0000 0.84220  0.21240  0.19540  Biso   1.000  H
  H1473    1.0000 0.86520  0.19040  0.18680  Biso   1.000  H
  C1555    1.0000 0.87210  0.19780  0.24080  Biso   1.000  C
  H1474    1.0000 0.85210  0.19710  0.24360  Biso   1.000  H
  H1475    1.0000 0.88100  0.20450  0.25760  Biso   1.000  H
  H1476    1.0000 0.87900  0.17930  0.23640  Biso   1.000  H
  N233     1.0000 0.95768  0.34078  0.21880  Biso   1.000  N
  C1556    1.0000 0.95290  0.35640  0.24180  Biso   1.000  C
  O544     1.0000 0.93210  0.35820  0.25450  Biso   1.000  O
  O545     1.0000 0.97630  0.36820  0.25170  Biso   1.000  O
  C1557    1.0000 0.99800  0.35730  0.23690  Biso   1.000  C
  H1477    1.0000 0.00860  0.34460  0.24890  Biso   1.000  H
  H1478    1.0000 0.01050  0.37240  0.23130  Biso   1.000  H
  C1558    1.0000 0.98800  0.34090  0.21010  Biso   1.000  C
  H1479    1.0000 0.99500  0.32160  0.21180  Biso   1.000  H
  O546     1.0000 0.00268  0.20194  0.19561  Biso   1.000  O
  N234     1.0000 0.00454  0.15848  0.16666  Biso   1.000  N
  C1559    1.0000 0.00454  0.17698  0.19546  Biso   1.000  C
  H1480    1.0000 0.00170  0.20390  0.17150  Biso   1.000  H
  C1560    1.0000 0.00842  0.12877  0.17604  Biso   1.000  C
  H1481    1.0000 0.99420  0.11540  0.17010  Biso   1.000  H
  H1482    1.0000 0.01480  0.12600  0.19530  Biso   1.000  H
  C1561    1.0000 0.46136  0.77505  0.22214  Biso   1.000  C
  O547     1.0000 0.47050  0.75300  0.21097  Biso   1.000  O
  O548     1.0000 0.46970  0.78588  0.24444  Biso   1.000  O
  C1562    1.0000 0.43743  0.78928  0.20714  Biso   1.000  C
  C1563    1.0000 0.41705  0.77381  0.19251  Biso   1.000  C
  C1564    1.0000 0.39468  0.78688  0.18021  Biso   1.000  C
  H1483    1.0000 0.38130  0.77620  0.17080  Biso   1.000  H
  C1565    1.0000 0.39161  0.81624  0.18151  Biso   1.000  C
  C1566    1.0000 0.41178  0.83163  0.19613  Biso   1.000  C
  H1484    1.0000 0.41010  0.85110  0.19720  Biso   1.000  H
  C1567    1.0000 0.43416  0.81871  0.20901  Biso   1.000  C
  C1568    1.0000 0.35374  0.81904  0.14487  Biso   1.000  C
  H1485    1.0000 0.36130  0.80300  0.13660  Biso   1.000  H
  C1569    1.0000 0.36654  0.83029  0.16874  Biso   1.000  C
  N235     1.0000 0.41506  0.74143  0.18904  Biso   1.000  N
  C1570    1.0000 0.42790  0.72860  0.16650  Biso   1.000  C
  O549     1.0000 0.43680  0.73950  0.14560  Biso   1.000  O
  O550     1.0000 0.43125  0.70144  0.17190  Biso   1.000  O
  C1571    1.0000 0.42320  0.69500  0.20170  Biso   1.000  C
  H1486    1.0000 0.41060  0.67900  0.20250  Biso   1.000  H
  H1487    1.0000 0.43980  0.69100  0.21290  Biso   1.000  H
  C1572    1.0000 0.40896  0.72102  0.21168  Biso   1.000  C
  H1488    1.0000 0.41790  0.72740  0.22920  Biso   1.000  H
  C1573    1.0000 0.37885  0.71790  0.21630  Biso   1.000  C
  H1489    1.0000 0.37200  0.73650  0.22210  Biso   1.000  H
  C1574    1.0000 0.36180  0.70980  0.19130  Biso   1.000  C
  H1490    1.0000 0.36690  0.72140  0.17550  Biso   1.000  H
  H1491    1.0000 0.34220  0.71240  0.19540  Biso   1.000  H
  H1492    1.0000 0.36520  0.69040  0.18680  Biso   1.000  H
  C1575    1.0000 0.37210  0.69780  0.24080  Biso   1.000  C
  H1493    1.0000 0.35210  0.69710  0.24360  Biso   1.000  H
  H1494    1.0000 0.38100  0.70450  0.25760  Biso   1.000  H
  H1495    1.0000 0.37900  0.67930  0.23640  Biso   1.000  H
  N236     1.0000 0.45768  0.84078  0.21880  Biso   1.000  N
  C1576    1.0000 0.45290  0.85640  0.24180  Biso   1.000  C
  O551     1.0000 0.43210  0.85820  0.25450  Biso   1.000  O
  O552     1.0000 0.47630  0.86820  0.25170  Biso   1.000  O
  C1577    1.0000 0.49800  0.85730  0.23690  Biso   1.000  C
  H1496    1.0000 0.50860  0.84460  0.24890  Biso   1.000  H
  H1497    1.0000 0.51050  0.87240  0.23130  Biso   1.000  H
  C1578    1.0000 0.48800  0.84090  0.21010  Biso   1.000  C
  H1498    1.0000 0.49500  0.82160  0.21180  Biso   1.000  H
  O553     1.0000 0.50268  0.70194  0.19561  Biso   1.000  O
  N237     1.0000 0.50454  0.65848  0.16666  Biso   1.000  N
  C1579    1.0000 0.50454  0.67698  0.19546  Biso   1.000  C
  H1499    1.0000 0.50170  0.70390  0.17150  Biso   1.000  H
  C1580    1.0000 0.50842  0.62877  0.17604  Biso   1.000  C
  H1500    1.0000 0.49420  0.61540  0.17010  Biso   1.000  H
  H1501    1.0000 0.51480  0.62600  0.19530  Biso   1.000  H
  C1581    1.0000 0.46136  0.27505  0.72214  Biso   1.000  C
  O554     1.0000 0.47050  0.25300  0.71097  Biso   1.000  O
  O555     1.0000 0.46970  0.28588  0.74444  Biso   1.000  O
  C1582    1.0000 0.43743  0.28928  0.70714  Biso   1.000  C
  C1583    1.0000 0.41705  0.27381  0.69251  Biso   1.000  C
  C1584    1.0000 0.39468  0.28688  0.68021  Biso   1.000  C
  H1502    1.0000 0.38130  0.27620  0.67080  Biso   1.000  H
  C1585    1.0000 0.39161  0.31624  0.68151  Biso   1.000  C
  C1586    1.0000 0.41178  0.33163  0.69613  Biso   1.000  C
  H1503    1.0000 0.41010  0.35110  0.69720  Biso   1.000  H
  C1587    1.0000 0.43416  0.31871  0.70901  Biso   1.000  C
  C1588    1.0000 0.35374  0.31904  0.64487  Biso   1.000  C
  H1504    1.0000 0.36130  0.30300  0.63660  Biso   1.000  H
  C1589    1.0000 0.36654  0.33029  0.66874  Biso   1.000  C
  N238     1.0000 0.41506  0.24143  0.68904  Biso   1.000  N
  C1590    1.0000 0.42790  0.22860  0.66650  Biso   1.000  C
  O556     1.0000 0.43680  0.23950  0.64560  Biso   1.000  O
  O557     1.0000 0.43125  0.20144  0.67190  Biso   1.000  O
  C1591    1.0000 0.42320  0.19500  0.70170  Biso   1.000  C
  H1505    1.0000 0.41060  0.17900  0.70250  Biso   1.000  H
  H1506    1.0000 0.43980  0.19100  0.71290  Biso   1.000  H
  C1592    1.0000 0.40896  0.22102  0.71168  Biso   1.000  C
  H1507    1.0000 0.41790  0.22740  0.72920  Biso   1.000  H
  C1593    1.0000 0.37885  0.21790  0.71630  Biso   1.000  C
  H1508    1.0000 0.37200  0.23650  0.72210  Biso   1.000  H
  C1594    1.0000 0.36180  0.20980  0.69130  Biso   1.000  C
  H1509    1.0000 0.36690  0.22140  0.67550  Biso   1.000  H
  H1510    1.0000 0.34220  0.21240  0.69540  Biso   1.000  H
  H1511    1.0000 0.36520  0.19040  0.68680  Biso   1.000  H
  C1595    1.0000 0.37210  0.19780  0.74080  Biso   1.000  C
  H1512    1.0000 0.35210  0.19710  0.74360  Biso   1.000  H
  H1513    1.0000 0.38100  0.20450  0.75760  Biso   1.000  H
  H1514    1.0000 0.37900  0.17930  0.73640  Biso   1.000  H
  N239     1.0000 0.45768  0.34078  0.71880  Biso   1.000  N
  C1596    1.0000 0.45290  0.35640  0.74180  Biso   1.000  C
  O558     1.0000 0.43210  0.35820  0.75450  Biso   1.000  O
  O559     1.0000 0.47630  0.36820  0.75170  Biso   1.000  O
  C1597    1.0000 0.49800  0.35730  0.73690  Biso   1.000  C
  H1515    1.0000 0.50860  0.34460  0.74890  Biso   1.000  H
  H1516    1.0000 0.51050  0.37240  0.73130  Biso   1.000  H
  C1598    1.0000 0.48800  0.34090  0.71010  Biso   1.000  C
  H1517    1.0000 0.49500  0.32160  0.71180  Biso   1.000  H
  O560     1.0000 0.50268  0.20194  0.69561  Biso   1.000  O
  N240     1.0000 0.50454  0.15848  0.66666  Biso   1.000  N
  C1599    1.0000 0.50454  0.17698  0.69546  Biso   1.000  C
  H1518    1.0000 0.50170  0.20390  0.67150  Biso   1.000  H
  C1600    1.0000 0.50842  0.12877  0.67604  Biso   1.000  C
  H1519    1.0000 0.49420  0.11540  0.67010  Biso   1.000  H
  H1520    1.0000 0.51480  0.12600  0.69530  Biso   1.000  H
  C1601    1.0000 0.22495  0.72214  0.03864  Biso   1.000  C
  O561     1.0000 0.24700  0.71097  0.02950  Biso   1.000  O
  O562     1.0000 0.21412  0.74444  0.03030  Biso   1.000  O
  C1602    1.0000 0.21072  0.70714  0.06257  Biso   1.000  C
  C1603    1.0000 0.22619  0.69251  0.08295  Biso   1.000  C
  C1604    1.0000 0.21312  0.68021  0.10532  Biso   1.000  C
  H1521    1.0000 0.22380  0.67080  0.11870  Biso   1.000  H
  C1605    1.0000 0.18376  0.68151  0.10839  Biso   1.000  C
  C1606    1.0000 0.16837  0.69613  0.08822  Biso   1.000  C
  H1522    1.0000 0.14890  0.69720  0.08990  Biso   1.000  H
  C1607    1.0000 0.18129  0.70901  0.06584  Biso   1.000  C
  C1608    1.0000 0.18096  0.64487  0.14626  Biso   1.000  C
  H1523    1.0000 0.19700  0.63660  0.13870  Biso   1.000  H
  C1609    1.0000 0.16971  0.66874  0.13346  Biso   1.000  C
  N241     1.0000 0.25857  0.68904  0.08494  Biso   1.000  N
  C1610    1.0000 0.27140  0.66650  0.07210  Biso   1.000  C
  O563     1.0000 0.26050  0.64560  0.06320  Biso   1.000  O
  O564     1.0000 0.29856  0.67190  0.06875  Biso   1.000  O
  C1611    1.0000 0.30500  0.70170  0.07680  Biso   1.000  C
  H1524    1.0000 0.32100  0.70250  0.08940  Biso   1.000  H
  H1525    1.0000 0.30900  0.71290  0.06020  Biso   1.000  H
  C1612    1.0000 0.27898  0.71168  0.09104  Biso   1.000  C
  H1526    1.0000 0.27260  0.72920  0.08210  Biso   1.000  H
  C1613    1.0000 0.28210  0.71630  0.12115  Biso   1.000  C
  H1527    1.0000 0.26350  0.72210  0.12800  Biso   1.000  H
  C1614    1.0000 0.29020  0.69130  0.13820  Biso   1.000  C
  H1528    1.0000 0.27860  0.67550  0.13310  Biso   1.000  H
  H1529    1.0000 0.28760  0.69540  0.15780  Biso   1.000  H
  H1530    1.0000 0.30960  0.68680  0.13480  Biso   1.000  H
  C1615    1.0000 0.30220  0.74080  0.12790  Biso   1.000  C
  H1531    1.0000 0.30290  0.74360  0.14790  Biso   1.000  H
  H1532    1.0000 0.29550  0.75760  0.11900  Biso   1.000  H
  H1533    1.0000 0.32070  0.73640  0.12100  Biso   1.000  H
  N242     1.0000 0.15922  0.71880  0.04232  Biso   1.000  N
  C1616    1.0000 0.14360  0.74180  0.04710  Biso   1.000  C
  O565     1.0000 0.14180  0.75450  0.06790  Biso   1.000  O
  O566     1.0000 0.13180  0.75170  0.02370  Biso   1.000  O
  C1617    1.0000 0.14270  0.73690  0.00200  Biso   1.000  C
  H1534    1.0000 0.15540  0.74890  0.99140  Biso   1.000  H
  H1535    1.0000 0.12760  0.73130  0.98950  Biso   1.000  H
  C1618    1.0000 0.15910  0.71010  0.01200  Biso   1.000  C
  H1536    1.0000 0.17840  0.71180  0.00500  Biso   1.000  H
  O567     1.0000 0.29806  0.69561  0.99732  Biso   1.000  O
  N243     1.0000 0.34152  0.66666  0.99546  Biso   1.000  N
  C1619    1.0000 0.32302  0.69546  0.99546  Biso   1.000  C
  H1537    1.0000 0.29610  0.67150  0.99830  Biso   1.000  H
  C1620    1.0000 0.37123  0.67604  0.99158  Biso   1.000  C
  H1538    1.0000 0.38460  0.67010  0.00580  Biso   1.000  H
  H1539    1.0000 0.37400  0.69530  0.98520  Biso   1.000  H
  C1621    1.0000 0.22495  0.22214  0.53864  Biso   1.000  C
  O568     1.0000 0.24700  0.21097  0.52950  Biso   1.000  O
  O569     1.0000 0.21412  0.24444  0.53030  Biso   1.000  O
  C1622    1.0000 0.21072  0.20714  0.56257  Biso   1.000  C
  C1623    1.0000 0.22619  0.19251  0.58295  Biso   1.000  C
  C1624    1.0000 0.21312  0.18021  0.60532  Biso   1.000  C
  H1540    1.0000 0.22380  0.17080  0.61870  Biso   1.000  H
  C1625    1.0000 0.18376  0.18151  0.60839  Biso   1.000  C
  C1626    1.0000 0.16837  0.19613  0.58822  Biso   1.000  C
  H1541    1.0000 0.14890  0.19720  0.58990  Biso   1.000  H
  C1627    1.0000 0.18129  0.20901  0.56584  Biso   1.000  C
  C1628    1.0000 0.18096  0.14487  0.64626  Biso   1.000  C
  H1542    1.0000 0.19700  0.13660  0.63870  Biso   1.000  H
  C1629    1.0000 0.16971  0.16874  0.63346  Biso   1.000  C
  N244     1.0000 0.25857  0.18904  0.58494  Biso   1.000  N
  C1630    1.0000 0.27140  0.16650  0.57210  Biso   1.000  C
  O570     1.0000 0.26050  0.14560  0.56320  Biso   1.000  O
  O571     1.0000 0.29856  0.17190  0.56875  Biso   1.000  O
  C1631    1.0000 0.30500  0.20170  0.57680  Biso   1.000  C
  H1543    1.0000 0.32100  0.20250  0.58940  Biso   1.000  H
  H1544    1.0000 0.30900  0.21290  0.56020  Biso   1.000  H
  C1632    1.0000 0.27898  0.21168  0.59104  Biso   1.000  C
  H1545    1.0000 0.27260  0.22920  0.58210  Biso   1.000  H
  C1633    1.0000 0.28210  0.21630  0.62115  Biso   1.000  C
  H1546    1.0000 0.26350  0.22210  0.62800  Biso   1.000  H
  C1634    1.0000 0.29020  0.19130  0.63820  Biso   1.000  C
  H1547    1.0000 0.27860  0.17550  0.63310  Biso   1.000  H
  H1548    1.0000 0.28760  0.19540  0.65780  Biso   1.000  H
  H1549    1.0000 0.30960  0.18680  0.63480  Biso   1.000  H
  C1635    1.0000 0.30220  0.24080  0.62790  Biso   1.000  C
  H1550    1.0000 0.30290  0.24360  0.64790  Biso   1.000  H
  H1551    1.0000 0.29550  0.25760  0.61900  Biso   1.000  H
  H1552    1.0000 0.32070  0.23640  0.62100  Biso   1.000  H
  N245     1.0000 0.15922  0.21880  0.54232  Biso   1.000  N
  C1636    1.0000 0.14360  0.24180  0.54710  Biso   1.000  C
  O572     1.0000 0.14180  0.25450  0.56790  Biso   1.000  O
  O573     1.0000 0.13180  0.25170  0.52370  Biso   1.000  O
  C1637    1.0000 0.14270  0.23690  0.50200  Biso   1.000  C
  H1553    1.0000 0.15540  0.24890  0.49140  Biso   1.000  H
  H1554    1.0000 0.12760  0.23130  0.48950  Biso   1.000  H
  C1638    1.0000 0.15910  0.21010  0.51200  Biso   1.000  C
  H1555    1.0000 0.17840  0.21180  0.50500  Biso   1.000  H
  O574     1.0000 0.29806  0.19561  0.49732  Biso   1.000  O
  N246     1.0000 0.34152  0.16666  0.49546  Biso   1.000  N
  C1639    1.0000 0.32302  0.19546  0.49546  Biso   1.000  C
  H1556    1.0000 0.29610  0.17150  0.49830  Biso   1.000  H
  C1640    1.0000 0.37123  0.17604  0.49158  Biso   1.000  C
  H1557    1.0000 0.38460  0.17010  0.50580  Biso   1.000  H
  H1558    1.0000 0.37400  0.19530  0.48520  Biso   1.000  H
  C1641    1.0000 0.72495  0.72214  0.53864  Biso   1.000  C
  O575     1.0000 0.74700  0.71097  0.52950  Biso   1.000  O
  O576     1.0000 0.71412  0.74444  0.53030  Biso   1.000  O
  C1642    1.0000 0.71072  0.70714  0.56257  Biso   1.000  C
  C1643    1.0000 0.72619  0.69251  0.58295  Biso   1.000  C
  C1644    1.0000 0.71312  0.68021  0.60532  Biso   1.000  C
  H1559    1.0000 0.72380  0.67080  0.61870  Biso   1.000  H
  C1645    1.0000 0.68376  0.68151  0.60839  Biso   1.000  C
  C1646    1.0000 0.66837  0.69613  0.58822  Biso   1.000  C
  H1560    1.0000 0.64890  0.69720  0.58990  Biso   1.000  H
  C1647    1.0000 0.68129  0.70901  0.56584  Biso   1.000  C
  C1648    1.0000 0.68096  0.64487  0.64626  Biso   1.000  C
  H1561    1.0000 0.69700  0.63660  0.63870  Biso   1.000  H
  C1649    1.0000 0.66971  0.66874  0.63346  Biso   1.000  C
  N247     1.0000 0.75857  0.68904  0.58494  Biso   1.000  N
  C1650    1.0000 0.77140  0.66650  0.57210  Biso   1.000  C
  O577     1.0000 0.76050  0.64560  0.56320  Biso   1.000  O
  O578     1.0000 0.79856  0.67190  0.56875  Biso   1.000  O
  C1651    1.0000 0.80500  0.70170  0.57680  Biso   1.000  C
  H1562    1.0000 0.82100  0.70250  0.58940  Biso   1.000  H
  H1563    1.0000 0.80900  0.71290  0.56020  Biso   1.000  H
  C1652    1.0000 0.77898  0.71168  0.59104  Biso   1.000  C
  H1564    1.0000 0.77260  0.72920  0.58210  Biso   1.000  H
  C1653    1.0000 0.78210  0.71630  0.62115  Biso   1.000  C
  H1565    1.0000 0.76350  0.72210  0.62800  Biso   1.000  H
  C1654    1.0000 0.79020  0.69130  0.63820  Biso   1.000  C
  H1566    1.0000 0.77860  0.67550  0.63310  Biso   1.000  H
  H1567    1.0000 0.78760  0.69540  0.65780  Biso   1.000  H
  H1568    1.0000 0.80960  0.68680  0.63480  Biso   1.000  H
  C1655    1.0000 0.80220  0.74080  0.62790  Biso   1.000  C
  H1569    1.0000 0.80290  0.74360  0.64790  Biso   1.000  H
  H1570    1.0000 0.79550  0.75760  0.61900  Biso   1.000  H
  H1571    1.0000 0.82070  0.73640  0.62100  Biso   1.000  H
  N248     1.0000 0.65922  0.71880  0.54232  Biso   1.000  N
  C1656    1.0000 0.64360  0.74180  0.54710  Biso   1.000  C
  O579     1.0000 0.64180  0.75450  0.56790  Biso   1.000  O
  O580     1.0000 0.63180  0.75170  0.52370  Biso   1.000  O
  C1657    1.0000 0.64270  0.73690  0.50200  Biso   1.000  C
  H1572    1.0000 0.65540  0.74890  0.49140  Biso   1.000  H
  H1573    1.0000 0.62760  0.73130  0.48950  Biso   1.000  H
  C1658    1.0000 0.65910  0.71010  0.51200  Biso   1.000  C
  H1574    1.0000 0.67840  0.71180  0.50500  Biso   1.000  H
  O581     1.0000 0.79806  0.69561  0.49732  Biso   1.000  O
  N249     1.0000 0.84152  0.66666  0.49546  Biso   1.000  N
  C1659    1.0000 0.82302  0.69546  0.49546  Biso   1.000  C
  H1575    1.0000 0.79610  0.67150  0.49830  Biso   1.000  H
  C1660    1.0000 0.87123  0.67604  0.49158  Biso   1.000  C
  H1576    1.0000 0.88460  0.67010  0.50580  Biso   1.000  H
  H1577    1.0000 0.87400  0.69530  0.48520  Biso   1.000  H
  C1661    1.0000 0.72495  0.22214  0.03864  Biso   1.000  C
  O582     1.0000 0.74700  0.21097  0.02950  Biso   1.000  O
  O583     1.0000 0.71412  0.24444  0.03030  Biso   1.000  O
  C1662    1.0000 0.71072  0.20714  0.06257  Biso   1.000  C
  C1663    1.0000 0.72619  0.19251  0.08295  Biso   1.000  C
  C1664    1.0000 0.71312  0.18021  0.10532  Biso   1.000  C
  H1578    1.0000 0.72380  0.17080  0.11870  Biso   1.000  H
  C1665    1.0000 0.68376  0.18151  0.10839  Biso   1.000  C
  C1666    1.0000 0.66837  0.19613  0.08822  Biso   1.000  C
  H1579    1.0000 0.64890  0.19720  0.08990  Biso   1.000  H
  C1667    1.0000 0.68129  0.20901  0.06584  Biso   1.000  C
  C1668    1.0000 0.68096  0.14487  0.14626  Biso   1.000  C
  H1580    1.0000 0.69700  0.13660  0.13870  Biso   1.000  H
  C1669    1.0000 0.66971  0.16874  0.13346  Biso   1.000  C
  N250     1.0000 0.75857  0.18904  0.08494  Biso   1.000  N
  C1670    1.0000 0.77140  0.16650  0.07210  Biso   1.000  C
  O584     1.0000 0.76050  0.14560  0.06320  Biso   1.000  O
  O585     1.0000 0.79856  0.17190  0.06875  Biso   1.000  O
  C1671    1.0000 0.80500  0.20170  0.07680  Biso   1.000  C
  H1581    1.0000 0.82100  0.20250  0.08940  Biso   1.000  H
  H1582    1.0000 0.80900  0.21290  0.06020  Biso   1.000  H
  C1672    1.0000 0.77898  0.21168  0.09104  Biso   1.000  C
  H1583    1.0000 0.77260  0.22920  0.08210  Biso   1.000  H
  C1673    1.0000 0.78210  0.21630  0.12115  Biso   1.000  C
  H1584    1.0000 0.76350  0.22210  0.12800  Biso   1.000  H
  C1674    1.0000 0.79020  0.19130  0.13820  Biso   1.000  C
  H1585    1.0000 0.77860  0.17550  0.13310  Biso   1.000  H
  H1586    1.0000 0.78760  0.19540  0.15780  Biso   1.000  H
  H1587    1.0000 0.80960  0.18680  0.13480  Biso   1.000  H
  C1675    1.0000 0.80220  0.24080  0.12790  Biso   1.000  C
  H1588    1.0000 0.80290  0.24360  0.14790  Biso   1.000  H
  H1589    1.0000 0.79550  0.25760  0.11900  Biso   1.000  H
  H1590    1.0000 0.82070  0.23640  0.12100  Biso   1.000  H
  N251     1.0000 0.65922  0.21880  0.04232  Biso   1.000  N
  C1676    1.0000 0.64360  0.24180  0.04710  Biso   1.000  C
  O586     1.0000 0.64180  0.25450  0.06790  Biso   1.000  O
  O587     1.0000 0.63180  0.25170  0.02370  Biso   1.000  O
  C1677    1.0000 0.64270  0.23690  0.00200  Biso   1.000  C
  H1591    1.0000 0.65540  0.24890  0.99140  Biso   1.000  H
  H1592    1.0000 0.62760  0.23130  0.98950  Biso   1.000  H
  C1678    1.0000 0.65910  0.21010  0.01200  Biso   1.000  C
  H1593    1.0000 0.67840  0.21180  0.00500  Biso   1.000  H
  O588     1.0000 0.79806  0.19561  0.99732  Biso   1.000  O
  N252     1.0000 0.84152  0.16666  0.99546  Biso   1.000  N
  C1679    1.0000 0.82302  0.19546  0.99546  Biso   1.000  C
  H1594    1.0000 0.79610  0.17150  0.99830  Biso   1.000  H
  C1680    1.0000 0.87123  0.17604  0.99158  Biso   1.000  C
  H1595    1.0000 0.88460  0.17010  0.00580  Biso   1.000  H
  H1596    1.0000 0.87400  0.19530  0.98520  Biso   1.000  H
  C1681    1.0000 0.22495  0.27786  0.96136  Biso   1.000  C
  O589     1.0000 0.24700  0.28903  0.97050  Biso   1.000  O
  O590     1.0000 0.21412  0.25556  0.96970  Biso   1.000  O
  C1682    1.0000 0.21072  0.29286  0.93743  Biso   1.000  C
  C1683    1.0000 0.22619  0.30749  0.91705  Biso   1.000  C
  C1684    1.0000 0.21312  0.31979  0.89468  Biso   1.000  C
  H1597    1.0000 0.22380  0.32920  0.88130  Biso   1.000  H
  C1685    1.0000 0.18376  0.31849  0.89161  Biso   1.000  C
  C1686    1.0000 0.16837  0.30387  0.91178  Biso   1.000  C
  H1598    1.0000 0.14890  0.30280  0.91010  Biso   1.000  H
  C1687    1.0000 0.18129  0.29099  0.93416  Biso   1.000  C
  C1688    1.0000 0.18096  0.35513  0.85374  Biso   1.000  C
  H1599    1.0000 0.19700  0.36340  0.86130  Biso   1.000  H
  C1689    1.0000 0.16971  0.33126  0.86654  Biso   1.000  C
  N253     1.0000 0.25857  0.31096  0.91506  Biso   1.000  N
  C1690    1.0000 0.27140  0.33350  0.92790  Biso   1.000  C
  O591     1.0000 0.26050  0.35440  0.93680  Biso   1.000  O
  O592     1.0000 0.29856  0.32810  0.93125  Biso   1.000  O
  C1691    1.0000 0.30500  0.29830  0.92320  Biso   1.000  C
  H1600    1.0000 0.32100  0.29750  0.91060  Biso   1.000  H
  H1601    1.0000 0.30900  0.28710  0.93980  Biso   1.000  H
  C1692    1.0000 0.27898  0.28832  0.90896  Biso   1.000  C
  H1602    1.0000 0.27260  0.27080  0.91790  Biso   1.000  H
  C1693    1.0000 0.28210  0.28370  0.87885  Biso   1.000  C
  H1603    1.0000 0.26350  0.27790  0.87200  Biso   1.000  H
  C1694    1.0000 0.29020  0.30870  0.86180  Biso   1.000  C
  H1604    1.0000 0.27860  0.32450  0.86690  Biso   1.000  H
  H1605    1.0000 0.28760  0.30460  0.84220  Biso   1.000  H
  H1606    1.0000 0.30960  0.31320  0.86520  Biso   1.000  H
  C1695    1.0000 0.30220  0.25920  0.87210  Biso   1.000  C
  H1607    1.0000 0.30290  0.25640  0.85210  Biso   1.000  H
  H1608    1.0000 0.29550  0.24240  0.88100  Biso   1.000  H
  H1609    1.0000 0.32070  0.26360  0.87900  Biso   1.000  H
  N254     1.0000 0.15922  0.28120  0.95768  Biso   1.000  N
  C1696    1.0000 0.14360  0.25820  0.95290  Biso   1.000  C
  O593     1.0000 0.14180  0.24550  0.93210  Biso   1.000  O
  O594     1.0000 0.13180  0.24830  0.97630  Biso   1.000  O
  C1697    1.0000 0.14270  0.26310  0.99800  Biso   1.000  C
  H1610    1.0000 0.15540  0.25110  0.00860  Biso   1.000  H
  H1611    1.0000 0.12760  0.26870  0.01050  Biso   1.000  H
  C1698    1.0000 0.15910  0.28990  0.98800  Biso   1.000  C
  H1612    1.0000 0.17840  0.28820  0.99500  Biso   1.000  H
  O595     1.0000 0.29806  0.30439  0.00268  Biso   1.000  O
  N255     1.0000 0.34152  0.33334  0.00454  Biso   1.000  N
  C1699    1.0000 0.32302  0.30454  0.00454  Biso   1.000  C
  H1613    1.0000 0.29610  0.32850  0.00170  Biso   1.000  H
  C1700    1.0000 0.37123  0.32396  0.00842  Biso   1.000  C
  H1614    1.0000 0.38460  0.32990  0.99420  Biso   1.000  H
  H1615    1.0000 0.37400  0.30470  0.01480  Biso   1.000  H
  C1701    1.0000 0.22495  0.77786  0.46136  Biso   1.000  C
  O596     1.0000 0.24700  0.78903  0.47050  Biso   1.000  O
  O597     1.0000 0.21412  0.75556  0.46970  Biso   1.000  O
  C1702    1.0000 0.21072  0.79286  0.43743  Biso   1.000  C
  C1703    1.0000 0.22619  0.80749  0.41705  Biso   1.000  C
  C1704    1.0000 0.21312  0.81979  0.39468  Biso   1.000  C
  H1616    1.0000 0.22380  0.82920  0.38130  Biso   1.000  H
  C1705    1.0000 0.18376  0.81849  0.39161  Biso   1.000  C
  C1706    1.0000 0.16837  0.80387  0.41178  Biso   1.000  C
  H1617    1.0000 0.14890  0.80280  0.41010  Biso   1.000  H
  C1707    1.0000 0.18129  0.79099  0.43416  Biso   1.000  C
  C1708    1.0000 0.18096  0.85513  0.35374  Biso   1.000  C
  H1618    1.0000 0.19700  0.86340  0.36130  Biso   1.000  H
  C1709    1.0000 0.16971  0.83126  0.36654  Biso   1.000  C
  N256     1.0000 0.25857  0.81096  0.41506  Biso   1.000  N
  C1710    1.0000 0.27140  0.83350  0.42790  Biso   1.000  C
  O598     1.0000 0.26050  0.85440  0.43680  Biso   1.000  O
  O599     1.0000 0.29856  0.82810  0.43125  Biso   1.000  O
  C1711    1.0000 0.30500  0.79830  0.42320  Biso   1.000  C
  H1619    1.0000 0.32100  0.79750  0.41060  Biso   1.000  H
  H1620    1.0000 0.30900  0.78710  0.43980  Biso   1.000  H
  C1712    1.0000 0.27898  0.78832  0.40896  Biso   1.000  C
  H1621    1.0000 0.27260  0.77080  0.41790  Biso   1.000  H
  C1713    1.0000 0.28210  0.78370  0.37885  Biso   1.000  C
  H1622    1.0000 0.26350  0.77790  0.37200  Biso   1.000  H
  C1714    1.0000 0.29020  0.80870  0.36180  Biso   1.000  C
  H1623    1.0000 0.27860  0.82450  0.36690  Biso   1.000  H
  H1624    1.0000 0.28760  0.80460  0.34220  Biso   1.000  H
  H1625    1.0000 0.30960  0.81320  0.36520  Biso   1.000  H
  C1715    1.0000 0.30220  0.75920  0.37210  Biso   1.000  C
  H1626    1.0000 0.30290  0.75640  0.35210  Biso   1.000  H
  H1627    1.0000 0.29550  0.74240  0.38100  Biso   1.000  H
  H1628    1.0000 0.32070  0.76360  0.37900  Biso   1.000  H
  N257     1.0000 0.15922  0.78120  0.45768  Biso   1.000  N
  C1716    1.0000 0.14360  0.75820  0.45290  Biso   1.000  C
  O600     1.0000 0.14180  0.74550  0.43210  Biso   1.000  O
  O601     1.0000 0.13180  0.74830  0.47630  Biso   1.000  O
  C1717    1.0000 0.14270  0.76310  0.49800  Biso   1.000  C
  H1629    1.0000 0.15540  0.75110  0.50860  Biso   1.000  H
  H1630    1.0000 0.12760  0.76870  0.51050  Biso   1.000  H
  C1718    1.0000 0.15910  0.78990  0.48800  Biso   1.000  C
  H1631    1.0000 0.17840  0.78820  0.49500  Biso   1.000  H
  O602     1.0000 0.29806  0.80439  0.50268  Biso   1.000  O
  N258     1.0000 0.34152  0.83334  0.50454  Biso   1.000  N
  C1719    1.0000 0.32302  0.80454  0.50454  Biso   1.000  C
  H1632    1.0000 0.29610  0.82850  0.50170  Biso   1.000  H
  C1720    1.0000 0.37123  0.82396  0.50842  Biso   1.000  C
  H1633    1.0000 0.38460  0.82990  0.49420  Biso   1.000  H
  H1634    1.0000 0.37400  0.80470  0.51480  Biso   1.000  H
  C1721    1.0000 0.72495  0.27786  0.46136  Biso   1.000  C
  O603     1.0000 0.74700  0.28903  0.47050  Biso   1.000  O
  O604     1.0000 0.71412  0.25556  0.46970  Biso   1.000  O
  C1722    1.0000 0.71072  0.29286  0.43743  Biso   1.000  C
  C1723    1.0000 0.72619  0.30749  0.41705  Biso   1.000  C
  C1724    1.0000 0.71312  0.31979  0.39468  Biso   1.000  C
  H1635    1.0000 0.72380  0.32920  0.38130  Biso   1.000  H
  C1725    1.0000 0.68376  0.31849  0.39161  Biso   1.000  C
  C1726    1.0000 0.66837  0.30387  0.41178  Biso   1.000  C
  H1636    1.0000 0.64890  0.30280  0.41010  Biso   1.000  H
  C1727    1.0000 0.68129  0.29099  0.43416  Biso   1.000  C
  C1728    1.0000 0.68096  0.35513  0.35374  Biso   1.000  C
  H1637    1.0000 0.69700  0.36340  0.36130  Biso   1.000  H
  C1729    1.0000 0.66971  0.33126  0.36654  Biso   1.000  C
  N259     1.0000 0.75857  0.31096  0.41506  Biso   1.000  N
  C1730    1.0000 0.77140  0.33350  0.42790  Biso   1.000  C
  O605     1.0000 0.76050  0.35440  0.43680  Biso   1.000  O
  O606     1.0000 0.79856  0.32810  0.43125  Biso   1.000  O
  C1731    1.0000 0.80500  0.29830  0.42320  Biso   1.000  C
  H1638    1.0000 0.82100  0.29750  0.41060  Biso   1.000  H
  H1639    1.0000 0.80900  0.28710  0.43980  Biso   1.000  H
  C1732    1.0000 0.77898  0.28832  0.40896  Biso   1.000  C
  H1640    1.0000 0.77260  0.27080  0.41790  Biso   1.000  H
  C1733    1.0000 0.78210  0.28370  0.37885  Biso   1.000  C
  H1641    1.0000 0.76350  0.27790  0.37200  Biso   1.000  H
  C1734    1.0000 0.79020  0.30870  0.36180  Biso   1.000  C
  H1642    1.0000 0.77860  0.32450  0.36690  Biso   1.000  H
  H1643    1.0000 0.78760  0.30460  0.34220  Biso   1.000  H
  H1644    1.0000 0.80960  0.31320  0.36520  Biso   1.000  H
  C1735    1.0000 0.80220  0.25920  0.37210  Biso   1.000  C
  H1645    1.0000 0.80290  0.25640  0.35210  Biso   1.000  H
  H1646    1.0000 0.79550  0.24240  0.38100  Biso   1.000  H
  H1647    1.0000 0.82070  0.26360  0.37900  Biso   1.000  H
  N260     1.0000 0.65922  0.28120  0.45768  Biso   1.000  N
  C1736    1.0000 0.64360  0.25820  0.45290  Biso   1.000  C
  O607     1.0000 0.64180  0.24550  0.43210  Biso   1.000  O
  O608     1.0000 0.63180  0.24830  0.47630  Biso   1.000  O
  C1737    1.0000 0.64270  0.26310  0.49800  Biso   1.000  C
  H1648    1.0000 0.65540  0.25110  0.50860  Biso   1.000  H
  H1649    1.0000 0.62760  0.26870  0.51050  Biso   1.000  H
  C1738    1.0000 0.65910  0.28990  0.48800  Biso   1.000  C
  H1650    1.0000 0.67840  0.28820  0.49500  Biso   1.000  H
  O609     1.0000 0.79806  0.30439  0.50268  Biso   1.000  O
  N261     1.0000 0.84152  0.33334  0.50454  Biso   1.000  N
  C1739    1.0000 0.82302  0.30454  0.50454  Biso   1.000  C
  H1651    1.0000 0.79610  0.32850  0.50170  Biso   1.000  H
  C1740    1.0000 0.87123  0.32396  0.50842  Biso   1.000  C
  H1652    1.0000 0.88460  0.32990  0.49420  Biso   1.000  H
  H1653    1.0000 0.87400  0.30470  0.51480  Biso   1.000  H
  C1741    1.0000 0.72495  0.77786  0.96136  Biso   1.000  C
  O610     1.0000 0.74700  0.78903  0.97050  Biso   1.000  O
  O611     1.0000 0.71412  0.75556  0.96970  Biso   1.000  O
  C1742    1.0000 0.71072  0.79286  0.93743  Biso   1.000  C
  C1743    1.0000 0.72619  0.80749  0.91705  Biso   1.000  C
  C1744    1.0000 0.71312  0.81979  0.89468  Biso   1.000  C
  H1654    1.0000 0.72380  0.82920  0.88130  Biso   1.000  H
  C1745    1.0000 0.68376  0.81849  0.89161  Biso   1.000  C
  C1746    1.0000 0.66837  0.80387  0.91178  Biso   1.000  C
  H1655    1.0000 0.64890  0.80280  0.91010  Biso   1.000  H
  C1747    1.0000 0.68129  0.79099  0.93416  Biso   1.000  C
  C1748    1.0000 0.68096  0.85513  0.85374  Biso   1.000  C
  H1656    1.0000 0.69700  0.86340  0.86130  Biso   1.000  H
  C1749    1.0000 0.66971  0.83126  0.86654  Biso   1.000  C
  N262     1.0000 0.75857  0.81096  0.91506  Biso   1.000  N
  C1750    1.0000 0.77140  0.83350  0.92790  Biso   1.000  C
  O612     1.0000 0.76050  0.85440  0.93680  Biso   1.000  O
  O613     1.0000 0.79856  0.82810  0.93125  Biso   1.000  O
  C1751    1.0000 0.80500  0.79830  0.92320  Biso   1.000  C
  H1657    1.0000 0.82100  0.79750  0.91060  Biso   1.000  H
  H1658    1.0000 0.80900  0.78710  0.93980  Biso   1.000  H
  C1752    1.0000 0.77898  0.78832  0.90896  Biso   1.000  C
  H1659    1.0000 0.77260  0.77080  0.91790  Biso   1.000  H
  C1753    1.0000 0.78210  0.78370  0.87885  Biso   1.000  C
  H1660    1.0000 0.76350  0.77790  0.87200  Biso   1.000  H
  C1754    1.0000 0.79020  0.80870  0.86180  Biso   1.000  C
  H1661    1.0000 0.77860  0.82450  0.86690  Biso   1.000  H
  H1662    1.0000 0.78760  0.80460  0.84220  Biso   1.000  H
  H1663    1.0000 0.80960  0.81320  0.86520  Biso   1.000  H
  C1755    1.0000 0.80220  0.75920  0.87210  Biso   1.000  C
  H1664    1.0000 0.80290  0.75640  0.85210  Biso   1.000  H
  H1665    1.0000 0.79550  0.74240  0.88100  Biso   1.000  H
  H1666    1.0000 0.82070  0.76360  0.87900  Biso   1.000  H
  N263     1.0000 0.65922  0.78120  0.95768  Biso   1.000  N
  C1756    1.0000 0.64360  0.75820  0.95290  Biso   1.000  C
  O614     1.0000 0.64180  0.74550  0.93210  Biso   1.000  O
  O615     1.0000 0.63180  0.74830  0.97630  Biso   1.000  O
  C1757    1.0000 0.64270  0.76310  0.99800  Biso   1.000  C
  H1667    1.0000 0.65540  0.75110  0.00860  Biso   1.000  H
  H1668    1.0000 0.62760  0.76870  0.01050  Biso   1.000  H
  C1758    1.0000 0.65910  0.78990  0.98800  Biso   1.000  C
  H1669    1.0000 0.67840  0.78820  0.99500  Biso   1.000  H
  O616     1.0000 0.79806  0.80439  0.00268  Biso   1.000  O
  N264     1.0000 0.84152  0.83334  0.00454  Biso   1.000  N
  C1759    1.0000 0.82302  0.80454  0.00454  Biso   1.000  C
  H1670    1.0000 0.79610  0.82850  0.00170  Biso   1.000  H
  C1760    1.0000 0.87123  0.82396  0.00842  Biso   1.000  C
  H1671    1.0000 0.88460  0.82990  0.99420  Biso   1.000  H
  H1672    1.0000 0.87400  0.80470  0.01480  Biso   1.000  H
  C1761    1.0000 0.77505  0.72214  0.96136  Biso   1.000  C
  O617     1.0000 0.75300  0.71097  0.97050  Biso   1.000  O
  O618     1.0000 0.78588  0.74444  0.96970  Biso   1.000  O
  C1762    1.0000 0.78928  0.70714  0.93743  Biso   1.000  C
  C1763    1.0000 0.77381  0.69251  0.91705  Biso   1.000  C
  C1764    1.0000 0.78688  0.68021  0.89468  Biso   1.000  C
  H1673    1.0000 0.77620  0.67080  0.88130  Biso   1.000  H
  C1765    1.0000 0.81624  0.68151  0.89161  Biso   1.000  C
  C1766    1.0000 0.83163  0.69613  0.91178  Biso   1.000  C
  H1674    1.0000 0.85110  0.69720  0.91010  Biso   1.000  H
  C1767    1.0000 0.81871  0.70901  0.93416  Biso   1.000  C
  C1768    1.0000 0.81904  0.64487  0.85374  Biso   1.000  C
  H1675    1.0000 0.80300  0.63660  0.86130  Biso   1.000  H
  C1769    1.0000 0.83029  0.66874  0.86654  Biso   1.000  C
  N265     1.0000 0.74143  0.68904  0.91506  Biso   1.000  N
  C1770    1.0000 0.72860  0.66650  0.92790  Biso   1.000  C
  O619     1.0000 0.73950  0.64560  0.93680  Biso   1.000  O
  O620     1.0000 0.70144  0.67190  0.93125  Biso   1.000  O
  C1771    1.0000 0.69500  0.70170  0.92320  Biso   1.000  C
  H1676    1.0000 0.67900  0.70250  0.91060  Biso   1.000  H
  H1677    1.0000 0.69100  0.71290  0.93980  Biso   1.000  H
  C1772    1.0000 0.72102  0.71168  0.90896  Biso   1.000  C
  H1678    1.0000 0.72740  0.72920  0.91790  Biso   1.000  H
  C1773    1.0000 0.71790  0.71630  0.87885  Biso   1.000  C
  H1679    1.0000 0.73650  0.72210  0.87200  Biso   1.000  H
  C1774    1.0000 0.70980  0.69130  0.86180  Biso   1.000  C
  H1680    1.0000 0.72140  0.67550  0.86690  Biso   1.000  H
  H1681    1.0000 0.71240  0.69540  0.84220  Biso   1.000  H
  H1682    1.0000 0.69040  0.68680  0.86520  Biso   1.000  H
  C1775    1.0000 0.69780  0.74080  0.87210  Biso   1.000  C
  H1683    1.0000 0.69710  0.74360  0.85210  Biso   1.000  H
  H1684    1.0000 0.70450  0.75760  0.88100  Biso   1.000  H
  H1685    1.0000 0.67930  0.73640  0.87900  Biso   1.000  H
  N266     1.0000 0.84078  0.71880  0.95768  Biso   1.000  N
  C1776    1.0000 0.85640  0.74180  0.95290  Biso   1.000  C
  O621     1.0000 0.85820  0.75450  0.93210  Biso   1.000  O
  O622     1.0000 0.86820  0.75170  0.97630  Biso   1.000  O
  C1777    1.0000 0.85730  0.73690  0.99800  Biso   1.000  C
  H1686    1.0000 0.84460  0.74890  0.00860  Biso   1.000  H
  H1687    1.0000 0.87240  0.73130  0.01050  Biso   1.000  H
  C1778    1.0000 0.84090  0.71010  0.98800  Biso   1.000  C
  H1688    1.0000 0.82160  0.71180  0.99500  Biso   1.000  H
  O623     1.0000 0.70194  0.69561  0.00268  Biso   1.000  O
  N267     1.0000 0.65848  0.66666  0.00454  Biso   1.000  N
  C1779    1.0000 0.67698  0.69546  0.00454  Biso   1.000  C
  H1689    1.0000 0.70390  0.67150  0.00170  Biso   1.000  H
  C1780    1.0000 0.62877  0.67604  0.00842  Biso   1.000  C
  H1690    1.0000 0.61540  0.67010  0.99420  Biso   1.000  H
  H1691    1.0000 0.62600  0.69530  0.01480  Biso   1.000  H
  C1781    1.0000 0.77505  0.22214  0.46136  Biso   1.000  C
  O624     1.0000 0.75300  0.21097  0.47050  Biso   1.000  O
  O625     1.0000 0.78588  0.24444  0.46970  Biso   1.000  O
  C1782    1.0000 0.78928  0.20714  0.43743  Biso   1.000  C
  C1783    1.0000 0.77381  0.19251  0.41705  Biso   1.000  C
  C1784    1.0000 0.78688  0.18021  0.39468  Biso   1.000  C
  H1692    1.0000 0.77620  0.17080  0.38130  Biso   1.000  H
  C1785    1.0000 0.81624  0.18151  0.39161  Biso   1.000  C
  C1786    1.0000 0.83163  0.19613  0.41178  Biso   1.000  C
  H1693    1.0000 0.85110  0.19720  0.41010  Biso   1.000  H
  C1787    1.0000 0.81871  0.20901  0.43416  Biso   1.000  C
  C1788    1.0000 0.81904  0.14487  0.35374  Biso   1.000  C
  H1694    1.0000 0.80300  0.13660  0.36130  Biso   1.000  H
  C1789    1.0000 0.83029  0.16874  0.36654  Biso   1.000  C
  N268     1.0000 0.74143  0.18904  0.41506  Biso   1.000  N
  C1790    1.0000 0.72860  0.16650  0.42790  Biso   1.000  C
  O626     1.0000 0.73950  0.14560  0.43680  Biso   1.000  O
  O627     1.0000 0.70144  0.17190  0.43125  Biso   1.000  O
  C1791    1.0000 0.69500  0.20170  0.42320  Biso   1.000  C
  H1695    1.0000 0.67900  0.20250  0.41060  Biso   1.000  H
  H1696    1.0000 0.69100  0.21290  0.43980  Biso   1.000  H
  C1792    1.0000 0.72102  0.21168  0.40896  Biso   1.000  C
  H1697    1.0000 0.72740  0.22920  0.41790  Biso   1.000  H
  C1793    1.0000 0.71790  0.21630  0.37885  Biso   1.000  C
  H1698    1.0000 0.73650  0.22210  0.37200  Biso   1.000  H
  C1794    1.0000 0.70980  0.19130  0.36180  Biso   1.000  C
  H1699    1.0000 0.72140  0.17550  0.36690  Biso   1.000  H
  H1700    1.0000 0.71240  0.19540  0.34220  Biso   1.000  H
  H1701    1.0000 0.69040  0.18680  0.36520  Biso   1.000  H
  C1795    1.0000 0.69780  0.24080  0.37210  Biso   1.000  C
  H1702    1.0000 0.69710  0.24360  0.35210  Biso   1.000  H
  H1703    1.0000 0.70450  0.25760  0.38100  Biso   1.000  H
  H1704    1.0000 0.67930  0.23640  0.37900  Biso   1.000  H
  N269     1.0000 0.84078  0.21880  0.45768  Biso   1.000  N
  C1796    1.0000 0.85640  0.24180  0.45290  Biso   1.000  C
  O628     1.0000 0.85820  0.25450  0.43210  Biso   1.000  O
  O629     1.0000 0.86820  0.25170  0.47630  Biso   1.000  O
  C1797    1.0000 0.85730  0.23690  0.49800  Biso   1.000  C
  H1705    1.0000 0.84460  0.24890  0.50860  Biso   1.000  H
  H1706    1.0000 0.87240  0.23130  0.51050  Biso   1.000  H
  C1798    1.0000 0.84090  0.21010  0.48800  Biso   1.000  C
  H1707    1.0000 0.82160  0.21180  0.49500  Biso   1.000  H
  O630     1.0000 0.70194  0.19561  0.50268  Biso   1.000  O
  N270     1.0000 0.65848  0.16666  0.50454  Biso   1.000  N
  C1799    1.0000 0.67698  0.19546  0.50454  Biso   1.000  C
  H1708    1.0000 0.70390  0.17150  0.50170  Biso   1.000  H
  C1800    1.0000 0.62877  0.17604  0.50842  Biso   1.000  C
  H1709    1.0000 0.61540  0.17010  0.49420  Biso   1.000  H
  H1710    1.0000 0.62600  0.19530  0.51480  Biso   1.000  H
  C1801    1.0000 0.27505  0.72214  0.46136  Biso   1.000  C
  O631     1.0000 0.25300  0.71097  0.47050  Biso   1.000  O
  O632     1.0000 0.28588  0.74444  0.46970  Biso   1.000  O
  C1802    1.0000 0.28928  0.70714  0.43743  Biso   1.000  C
  C1803    1.0000 0.27381  0.69251  0.41705  Biso   1.000  C
  C1804    1.0000 0.28688  0.68021  0.39468  Biso   1.000  C
  H1711    1.0000 0.27620  0.67080  0.38130  Biso   1.000  H
  C1805    1.0000 0.31624  0.68151  0.39161  Biso   1.000  C
  C1806    1.0000 0.33163  0.69613  0.41178  Biso   1.000  C
  H1712    1.0000 0.35110  0.69720  0.41010  Biso   1.000  H
  C1807    1.0000 0.31871  0.70901  0.43416  Biso   1.000  C
  C1808    1.0000 0.31904  0.64487  0.35374  Biso   1.000  C
  H1713    1.0000 0.30300  0.63660  0.36130  Biso   1.000  H
  C1809    1.0000 0.33029  0.66874  0.36654  Biso   1.000  C
  N271     1.0000 0.24143  0.68904  0.41506  Biso   1.000  N
  C1810    1.0000 0.22860  0.66650  0.42790  Biso   1.000  C
  O633     1.0000 0.23950  0.64560  0.43680  Biso   1.000  O
  O634     1.0000 0.20144  0.67190  0.43125  Biso   1.000  O
  C1811    1.0000 0.19500  0.70170  0.42320  Biso   1.000  C
  H1714    1.0000 0.17900  0.70250  0.41060  Biso   1.000  H
  H1715    1.0000 0.19100  0.71290  0.43980  Biso   1.000  H
  C1812    1.0000 0.22102  0.71168  0.40896  Biso   1.000  C
  H1716    1.0000 0.22740  0.72920  0.41790  Biso   1.000  H
  C1813    1.0000 0.21790  0.71630  0.37885  Biso   1.000  C
  H1717    1.0000 0.23650  0.72210  0.37200  Biso   1.000  H
  C1814    1.0000 0.20980  0.69130  0.36180  Biso   1.000  C
  H1718    1.0000 0.22140  0.67550  0.36690  Biso   1.000  H
  H1719    1.0000 0.21240  0.69540  0.34220  Biso   1.000  H
  H1720    1.0000 0.19040  0.68680  0.36520  Biso   1.000  H
  C1815    1.0000 0.19780  0.74080  0.37210  Biso   1.000  C
  H1721    1.0000 0.19710  0.74360  0.35210  Biso   1.000  H
  H1722    1.0000 0.20450  0.75760  0.38100  Biso   1.000  H
  H1723    1.0000 0.17930  0.73640  0.37900  Biso   1.000  H
  N272     1.0000 0.34078  0.71880  0.45768  Biso   1.000  N
  C1816    1.0000 0.35640  0.74180  0.45290  Biso   1.000  C
  O635     1.0000 0.35820  0.75450  0.43210  Biso   1.000  O
  O636     1.0000 0.36820  0.75170  0.47630  Biso   1.000  O
  C1817    1.0000 0.35730  0.73690  0.49800  Biso   1.000  C
  H1724    1.0000 0.34460  0.74890  0.50860  Biso   1.000  H
  H1725    1.0000 0.37240  0.73130  0.51050  Biso   1.000  H
  C1818    1.0000 0.34090  0.71010  0.48800  Biso   1.000  C
  H1726    1.0000 0.32160  0.71180  0.49500  Biso   1.000  H
  O637     1.0000 0.20194  0.69561  0.50268  Biso   1.000  O
  N273     1.0000 0.15848  0.66666  0.50454  Biso   1.000  N
  C1819    1.0000 0.17698  0.69546  0.50454  Biso   1.000  C
  H1727    1.0000 0.20390  0.67150  0.50170  Biso   1.000  H
  C1820    1.0000 0.12877  0.67604  0.50842  Biso   1.000  C
  H1728    1.0000 0.11540  0.67010  0.49420  Biso   1.000  H
  H1729    1.0000 0.12600  0.69530  0.51480  Biso   1.000  H
  C1821    1.0000 0.27505  0.22214  0.96136  Biso   1.000  C
  O638     1.0000 0.25300  0.21097  0.97050  Biso   1.000  O
  O639     1.0000 0.28588  0.24444  0.96970  Biso   1.000  O
  C1822    1.0000 0.28928  0.20714  0.93743  Biso   1.000  C
  C1823    1.0000 0.27381  0.19251  0.91705  Biso   1.000  C
  C1824    1.0000 0.28688  0.18021  0.89468  Biso   1.000  C
  H1730    1.0000 0.27620  0.17080  0.88130  Biso   1.000  H
  C1825    1.0000 0.31624  0.18151  0.89161  Biso   1.000  C
  C1826    1.0000 0.33163  0.19613  0.91178  Biso   1.000  C
  H1731    1.0000 0.35110  0.19720  0.91010  Biso   1.000  H
  C1827    1.0000 0.31871  0.20901  0.93416  Biso   1.000  C
  C1828    1.0000 0.31904  0.14487  0.85374  Biso   1.000  C
  H1732    1.0000 0.30300  0.13660  0.86130  Biso   1.000  H
  C1829    1.0000 0.33029  0.16874  0.86654  Biso   1.000  C
  N274     1.0000 0.24143  0.18904  0.91506  Biso   1.000  N
  C1830    1.0000 0.22860  0.16650  0.92790  Biso   1.000  C
  O640     1.0000 0.23950  0.14560  0.93680  Biso   1.000  O
  O641     1.0000 0.20144  0.17190  0.93125  Biso   1.000  O
  C1831    1.0000 0.19500  0.20170  0.92320  Biso   1.000  C
  H1733    1.0000 0.17900  0.20250  0.91060  Biso   1.000  H
  H1734    1.0000 0.19100  0.21290  0.93980  Biso   1.000  H
  C1832    1.0000 0.22102  0.21168  0.90896  Biso   1.000  C
  H1735    1.0000 0.22740  0.22920  0.91790  Biso   1.000  H
  C1833    1.0000 0.21790  0.21630  0.87885  Biso   1.000  C
  H1736    1.0000 0.23650  0.22210  0.87200  Biso   1.000  H
  C1834    1.0000 0.20980  0.19130  0.86180  Biso   1.000  C
  H1737    1.0000 0.22140  0.17550  0.86690  Biso   1.000  H
  H1738    1.0000 0.21240  0.19540  0.84220  Biso   1.000  H
  H1739    1.0000 0.19040  0.18680  0.86520  Biso   1.000  H
  C1835    1.0000 0.19780  0.24080  0.87210  Biso   1.000  C
  H1740    1.0000 0.19710  0.24360  0.85210  Biso   1.000  H
  H1741    1.0000 0.20450  0.25760  0.88100  Biso   1.000  H
  H1742    1.0000 0.17930  0.23640  0.87900  Biso   1.000  H
  N275     1.0000 0.34078  0.21880  0.95768  Biso   1.000  N
  C1836    1.0000 0.35640  0.24180  0.95290  Biso   1.000  C
  O642     1.0000 0.35820  0.25450  0.93210  Biso   1.000  O
  O643     1.0000 0.36820  0.25170  0.97630  Biso   1.000  O
  C1837    1.0000 0.35730  0.23690  0.99800  Biso   1.000  C
  H1743    1.0000 0.34460  0.24890  0.00860  Biso   1.000  H
  H1744    1.0000 0.37240  0.23130  0.01050  Biso   1.000  H
  C1838    1.0000 0.34090  0.21010  0.98800  Biso   1.000  C
  H1745    1.0000 0.32160  0.21180  0.99500  Biso   1.000  H
  O644     1.0000 0.20194  0.19561  0.00268  Biso   1.000  O
  N276     1.0000 0.15848  0.16666  0.00454  Biso   1.000  N
  C1839    1.0000 0.17698  0.19546  0.00454  Biso   1.000  C
  H1746    1.0000 0.20390  0.17150  0.00170  Biso   1.000  H
  C1840    1.0000 0.12877  0.17604  0.00842  Biso   1.000  C
  H1747    1.0000 0.11540  0.17010  0.99420  Biso   1.000  H
  H1748    1.0000 0.12600  0.19530  0.01480  Biso   1.000  H
  C1841    1.0000 0.77505  0.27786  0.03864  Biso   1.000  C
  O645     1.0000 0.75300  0.28903  0.02950  Biso   1.000  O
  O646     1.0000 0.78588  0.25556  0.03030  Biso   1.000  O
  C1842    1.0000 0.78928  0.29286  0.06257  Biso   1.000  C
  C1843    1.0000 0.77381  0.30749  0.08295  Biso   1.000  C
  C1844    1.0000 0.78688  0.31979  0.10532  Biso   1.000  C
  H1749    1.0000 0.77620  0.32920  0.11870  Biso   1.000  H
  C1845    1.0000 0.81624  0.31849  0.10839  Biso   1.000  C
  C1846    1.0000 0.83163  0.30387  0.08822  Biso   1.000  C
  H1750    1.0000 0.85110  0.30280  0.08990  Biso   1.000  H
  C1847    1.0000 0.81871  0.29099  0.06584  Biso   1.000  C
  C1848    1.0000 0.81904  0.35513  0.14626  Biso   1.000  C
  H1751    1.0000 0.80300  0.36340  0.13870  Biso   1.000  H
  C1849    1.0000 0.83029  0.33126  0.13346  Biso   1.000  C
  N277     1.0000 0.74143  0.31096  0.08494  Biso   1.000  N
  C1850    1.0000 0.72860  0.33350  0.07210  Biso   1.000  C
  O647     1.0000 0.73950  0.35440  0.06320  Biso   1.000  O
  O648     1.0000 0.70144  0.32810  0.06875  Biso   1.000  O
  C1851    1.0000 0.69500  0.29830  0.07680  Biso   1.000  C
  H1752    1.0000 0.67900  0.29750  0.08940  Biso   1.000  H
  H1753    1.0000 0.69100  0.28710  0.06020  Biso   1.000  H
  C1852    1.0000 0.72102  0.28832  0.09104  Biso   1.000  C
  H1754    1.0000 0.72740  0.27080  0.08210  Biso   1.000  H
  C1853    1.0000 0.71790  0.28370  0.12115  Biso   1.000  C
  H1755    1.0000 0.73650  0.27790  0.12800  Biso   1.000  H
  C1854    1.0000 0.70980  0.30870  0.13820  Biso   1.000  C
  H1756    1.0000 0.72140  0.32450  0.13310  Biso   1.000  H
  H1757    1.0000 0.71240  0.30460  0.15780  Biso   1.000  H
  H1758    1.0000 0.69040  0.31320  0.13480  Biso   1.000  H
  C1855    1.0000 0.69780  0.25920  0.12790  Biso   1.000  C
  H1759    1.0000 0.69710  0.25640  0.14790  Biso   1.000  H
  H1760    1.0000 0.70450  0.24240  0.11900  Biso   1.000  H
  H1761    1.0000 0.67930  0.26360  0.12100  Biso   1.000  H
  N278     1.0000 0.84078  0.28120  0.04232  Biso   1.000  N
  C1856    1.0000 0.85640  0.25820  0.04710  Biso   1.000  C
  O649     1.0000 0.85820  0.24550  0.06790  Biso   1.000  O
  O650     1.0000 0.86820  0.24830  0.02370  Biso   1.000  O
  C1857    1.0000 0.85730  0.26310  0.00200  Biso   1.000  C
  H1762    1.0000 0.84460  0.25110  0.99140  Biso   1.000  H
  H1763    1.0000 0.87240  0.26870  0.98950  Biso   1.000  H
  C1858    1.0000 0.84090  0.28990  0.01200  Biso   1.000  C
  H1764    1.0000 0.82160  0.28820  0.00500  Biso   1.000  H
  O651     1.0000 0.70194  0.30439  0.99732  Biso   1.000  O
  N279     1.0000 0.65848  0.33334  0.99546  Biso   1.000  N
  C1859    1.0000 0.67698  0.30454  0.99546  Biso   1.000  C
  H1765    1.0000 0.70390  0.32850  0.99830  Biso   1.000  H
  C1860    1.0000 0.62877  0.32396  0.99158  Biso   1.000  C
  H1766    1.0000 0.61540  0.32990  0.00580  Biso   1.000  H
  H1767    1.0000 0.62600  0.30470  0.98520  Biso   1.000  H
  C1861    1.0000 0.77505  0.77786  0.53864  Biso   1.000  C
  O652     1.0000 0.75300  0.78903  0.52950  Biso   1.000  O
  O653     1.0000 0.78588  0.75556  0.53030  Biso   1.000  O
  C1862    1.0000 0.78928  0.79286  0.56257  Biso   1.000  C
  C1863    1.0000 0.77381  0.80749  0.58295  Biso   1.000  C
  C1864    1.0000 0.78688  0.81979  0.60532  Biso   1.000  C
  H1768    1.0000 0.77620  0.82920  0.61870  Biso   1.000  H
  C1865    1.0000 0.81624  0.81849  0.60839  Biso   1.000  C
  C1866    1.0000 0.83163  0.80387  0.58822  Biso   1.000  C
  H1769    1.0000 0.85110  0.80280  0.58990  Biso   1.000  H
  C1867    1.0000 0.81871  0.79099  0.56584  Biso   1.000  C
  C1868    1.0000 0.81904  0.85513  0.64626  Biso   1.000  C
  H1770    1.0000 0.80300  0.86340  0.63870  Biso   1.000  H
  C1869    1.0000 0.83029  0.83126  0.63346  Biso   1.000  C
  N280     1.0000 0.74143  0.81096  0.58494  Biso   1.000  N
  C1870    1.0000 0.72860  0.83350  0.57210  Biso   1.000  C
  O654     1.0000 0.73950  0.85440  0.56320  Biso   1.000  O
  O655     1.0000 0.70144  0.82810  0.56875  Biso   1.000  O
  C1871    1.0000 0.69500  0.79830  0.57680  Biso   1.000  C
  H1771    1.0000 0.67900  0.79750  0.58940  Biso   1.000  H
  H1772    1.0000 0.69100  0.78710  0.56020  Biso   1.000  H
  C1872    1.0000 0.72102  0.78832  0.59104  Biso   1.000  C
  H1773    1.0000 0.72740  0.77080  0.58210  Biso   1.000  H
  C1873    1.0000 0.71790  0.78370  0.62115  Biso   1.000  C
  H1774    1.0000 0.73650  0.77790  0.62800  Biso   1.000  H
  C1874    1.0000 0.70980  0.80870  0.63820  Biso   1.000  C
  H1775    1.0000 0.72140  0.82450  0.63310  Biso   1.000  H
  H1776    1.0000 0.71240  0.80460  0.65780  Biso   1.000  H
  H1777    1.0000 0.69040  0.81320  0.63480  Biso   1.000  H
  C1875    1.0000 0.69780  0.75920  0.62790  Biso   1.000  C
  H1778    1.0000 0.69710  0.75640  0.64790  Biso   1.000  H
  H1779    1.0000 0.70450  0.74240  0.61900  Biso   1.000  H
  H1780    1.0000 0.67930  0.76360  0.62100  Biso   1.000  H
  N281     1.0000 0.84078  0.78120  0.54232  Biso   1.000  N
  C1876    1.0000 0.85640  0.75820  0.54710  Biso   1.000  C
  O656     1.0000 0.85820  0.74550  0.56790  Biso   1.000  O
  O657     1.0000 0.86820  0.74830  0.52370  Biso   1.000  O
  C1877    1.0000 0.85730  0.76310  0.50200  Biso   1.000  C
  H1781    1.0000 0.84460  0.75110  0.49140  Biso   1.000  H
  H1782    1.0000 0.87240  0.76870  0.48950  Biso   1.000  H
  C1878    1.0000 0.84090  0.78990  0.51200  Biso   1.000  C
  H1783    1.0000 0.82160  0.78820  0.50500  Biso   1.000  H
  O658     1.0000 0.70194  0.80439  0.49732  Biso   1.000  O
  N282     1.0000 0.65848  0.83334  0.49546  Biso   1.000  N
  C1879    1.0000 0.67698  0.80454  0.49546  Biso   1.000  C
  H1784    1.0000 0.70390  0.82850  0.49830  Biso   1.000  H
  C1880    1.0000 0.62877  0.82396  0.49158  Biso   1.000  C
  H1785    1.0000 0.61540  0.82990  0.50580  Biso   1.000  H
  H1786    1.0000 0.62600  0.80470  0.48520  Biso   1.000  H
  C1881    1.0000 0.27505  0.27786  0.53864  Biso   1.000  C
  O659     1.0000 0.25300  0.28903  0.52950  Biso   1.000  O
  O660     1.0000 0.28588  0.25556  0.53030  Biso   1.000  O
  C1882    1.0000 0.28928  0.29286  0.56257  Biso   1.000  C
  C1883    1.0000 0.27381  0.30749  0.58295  Biso   1.000  C
  C1884    1.0000 0.28688  0.31979  0.60532  Biso   1.000  C
  H1787    1.0000 0.27620  0.32920  0.61870  Biso   1.000  H
  C1885    1.0000 0.31624  0.31849  0.60839  Biso   1.000  C
  C1886    1.0000 0.33163  0.30387  0.58822  Biso   1.000  C
  H1788    1.0000 0.35110  0.30280  0.58990  Biso   1.000  H
  C1887    1.0000 0.31871  0.29099  0.56584  Biso   1.000  C
  C1888    1.0000 0.31904  0.35513  0.64626  Biso   1.000  C
  H1789    1.0000 0.30300  0.36340  0.63870  Biso   1.000  H
  C1889    1.0000 0.33029  0.33126  0.63346  Biso   1.000  C
  N283     1.0000 0.24143  0.31096  0.58494  Biso   1.000  N
  C1890    1.0000 0.22860  0.33350  0.57210  Biso   1.000  C
  O661     1.0000 0.23950  0.35440  0.56320  Biso   1.000  O
  O662     1.0000 0.20144  0.32810  0.56875  Biso   1.000  O
  C1891    1.0000 0.19500  0.29830  0.57680  Biso   1.000  C
  H1790    1.0000 0.17900  0.29750  0.58940  Biso   1.000  H
  H1791    1.0000 0.19100  0.28710  0.56020  Biso   1.000  H
  C1892    1.0000 0.22102  0.28832  0.59104  Biso   1.000  C
  H1792    1.0000 0.22740  0.27080  0.58210  Biso   1.000  H
  C1893    1.0000 0.21790  0.28370  0.62115  Biso   1.000  C
  H1793    1.0000 0.23650  0.27790  0.62800  Biso   1.000  H
  C1894    1.0000 0.20980  0.30870  0.63820  Biso   1.000  C
  H1794    1.0000 0.22140  0.32450  0.63310  Biso   1.000  H
  H1795    1.0000 0.21240  0.30460  0.65780  Biso   1.000  H
  H1796    1.0000 0.19040  0.31320  0.63480  Biso   1.000  H
  C1895    1.0000 0.19780  0.25920  0.62790  Biso   1.000  C
  H1797    1.0000 0.19710  0.25640  0.64790  Biso   1.000  H
  H1798    1.0000 0.20450  0.24240  0.61900  Biso   1.000  H
  H1799    1.0000 0.17930  0.26360  0.62100  Biso   1.000  H
  N284     1.0000 0.34078  0.28120  0.54232  Biso   1.000  N
  C1896    1.0000 0.35640  0.25820  0.54710  Biso   1.000  C
  O663     1.0000 0.35820  0.24550  0.56790  Biso   1.000  O
  O664     1.0000 0.36820  0.24830  0.52370  Biso   1.000  O
  C1897    1.0000 0.35730  0.26310  0.50200  Biso   1.000  C
  H1800    1.0000 0.34460  0.25110  0.49140  Biso   1.000  H
  H1801    1.0000 0.37240  0.26870  0.48950  Biso   1.000  H
  C1898    1.0000 0.34090  0.28990  0.51200  Biso   1.000  C
  H1802    1.0000 0.32160  0.28820  0.50500  Biso   1.000  H
  O665     1.0000 0.20194  0.30439  0.49732  Biso   1.000  O
  N285     1.0000 0.15848  0.33334  0.49546  Biso   1.000  N
  C1899    1.0000 0.17698  0.30454  0.49546  Biso   1.000  C
  H1803    1.0000 0.20390  0.32850  0.49830  Biso   1.000  H
  C1900    1.0000 0.12877  0.32396  0.49158  Biso   1.000  C
  H1804    1.0000 0.11540  0.32990  0.50580  Biso   1.000  H
  H1805    1.0000 0.12600  0.30470  0.48520  Biso   1.000  H
  C1901    1.0000 0.27505  0.77786  0.03864  Biso   1.000  C
  O666     1.0000 0.25300  0.78903  0.02950  Biso   1.000  O
  O667     1.0000 0.28588  0.75556  0.03030  Biso   1.000  O
  C1902    1.0000 0.28928  0.79286  0.06257  Biso   1.000  C
  C1903    1.0000 0.27381  0.80749  0.08295  Biso   1.000  C
  C1904    1.0000 0.28688  0.81979  0.10532  Biso   1.000  C
  H1806    1.0000 0.27620  0.82920  0.11870  Biso   1.000  H
  C1905    1.0000 0.31624  0.81849  0.10839  Biso   1.000  C
  C1906    1.0000 0.33163  0.80387  0.08822  Biso   1.000  C
  H1807    1.0000 0.35110  0.80280  0.08990  Biso   1.000  H
  C1907    1.0000 0.31871  0.79099  0.06584  Biso   1.000  C
  C1908    1.0000 0.31904  0.85513  0.14626  Biso   1.000  C
  H1808    1.0000 0.30300  0.86340  0.13870  Biso   1.000  H
  C1909    1.0000 0.33029  0.83126  0.13346  Biso   1.000  C
  N286     1.0000 0.24143  0.81096  0.08494  Biso   1.000  N
  C1910    1.0000 0.22860  0.83350  0.07210  Biso   1.000  C
  O668     1.0000 0.23950  0.85440  0.06320  Biso   1.000  O
  O669     1.0000 0.20144  0.82810  0.06875  Biso   1.000  O
  C1911    1.0000 0.19500  0.79830  0.07680  Biso   1.000  C
  H1809    1.0000 0.17900  0.79750  0.08940  Biso   1.000  H
  H1810    1.0000 0.19100  0.78710  0.06020  Biso   1.000  H
  C1912    1.0000 0.22102  0.78832  0.09104  Biso   1.000  C
  H1811    1.0000 0.22740  0.77080  0.08210  Biso   1.000  H
  C1913    1.0000 0.21790  0.78370  0.12115  Biso   1.000  C
  H1812    1.0000 0.23650  0.77790  0.12800  Biso   1.000  H
  C1914    1.0000 0.20980  0.80870  0.13820  Biso   1.000  C
  H1813    1.0000 0.22140  0.82450  0.13310  Biso   1.000  H
  H1814    1.0000 0.21240  0.80460  0.15780  Biso   1.000  H
  H1815    1.0000 0.19040  0.81320  0.13480  Biso   1.000  H
  C1915    1.0000 0.19780  0.75920  0.12790  Biso   1.000  C
  H1816    1.0000 0.19710  0.75640  0.14790  Biso   1.000  H
  H1817    1.0000 0.20450  0.74240  0.11900  Biso   1.000  H
  H1818    1.0000 0.17930  0.76360  0.12100  Biso   1.000  H
  N287     1.0000 0.34078  0.78120  0.04232  Biso   1.000  N
  C1916    1.0000 0.35640  0.75820  0.04710  Biso   1.000  C
  O670     1.0000 0.35820  0.74550  0.06790  Biso   1.000  O
  O671     1.0000 0.36820  0.74830  0.02370  Biso   1.000  O
  C1917    1.0000 0.35730  0.76310  0.00200  Biso   1.000  C
  H1819    1.0000 0.34460  0.75110  0.99140  Biso   1.000  H
  H1820    1.0000 0.37240  0.76870  0.98950  Biso   1.000  H
  C1918    1.0000 0.34090  0.78990  0.01200  Biso   1.000  C
  H1821    1.0000 0.32160  0.78820  0.00500  Biso   1.000  H
  O672     1.0000 0.20194  0.80439  0.99732  Biso   1.000  O
  N288     1.0000 0.15848  0.83334  0.99546  Biso   1.000  N
  C1919    1.0000 0.17698  0.80454  0.99546  Biso   1.000  C
  H1822    1.0000 0.20390  0.82850  0.99830  Biso   1.000  H
  C1920    1.0000 0.12877  0.82396  0.99158  Biso   1.000  C
  H1823    1.0000 0.11540  0.82990  0.00580  Biso   1.000  H
  H1824    1.0000 0.12600  0.80470  0.98520  Biso   1.000  H
  Zn1      1.0000 0.00000  0.72780  0.27220  Biso   1.000  Zn
  Zn2      1.0000 0.00000  0.22780  0.77220  Biso   1.000  Zn
  Zn3      1.0000 0.50000  0.72780  0.77220  Biso   1.000  Zn
  Zn4      1.0000 0.50000  0.22780  0.27220  Biso   1.000  Zn
  Zn5      1.0000 0.00000  0.27220  0.27220  Biso   1.000  Zn
  Zn6      1.0000 0.00000  0.77220  0.77220  Biso   1.000  Zn
  Zn7      1.0000 0.50000  0.27220  0.77220  Biso   1.000  Zn
  Zn8      1.0000 0.50000  0.77220  0.27220  Biso   1.000  Zn
  Zn9      1.0000 0.00000  0.72780  0.72780  Biso   1.000  Zn
  Zn10     1.0000 0.00000  0.22780  0.22780  Biso   1.000  Zn
  Zn11     1.0000 0.50000  0.72780  0.22780  Biso   1.000  Zn
  Zn12     1.0000 0.50000  0.22780  0.72780  Biso   1.000  Zn
  Zn13     1.0000 0.00000  0.27220  0.72780  Biso   1.000  Zn
  Zn14     1.0000 0.00000  0.77220  0.22780  Biso   1.000  Zn
  Zn15     1.0000 0.50000  0.27220  0.22780  Biso   1.000  Zn
  Zn16     1.0000 0.50000  0.77220  0.72780  Biso   1.000  Zn
  Zn17     1.0000 0.27220  0.00000  0.72780  Biso   1.000  Zn
  Zn18     1.0000 0.27220  0.50000  0.22780  Biso   1.000  Zn
  Zn19     1.0000 0.77220  0.00000  0.22780  Biso   1.000  Zn
  Zn20     1.0000 0.77220  0.50000  0.72780  Biso   1.000  Zn
  Zn21     1.0000 0.27220  0.00000  0.27220  Biso   1.000  Zn
  Zn22     1.0000 0.27220  0.50000  0.77220  Biso   1.000  Zn
  Zn23     1.0000 0.77220  0.00000  0.77220  Biso   1.000  Zn
  Zn24     1.0000 0.77220  0.50000  0.27220  Biso   1.000  Zn
  Zn25     1.0000 0.72780  0.00000  0.72780  Biso   1.000  Zn
  Zn26     1.0000 0.72780  0.50000  0.22780  Biso   1.000  Zn
  Zn27     1.0000 0.22780  0.00000  0.22780  Biso   1.000  Zn
  Zn28     1.0000 0.22780  0.50000  0.72780  Biso   1.000  Zn
  Zn29     1.0000 0.72780  0.00000  0.27220  Biso   1.000  Zn
  Zn30     1.0000 0.72780  0.50000  0.77220  Biso   1.000  Zn
  Zn31     1.0000 0.22780  0.00000  0.77220  Biso   1.000  Zn
  Zn32     1.0000 0.22780  0.50000  0.27220  Biso   1.000  Zn
  Zn33     1.0000 0.72780  0.27220  0.00000  Biso   1.000  Zn
  Zn34     1.0000 0.72780  0.77220  0.50000  Biso   1.000  Zn
  Zn35     1.0000 0.22780  0.27220  0.50000  Biso   1.000  Zn
  Zn36     1.0000 0.22780  0.77220  0.00000  Biso   1.000  Zn
  Zn37     1.0000 0.27220  0.27220  0.00000  Biso   1.000  Zn
  Zn38     1.0000 0.27220  0.77220  0.50000  Biso   1.000  Zn
  Zn39     1.0000 0.77220  0.27220  0.50000  Biso   1.000  Zn
  Zn40     1.0000 0.77220  0.77220  0.00000  Biso   1.000  Zn
  Zn41     1.0000 0.72780  0.72780  0.00000  Biso   1.000  Zn
  Zn42     1.0000 0.72780  0.22780  0.50000  Biso   1.000  Zn
  Zn43     1.0000 0.22780  0.72780  0.50000  Biso   1.000  Zn
  Zn44     1.0000 0.22780  0.22780  0.00000  Biso   1.000  Zn
  Zn45     1.0000 0.27220  0.72780  0.00000  Biso   1.000  Zn
  Zn46     1.0000 0.27220  0.22780  0.50000  Biso   1.000  Zn
  Zn47     1.0000 0.77220  0.72780  0.50000  Biso   1.000  Zn
  Zn48     1.0000 0.77220  0.22780  0.00000  Biso   1.000  Zn
