data_image0
_cell_length_a       41.587
_cell_length_b       17.465
_cell_length_c       17.9499
_cell_angle_alpha    90
_cell_angle_beta     90
_cell_angle_gamma    90

_symmetry_space_group_name_H-M    "P 1"
_symmetry_int_tables_number       1

loop_
  _symmetry_equiv_pos_as_xyz
  'x, y, z'

loop_
  _atom_site_label
  _atom_site_occupancy
  _atom_site_fract_x
  _atom_site_fract_y
  _atom_site_fract_z
  _atom_site_thermal_displace_type
  _atom_site_B_iso_or_equiv
  _atom_site_type_symbol
  C1       1.0000 0.19142  0.48490  0.11720  Biso   1.000  C
  C2       1.0000 0.16475  0.48380  0.17380  Biso   1.000  C
  C3       1.0000 0.15540  0.41770  0.20850  Biso   1.000  C
  H1       1.0000 0.16620  0.37230  0.19810  Biso   1.000  H
  C4       1.0000 0.12995  0.41700  0.25920  Biso   1.000  C
  H2       1.0000 0.12420  0.37190  0.28320  Biso   1.000  H
  C5       1.0000 0.11332  0.48400  0.27340  Biso   1.000  C
  C6       1.0000 0.12292  0.55040  0.23800  Biso   1.000  C
  H3       1.0000 0.11220  0.59600  0.24820  Biso   1.000  H
  C7       1.0000 0.14784  0.55030  0.18820  Biso   1.000  C
  H4       1.0000 0.15340  0.59540  0.16390  Biso   1.000  H
  C8       1.0000 0.08476  0.48360  0.32450  Biso   1.000  C
  C9       1.0000 0.03034  0.48940  0.41780  Biso   1.000  C
  C10      1.0000 0.08380  0.44220  0.39060  Biso   1.000  C
  H5       1.0000 0.10170  0.41370  0.40510  Biso   1.000  H
  C11      1.0000 0.05632  0.44270  0.43580  Biso   1.000  C
  H6       1.0000 0.05540  0.41180  0.47790  Biso   1.000  H
  C12      1.0000 0.03050  0.52970  0.35090  Biso   1.000  C
  H7       1.0000 0.01250  0.55750  0.33640  Biso   1.000  H
  C13      1.0000 0.05762  0.52810  0.30610  Biso   1.000  C
  H8       1.0000 0.05790  0.55710  0.26260  Biso   1.000  H
  C14      1.0000 0.33900  0.38540  0.94100  Biso   1.000  C
  H9       1.0000 0.33130  0.42350  0.90960  Biso   1.000  H
  C15      1.0000 0.36850  0.35160  0.92490  Biso   1.000  C
  H10      1.0000 0.37980  0.36550  0.88230  Biso   1.000  H
  C16      1.0000 0.36480  0.27930  0.03800  Biso   1.000  C
  H11      1.0000 0.37430  0.24530  0.07130  Biso   1.000  H
  C17      1.0000 0.33482  0.31140  0.05430  Biso   1.000  C
  H12      1.0000 0.32420  0.29870  0.09810  Biso   1.000  H
  C18      1.0000 0.41590  0.23120  0.88150  Biso   1.000  C
  H13      1.0000 0.39910  0.23130  0.84740  Biso   1.000  H
  C19      1.0000 0.44527  0.19690  0.86300  Biso   1.000  C
  H14      1.0000 0.44890  0.18110  0.81420  Biso   1.000  H
  C20      1.0000 0.46455  0.22110  0.98770  Biso   1.000  C
  H15      1.0000 0.48060  0.21790  0.02380  Biso   1.000  H
  C21      1.0000 0.43623  0.26070  0.00470  Biso   1.000  C
  H16      1.0000 0.43410  0.28620  0.05000  Biso   1.000  H
  C22      1.0000 0.53680  0.99280  0.79010  Biso   1.000  C
  H17      1.0000 0.52140  0.99710  0.75270  Biso   1.000  H
  C23      1.0000 0.56460  0.95130  0.77380  Biso   1.000  C
  H18      1.0000 0.56800  0.93110  0.72650  Biso   1.000  H
  C24      1.0000 0.58593  0.98510  0.89520  Biso   1.000  C
  H19      1.0000 0.60350  0.98880  0.92720  Biso   1.000  H
  C25      1.0000 0.55683  0.02330  0.90920  Biso   1.000  C
  H20      1.0000 0.55450  0.04720  0.95520  Biso   1.000  H
  C26      1.0000 0.64485  0.90530  0.85750  Biso   1.000  C
  H21      1.0000 0.64500  0.94030  0.89650  Biso   1.000  H
  C27      1.0000 0.67284  0.86070  0.84250  Biso   1.000  C
  H22      1.0000 0.69140  0.86590  0.87100  Biso   1.000  H
  C28      1.0000 0.64863  0.81590  0.72810  Biso   1.000  C
  H23      1.0000 0.65140  0.79220  0.68220  Biso   1.000  H
  C29      1.0000 0.62083  0.86070  0.74280  Biso   1.000  C
  H24      1.0000 0.60520  0.86590  0.70600  Biso   1.000  H
  C30      1.0000 0.28808  0.39630  0.01840  Biso   1.000  C
  C31      1.0000 0.32066  0.36400  0.00270  Biso   1.000  C
  C32      1.0000 0.38069  0.29820  0.97180  Biso   1.000  C
  C33      1.0000 0.41170  0.26150  0.95410  Biso   1.000  C
  C34      1.0000 0.46978  0.18570  0.91820  Biso   1.000  C
  C35      1.0000 0.53041  0.02810  0.85760  Biso   1.000  C
  C36      1.0000 0.58688  0.94100  0.82950  Biso   1.000  C
  C37      1.0000 0.23950  0.47750  0.28060  Biso   1.000  C
  C38      1.0000 0.27590  0.54950  0.19850  Biso   1.000  C
  C39      1.0000 0.23050  0.61340  0.27070  Biso   1.000  C
  Cd1      1.0000 0.24200  0.33341  0.14948  Biso   1.000  Cd
  O1       1.0000 0.27905  0.40230  0.08560  Biso   1.000  O
  O2       1.0000 0.27145  0.41800  0.96540  Biso   1.000  O
  O3       1.0000 0.20642  0.42360  0.10260  Biso   1.000  O
  O4       1.0000 0.19724  0.54430  0.08340  Biso   1.000  O
  C40      1.0000 0.61646  0.89750  0.81200  Biso   1.000  C
  C41      1.0000 0.67135  0.80850  0.78310  Biso   1.000  C
  C42      1.0000 0.70040  0.75850  0.76710  Biso   1.000  C
  O5       1.0000 0.70378  0.73150  0.70660  Biso   1.000  O
  O6       1.0000 0.71970  0.74910  0.81980  Biso   1.000  O
  C43      1.0000 0.06310  0.42130  0.32820  Biso   1.000  C
  H25      1.0000 0.06690  0.37750  0.30010  Biso   1.000  H
  C44      1.0000 0.03590  0.42520  0.37360  Biso   1.000  C
  H26      1.0000 0.02150  0.38460  0.37440  Biso   1.000  H
  C45      1.0000 0.05350  0.54730  0.41820  Biso   1.000  C
  H27      1.0000 0.05090  0.58850  0.45060  Biso   1.000  H
  C46      1.0000 0.08010  0.54540  0.37180  Biso   1.000  C
  H28      1.0000 0.09490  0.58540  0.37240  Biso   1.000  H
  C47      1.0000 0.34590  0.37550  0.05060  Biso   1.000  C
  H29      1.0000 0.34330  0.40420  0.09390  Biso   1.000  H
  C48      1.0000 0.37540  0.34350  0.03310  Biso   1.000  C
  H30      1.0000 0.39270  0.35330  0.06460  Biso   1.000  H
  C49      1.0000 0.35480  0.29080  0.92120  Biso   1.000  C
  H31      1.0000 0.35770  0.26370  0.87710  Biso   1.000  H
  C50      1.0000 0.32532  0.32300  0.93630  Biso   1.000  C
  H32      1.0000 0.30850  0.31770  0.90260  Biso   1.000  H
  C51      1.0000 0.44889  0.15310  0.97040  Biso   1.000  C
  H33      1.0000 0.45410  0.10730  0.99400  Biso   1.000  H
  C52      1.0000 0.41912  0.18800  0.98420  Biso   1.000  C
  H34      1.0000 0.40400  0.16280  0.01340  Biso   1.000  H
  C53      1.0000 0.43541  0.29620  0.90990  Biso   1.000  C
  H35      1.0000 0.43290  0.34720  0.89600  Biso   1.000  H
  C54      1.0000 0.46286  0.25620  0.88600  Biso   1.000  C
  H36      1.0000 0.47620  0.27660  0.84940  Biso   1.000  H
  C55      1.0000 0.56000  0.91170  0.87330  Biso   1.000  C
  H37      1.0000 0.56180  0.86310  0.89410  Biso   1.000  H
  C56      1.0000 0.53160  0.95340  0.88570  Biso   1.000  C
  H38      1.0000 0.51430  0.93230  0.91130  Biso   1.000  H
  C57      1.0000 0.55140  0.05140  0.80300  Biso   1.000  C
  H39      1.0000 0.54910  0.09860  0.77960  Biso   1.000  H
  C58      1.0000 0.57697  0.00000  0.78330  Biso   1.000  C
  H40      1.0000 0.58730  0.00660  0.73780  Biso   1.000  H
  C59      1.0000 0.65312  0.80300  0.85090  Biso   1.000  C
  H41      1.0000 0.66050  0.76920  0.88710  Biso   1.000  H
  C60      1.0000 0.62622  0.84590  0.86750  Biso   1.000  C
  H42      1.0000 0.61530  0.84090  0.91250  Biso   1.000  H
  C61      1.0000 0.62732  0.89180  0.73800  Biso   1.000  C
  H43      1.0000 0.61650  0.91610  0.69940  Biso   1.000  H
  C62      1.0000 0.65402  0.84990  0.72470  Biso   1.000  C
  H44      1.0000 0.66170  0.84720  0.67620  Biso   1.000  H
  C63      1.0000 0.30858  0.51510  0.61720  Biso   1.000  C
  C64      1.0000 0.33525  0.51620  0.67380  Biso   1.000  C
  C65      1.0000 0.34460  0.58230  0.70850  Biso   1.000  C
  H45      1.0000 0.33380  0.62770  0.69810  Biso   1.000  H
  C66      1.0000 0.37005  0.58300  0.75920  Biso   1.000  C
  H46      1.0000 0.37580  0.62810  0.78320  Biso   1.000  H
  C67      1.0000 0.38668  0.51600  0.77340  Biso   1.000  C
  C68      1.0000 0.37708  0.44960  0.73800  Biso   1.000  C
  H47      1.0000 0.38780  0.40400  0.74820  Biso   1.000  H
  C69      1.0000 0.35216  0.44970  0.68820  Biso   1.000  C
  H48      1.0000 0.34660  0.40460  0.66390  Biso   1.000  H
  C70      1.0000 0.41524  0.51640  0.82450  Biso   1.000  C
  C71      1.0000 0.46966  0.51060  0.91780  Biso   1.000  C
  C72      1.0000 0.41620  0.55780  0.89060  Biso   1.000  C
  H49      1.0000 0.39830  0.58630  0.90510  Biso   1.000  H
  C73      1.0000 0.44368  0.55730  0.93580  Biso   1.000  C
  H50      1.0000 0.44460  0.58820  0.97790  Biso   1.000  H
  C74      1.0000 0.46950  0.47030  0.85090  Biso   1.000  C
  H51      1.0000 0.48750  0.44250  0.83640  Biso   1.000  H
  C75      1.0000 0.44238  0.47190  0.80610  Biso   1.000  C
  H52      1.0000 0.44210  0.44290  0.76260  Biso   1.000  H
  C76      1.0000 0.16100  0.61460  0.44100  Biso   1.000  C
  H53      1.0000 0.16870  0.57650  0.40960  Biso   1.000  H
  C77      1.0000 0.13150  0.64840  0.42490  Biso   1.000  C
  H54      1.0000 0.12020  0.63450  0.38230  Biso   1.000  H
  C78      1.0000 0.13520  0.72070  0.53800  Biso   1.000  C
  H55      1.0000 0.12570  0.75470  0.57130  Biso   1.000  H
  C79      1.0000 0.16518  0.68860  0.55430  Biso   1.000  C
  H56      1.0000 0.17580  0.70130  0.59810  Biso   1.000  H
  C80      1.0000 0.08410  0.76880  0.38150  Biso   1.000  C
  H57      1.0000 0.10090  0.76870  0.34740  Biso   1.000  H
  C81      1.0000 0.05473  0.80310  0.36300  Biso   1.000  C
  H58      1.0000 0.05110  0.81890  0.31420  Biso   1.000  H
  C82      1.0000 0.03545  0.77890  0.48770  Biso   1.000  C
  H59      1.0000 0.01940  0.78210  0.52380  Biso   1.000  H
  C83      1.0000 0.06377  0.73930  0.50470  Biso   1.000  C
  H60      1.0000 0.06590  0.71380  0.55000  Biso   1.000  H
  C84      1.0000 0.96320  0.00720  0.29010  Biso   1.000  C
  H61      1.0000 0.97860  0.00290  0.25270  Biso   1.000  H
  C85      1.0000 0.93540  0.04870  0.27380  Biso   1.000  C
  H62      1.0000 0.93200  0.06890  0.22650  Biso   1.000  H
  C86      1.0000 0.91407  0.01490  0.39520  Biso   1.000  C
  H63      1.0000 0.89650  0.01120  0.42720  Biso   1.000  H
  C87      1.0000 0.94317  0.97670  0.40920  Biso   1.000  C
  H64      1.0000 0.94550  0.95280  0.45520  Biso   1.000  H
  C88      1.0000 0.85515  0.09470  0.35750  Biso   1.000  C
  H65      1.0000 0.85500  0.05970  0.39650  Biso   1.000  H
  C89      1.0000 0.82716  0.13930  0.34250  Biso   1.000  C
  H66      1.0000 0.80860  0.13410  0.37100  Biso   1.000  H
  C90      1.0000 0.85137  0.18410  0.22810  Biso   1.000  C
  H67      1.0000 0.84860  0.20780  0.18220  Biso   1.000  H
  C91      1.0000 0.87917  0.13930  0.24280  Biso   1.000  C
  H68      1.0000 0.89480  0.13410  0.20600  Biso   1.000  H
  C92      1.0000 0.21192  0.60370  0.51840  Biso   1.000  C
  C93      1.0000 0.17934  0.63600  0.50270  Biso   1.000  C
  C94      1.0000 0.11931  0.70180  0.47180  Biso   1.000  C
  C95      1.0000 0.08830  0.73850  0.45410  Biso   1.000  C
  C96      1.0000 0.03022  0.81430  0.41820  Biso   1.000  C
  C97      1.0000 0.96959  0.97190  0.35760  Biso   1.000  C
  C98      1.0000 0.91312  0.05900  0.32950  Biso   1.000  C
  C99      1.0000 0.26050  0.52250  0.78060  Biso   1.000  C
  C100     1.0000 0.22410  0.45050  0.69850  Biso   1.000  C
  C101     1.0000 0.26950  0.38660  0.77070  Biso   1.000  C
  Cd2      1.0000 0.25800  0.66659  0.64948  Biso   1.000  Cd
  O7       1.0000 0.22095  0.59770  0.58560  Biso   1.000  O
  O8       1.0000 0.22855  0.58200  0.46540  Biso   1.000  O
  O9       1.0000 0.29358  0.57640  0.60260  Biso   1.000  O
  O10      1.0000 0.30276  0.45570  0.58340  Biso   1.000  O
  C102     1.0000 0.88354  0.10250  0.31200  Biso   1.000  C
  C103     1.0000 0.82865  0.19150  0.28310  Biso   1.000  C
  C104     1.0000 0.79960  0.24150  0.26710  Biso   1.000  C
  O11      1.0000 0.79622  0.26850  0.20660  Biso   1.000  O
  O12      1.0000 0.78030  0.25090  0.31980  Biso   1.000  O
  C105     1.0000 0.43690  0.57870  0.82820  Biso   1.000  C
  H69      1.0000 0.43310  0.62250  0.80010  Biso   1.000  H
  C106     1.0000 0.46410  0.57480  0.87360  Biso   1.000  C
  H70      1.0000 0.47850  0.61540  0.87440  Biso   1.000  H
  C107     1.0000 0.44650  0.45270  0.91820  Biso   1.000  C
  H71      1.0000 0.44910  0.41150  0.95060  Biso   1.000  H
  C108     1.0000 0.41990  0.45460  0.87180  Biso   1.000  C
  H72      1.0000 0.40510  0.41460  0.87240  Biso   1.000  H
  C109     1.0000 0.15410  0.62450  0.55060  Biso   1.000  C
  H73      1.0000 0.15670  0.59580  0.59390  Biso   1.000  H
  C110     1.0000 0.12460  0.65650  0.53310  Biso   1.000  C
  H74      1.0000 0.10730  0.64670  0.56460  Biso   1.000  H
  C111     1.0000 0.14520  0.70920  0.42120  Biso   1.000  C
  H75      1.0000 0.14230  0.73630  0.37710  Biso   1.000  H
  C112     1.0000 0.17468  0.67700  0.43630  Biso   1.000  C
  H76      1.0000 0.19150  0.68230  0.40260  Biso   1.000  H
  C113     1.0000 0.05111  0.84690  0.47040  Biso   1.000  C
  H77      1.0000 0.04590  0.89270  0.49400  Biso   1.000  H
  C114     1.0000 0.08088  0.81200  0.48420  Biso   1.000  C
  H78      1.0000 0.09600  0.83720  0.51340  Biso   1.000  H
  C115     1.0000 0.06459  0.70380  0.40990  Biso   1.000  C
  H79      1.0000 0.06710  0.65280  0.39600  Biso   1.000  H
  C116     1.0000 0.03714  0.74380  0.38600  Biso   1.000  C
  H80      1.0000 0.02380  0.72340  0.34940  Biso   1.000  H
  C117     1.0000 0.94000  0.08830  0.37330  Biso   1.000  C
  H81      1.0000 0.93820  0.13690  0.39410  Biso   1.000  H
  C118     1.0000 0.96840  0.04660  0.38570  Biso   1.000  C
  H82      1.0000 0.98570  0.06770  0.41130  Biso   1.000  H
  C119     1.0000 0.94860  0.94860  0.30300  Biso   1.000  C
  H83      1.0000 0.95090  0.90140  0.27960  Biso   1.000  H
  C120     1.0000 0.92303  0.00000  0.28330  Biso   1.000  C
  H84      1.0000 0.91270  0.99340  0.23780  Biso   1.000  H
  C121     1.0000 0.84688  0.19700  0.35090  Biso   1.000  C
  H85      1.0000 0.83950  0.23080  0.38710  Biso   1.000  H
  C122     1.0000 0.87378  0.15410  0.36750  Biso   1.000  C
  H86      1.0000 0.88470  0.15910  0.41250  Biso   1.000  H
  C123     1.0000 0.87268  0.10820  0.23800  Biso   1.000  C
  H87      1.0000 0.88350  0.08390  0.19940  Biso   1.000  H
  C124     1.0000 0.84598  0.15010  0.22470  Biso   1.000  C
  H88      1.0000 0.83830  0.15280  0.17620  Biso   1.000  H
  C125     1.0000 0.30858  0.48490  0.38280  Biso   1.000  C
  C126     1.0000 0.33525  0.48380  0.32620  Biso   1.000  C
  C127     1.0000 0.34460  0.41770  0.29150  Biso   1.000  C
  H89      1.0000 0.33380  0.37230  0.30190  Biso   1.000  H
  C128     1.0000 0.37005  0.41700  0.24080  Biso   1.000  C
  H90      1.0000 0.37580  0.37190  0.21680  Biso   1.000  H
  C129     1.0000 0.38668  0.48400  0.22660  Biso   1.000  C
  C130     1.0000 0.37708  0.55040  0.26200  Biso   1.000  C
  H91      1.0000 0.38780  0.59600  0.25180  Biso   1.000  H
  C131     1.0000 0.35216  0.55030  0.31180  Biso   1.000  C
  H92      1.0000 0.34660  0.59540  0.33610  Biso   1.000  H
  C132     1.0000 0.41524  0.48360  0.17550  Biso   1.000  C
  C133     1.0000 0.46966  0.48940  0.08220  Biso   1.000  C
  C134     1.0000 0.41620  0.44220  0.10940  Biso   1.000  C
  H93      1.0000 0.39830  0.41370  0.09490  Biso   1.000  H
  C135     1.0000 0.44368  0.44270  0.06420  Biso   1.000  C
  H94      1.0000 0.44460  0.41180  0.02210  Biso   1.000  H
  C136     1.0000 0.46950  0.52970  0.14910  Biso   1.000  C
  H95      1.0000 0.48750  0.55750  0.16360  Biso   1.000  H
  C137     1.0000 0.44238  0.52810  0.19390  Biso   1.000  C
  H96      1.0000 0.44210  0.55710  0.23740  Biso   1.000  H
  C138     1.0000 0.16100  0.38540  0.55900  Biso   1.000  C
  H97      1.0000 0.16870  0.42350  0.59040  Biso   1.000  H
  C139     1.0000 0.13150  0.35160  0.57510  Biso   1.000  C
  H98      1.0000 0.12020  0.36550  0.61770  Biso   1.000  H
  C140     1.0000 0.13520  0.27930  0.46200  Biso   1.000  C
  H99      1.0000 0.12570  0.24530  0.42870  Biso   1.000  H
  C141     1.0000 0.16518  0.31140  0.44570  Biso   1.000  C
  H100     1.0000 0.17580  0.29870  0.40190  Biso   1.000  H
  C142     1.0000 0.08410  0.23120  0.61850  Biso   1.000  C
  H101     1.0000 0.10090  0.23130  0.65260  Biso   1.000  H
  C143     1.0000 0.05473  0.19690  0.63700  Biso   1.000  C
  H102     1.0000 0.05110  0.18110  0.68580  Biso   1.000  H
  C144     1.0000 0.03545  0.22110  0.51230  Biso   1.000  C
  H103     1.0000 0.01940  0.21790  0.47620  Biso   1.000  H
  C145     1.0000 0.06377  0.26070  0.49530  Biso   1.000  C
  H104     1.0000 0.06590  0.28620  0.45000  Biso   1.000  H
  C146     1.0000 0.96320  0.99280  0.70990  Biso   1.000  C
  H105     1.0000 0.97860  0.99710  0.74730  Biso   1.000  H
  C147     1.0000 0.93540  0.95130  0.72620  Biso   1.000  C
  H106     1.0000 0.93200  0.93110  0.77350  Biso   1.000  H
  C148     1.0000 0.91407  0.98510  0.60480  Biso   1.000  C
  H107     1.0000 0.89650  0.98880  0.57280  Biso   1.000  H
  C149     1.0000 0.94317  0.02330  0.59080  Biso   1.000  C
  H108     1.0000 0.94550  0.04720  0.54480  Biso   1.000  H
  C150     1.0000 0.85515  0.90530  0.64250  Biso   1.000  C
  H109     1.0000 0.85500  0.94030  0.60350  Biso   1.000  H
  C151     1.0000 0.82716  0.86070  0.65750  Biso   1.000  C
  H110     1.0000 0.80860  0.86590  0.62900  Biso   1.000  H
  C152     1.0000 0.85137  0.81590  0.77190  Biso   1.000  C
  H111     1.0000 0.84860  0.79220  0.81780  Biso   1.000  H
  C153     1.0000 0.87917  0.86070  0.75720  Biso   1.000  C
  H112     1.0000 0.89480  0.86590  0.79400  Biso   1.000  H
  C154     1.0000 0.21192  0.39630  0.48160  Biso   1.000  C
  C155     1.0000 0.17934  0.36400  0.49730  Biso   1.000  C
  C156     1.0000 0.11931  0.29820  0.52820  Biso   1.000  C
  C157     1.0000 0.08830  0.26150  0.54590  Biso   1.000  C
  C158     1.0000 0.03022  0.18570  0.58180  Biso   1.000  C
  C159     1.0000 0.96959  0.02810  0.64240  Biso   1.000  C
  C160     1.0000 0.91312  0.94100  0.67050  Biso   1.000  C
  C161     1.0000 0.26050  0.47750  0.21940  Biso   1.000  C
  C162     1.0000 0.22410  0.54950  0.30150  Biso   1.000  C
  C163     1.0000 0.26950  0.61340  0.22930  Biso   1.000  C
  Cd3      1.0000 0.25800  0.33341  0.35052  Biso   1.000  Cd
  O13      1.0000 0.22095  0.40230  0.41440  Biso   1.000  O
  O14      1.0000 0.22855  0.41800  0.53460  Biso   1.000  O
  O15      1.0000 0.29358  0.42360  0.39740  Biso   1.000  O
  O16      1.0000 0.30276  0.54430  0.41660  Biso   1.000  O
  C164     1.0000 0.88354  0.89750  0.68800  Biso   1.000  C
  C165     1.0000 0.82865  0.80850  0.71690  Biso   1.000  C
  C166     1.0000 0.79960  0.75850  0.73290  Biso   1.000  C
  O17      1.0000 0.79622  0.73150  0.79340  Biso   1.000  O
  O18      1.0000 0.78030  0.74910  0.68020  Biso   1.000  O
  C167     1.0000 0.43690  0.42130  0.17180  Biso   1.000  C
  H113     1.0000 0.43310  0.37750  0.19990  Biso   1.000  H
  C168     1.0000 0.46410  0.42520  0.12640  Biso   1.000  C
  H114     1.0000 0.47850  0.38460  0.12560  Biso   1.000  H
  C169     1.0000 0.44650  0.54730  0.08180  Biso   1.000  C
  H115     1.0000 0.44910  0.58850  0.04940  Biso   1.000  H
  C170     1.0000 0.41990  0.54540  0.12820  Biso   1.000  C
  H116     1.0000 0.40510  0.58540  0.12760  Biso   1.000  H
  C171     1.0000 0.15410  0.37550  0.44940  Biso   1.000  C
  H117     1.0000 0.15670  0.40420  0.40610  Biso   1.000  H
  C172     1.0000 0.12460  0.34350  0.46690  Biso   1.000  C
  H118     1.0000 0.10730  0.35330  0.43540  Biso   1.000  H
  C173     1.0000 0.14520  0.29080  0.57880  Biso   1.000  C
  H119     1.0000 0.14230  0.26370  0.62290  Biso   1.000  H
  C174     1.0000 0.17468  0.32300  0.56370  Biso   1.000  C
  H120     1.0000 0.19150  0.31770  0.59740  Biso   1.000  H
  C175     1.0000 0.05111  0.15310  0.52960  Biso   1.000  C
  H121     1.0000 0.04590  0.10730  0.50600  Biso   1.000  H
  C176     1.0000 0.08088  0.18800  0.51580  Biso   1.000  C
  H122     1.0000 0.09600  0.16280  0.48660  Biso   1.000  H
  C177     1.0000 0.06459  0.29620  0.59010  Biso   1.000  C
  H123     1.0000 0.06710  0.34720  0.60400  Biso   1.000  H
  C178     1.0000 0.03714  0.25620  0.61400  Biso   1.000  C
  H124     1.0000 0.02380  0.27660  0.65060  Biso   1.000  H
  C179     1.0000 0.94000  0.91170  0.62670  Biso   1.000  C
  H125     1.0000 0.93820  0.86310  0.60590  Biso   1.000  H
  C180     1.0000 0.96840  0.95340  0.61430  Biso   1.000  C
  H126     1.0000 0.98570  0.93230  0.58870  Biso   1.000  H
  C181     1.0000 0.94860  0.05140  0.69700  Biso   1.000  C
  H127     1.0000 0.95090  0.09860  0.72040  Biso   1.000  H
  C182     1.0000 0.92303  0.00000  0.71670  Biso   1.000  C
  H128     1.0000 0.91270  0.00660  0.76220  Biso   1.000  H
  C183     1.0000 0.84688  0.80300  0.64910  Biso   1.000  C
  H129     1.0000 0.83950  0.76920  0.61290  Biso   1.000  H
  C184     1.0000 0.87378  0.84590  0.63250  Biso   1.000  C
  H130     1.0000 0.88470  0.84090  0.58750  Biso   1.000  H
  C185     1.0000 0.87268  0.89180  0.76200  Biso   1.000  C
  H131     1.0000 0.88350  0.91610  0.80060  Biso   1.000  H
  C186     1.0000 0.84598  0.84990  0.77530  Biso   1.000  C
  H132     1.0000 0.83830  0.84720  0.82380  Biso   1.000  H
  C187     1.0000 0.19142  0.51510  0.88280  Biso   1.000  C
  C188     1.0000 0.16475  0.51620  0.82620  Biso   1.000  C
  C189     1.0000 0.15540  0.58230  0.79150  Biso   1.000  C
  H133     1.0000 0.16620  0.62770  0.80190  Biso   1.000  H
  C190     1.0000 0.12995  0.58300  0.74080  Biso   1.000  C
  H134     1.0000 0.12420  0.62810  0.71680  Biso   1.000  H
  C191     1.0000 0.11332  0.51600  0.72660  Biso   1.000  C
  C192     1.0000 0.12292  0.44960  0.76200  Biso   1.000  C
  H135     1.0000 0.11220  0.40400  0.75180  Biso   1.000  H
  C193     1.0000 0.14784  0.44970  0.81180  Biso   1.000  C
  H136     1.0000 0.15340  0.40460  0.83610  Biso   1.000  H
  C194     1.0000 0.08476  0.51640  0.67550  Biso   1.000  C
  C195     1.0000 0.03034  0.51060  0.58220  Biso   1.000  C
  C196     1.0000 0.08380  0.55780  0.60940  Biso   1.000  C
  H137     1.0000 0.10170  0.58630  0.59490  Biso   1.000  H
  C197     1.0000 0.05632  0.55730  0.56420  Biso   1.000  C
  H138     1.0000 0.05540  0.58820  0.52210  Biso   1.000  H
  C198     1.0000 0.03050  0.47030  0.64910  Biso   1.000  C
  H139     1.0000 0.01250  0.44250  0.66360  Biso   1.000  H
  C199     1.0000 0.05762  0.47190  0.69390  Biso   1.000  C
  H140     1.0000 0.05790  0.44290  0.73740  Biso   1.000  H
  C200     1.0000 0.33900  0.61460  0.05900  Biso   1.000  C
  H141     1.0000 0.33130  0.57650  0.09040  Biso   1.000  H
  C201     1.0000 0.36850  0.64840  0.07510  Biso   1.000  C
  H142     1.0000 0.37980  0.63450  0.11770  Biso   1.000  H
  C202     1.0000 0.36480  0.72070  0.96200  Biso   1.000  C
  H143     1.0000 0.37430  0.75470  0.92870  Biso   1.000  H
  C203     1.0000 0.33482  0.68860  0.94570  Biso   1.000  C
  H144     1.0000 0.32420  0.70130  0.90190  Biso   1.000  H
  C204     1.0000 0.41590  0.76880  0.11850  Biso   1.000  C
  H145     1.0000 0.39910  0.76870  0.15260  Biso   1.000  H
  C205     1.0000 0.44527  0.80310  0.13700  Biso   1.000  C
  H146     1.0000 0.44890  0.81890  0.18580  Biso   1.000  H
  C206     1.0000 0.46455  0.77890  0.01230  Biso   1.000  C
  H147     1.0000 0.48060  0.78210  0.97620  Biso   1.000  H
  C207     1.0000 0.43623  0.73930  0.99530  Biso   1.000  C
  H148     1.0000 0.43410  0.71380  0.95000  Biso   1.000  H
  C208     1.0000 0.53680  0.00720  0.20990  Biso   1.000  C
  H149     1.0000 0.52140  0.00290  0.24730  Biso   1.000  H
  C209     1.0000 0.56460  0.04870  0.22620  Biso   1.000  C
  H150     1.0000 0.56800  0.06890  0.27350  Biso   1.000  H
  C210     1.0000 0.58593  0.01490  0.10480  Biso   1.000  C
  H151     1.0000 0.60350  0.01120  0.07280  Biso   1.000  H
  C211     1.0000 0.55683  0.97670  0.09080  Biso   1.000  C
  H152     1.0000 0.55450  0.95280  0.04480  Biso   1.000  H
  C212     1.0000 0.64485  0.09470  0.14250  Biso   1.000  C
  H153     1.0000 0.64500  0.05970  0.10350  Biso   1.000  H
  C213     1.0000 0.67284  0.13930  0.15750  Biso   1.000  C
  H154     1.0000 0.69140  0.13410  0.12900  Biso   1.000  H
  C214     1.0000 0.64863  0.18410  0.27190  Biso   1.000  C
  H155     1.0000 0.65140  0.20780  0.31780  Biso   1.000  H
  C215     1.0000 0.62083  0.13930  0.25720  Biso   1.000  C
  H156     1.0000 0.60520  0.13410  0.29400  Biso   1.000  H
  C216     1.0000 0.28808  0.60370  0.98160  Biso   1.000  C
  C217     1.0000 0.32066  0.63600  0.99730  Biso   1.000  C
  C218     1.0000 0.38069  0.70180  0.02820  Biso   1.000  C
  C219     1.0000 0.41170  0.73850  0.04590  Biso   1.000  C
  C220     1.0000 0.46978  0.81430  0.08180  Biso   1.000  C
  C221     1.0000 0.53041  0.97190  0.14240  Biso   1.000  C
  C222     1.0000 0.58688  0.05900  0.17050  Biso   1.000  C
  C223     1.0000 0.23950  0.52250  0.71940  Biso   1.000  C
  C224     1.0000 0.27590  0.45050  0.80150  Biso   1.000  C
  C225     1.0000 0.23050  0.38660  0.72930  Biso   1.000  C
  Cd4      1.0000 0.24200  0.66659  0.85052  Biso   1.000  Cd
  O19      1.0000 0.27905  0.59770  0.91440  Biso   1.000  O
  O20      1.0000 0.27145  0.58200  0.03460  Biso   1.000  O
  O21      1.0000 0.20642  0.57640  0.89740  Biso   1.000  O
  O22      1.0000 0.19724  0.45570  0.91660  Biso   1.000  O
  C226     1.0000 0.61646  0.10250  0.18800  Biso   1.000  C
  C227     1.0000 0.67135  0.19150  0.21690  Biso   1.000  C
  C228     1.0000 0.70040  0.24150  0.23290  Biso   1.000  C
  O23      1.0000 0.70378  0.26850  0.29340  Biso   1.000  O
  O24      1.0000 0.71970  0.25090  0.18020  Biso   1.000  O
  C229     1.0000 0.06310  0.57870  0.67180  Biso   1.000  C
  H157     1.0000 0.06690  0.62250  0.69990  Biso   1.000  H
  C230     1.0000 0.03590  0.57480  0.62640  Biso   1.000  C
  H158     1.0000 0.02150  0.61540  0.62560  Biso   1.000  H
  C231     1.0000 0.05350  0.45270  0.58180  Biso   1.000  C
  H159     1.0000 0.05090  0.41150  0.54940  Biso   1.000  H
  C232     1.0000 0.08010  0.45460  0.62820  Biso   1.000  C
  H160     1.0000 0.09490  0.41460  0.62760  Biso   1.000  H
  C233     1.0000 0.34590  0.62450  0.94940  Biso   1.000  C
  H161     1.0000 0.34330  0.59580  0.90610  Biso   1.000  H
  C234     1.0000 0.37540  0.65650  0.96690  Biso   1.000  C
  H162     1.0000 0.39270  0.64670  0.93540  Biso   1.000  H
  C235     1.0000 0.35480  0.70920  0.07880  Biso   1.000  C
  H163     1.0000 0.35770  0.73630  0.12290  Biso   1.000  H
  C236     1.0000 0.32532  0.67700  0.06370  Biso   1.000  C
  H164     1.0000 0.30850  0.68230  0.09740  Biso   1.000  H
  C237     1.0000 0.44889  0.84690  0.02960  Biso   1.000  C
  H165     1.0000 0.45410  0.89270  0.00600  Biso   1.000  H
  C238     1.0000 0.41912  0.81200  0.01580  Biso   1.000  C
  H166     1.0000 0.40400  0.83720  0.98660  Biso   1.000  H
  C239     1.0000 0.43541  0.70380  0.09010  Biso   1.000  C
  H167     1.0000 0.43290  0.65280  0.10400  Biso   1.000  H
  C240     1.0000 0.46286  0.74380  0.11400  Biso   1.000  C
  H168     1.0000 0.47620  0.72340  0.15060  Biso   1.000  H
  C241     1.0000 0.56000  0.08830  0.12670  Biso   1.000  C
  H169     1.0000 0.56180  0.13690  0.10590  Biso   1.000  H
  C242     1.0000 0.53160  0.04660  0.11430  Biso   1.000  C
  H170     1.0000 0.51430  0.06770  0.08870  Biso   1.000  H
  C243     1.0000 0.55140  0.94860  0.19700  Biso   1.000  C
  H171     1.0000 0.54910  0.90140  0.22040  Biso   1.000  H
  C244     1.0000 0.57697  0.00000  0.21670  Biso   1.000  C
  H172     1.0000 0.58730  0.99340  0.26220  Biso   1.000  H
  C245     1.0000 0.65312  0.19700  0.14910  Biso   1.000  C
  H173     1.0000 0.66050  0.23080  0.11290  Biso   1.000  H
  C246     1.0000 0.62622  0.15410  0.13250  Biso   1.000  C
  H174     1.0000 0.61530  0.15910  0.08750  Biso   1.000  H
  C247     1.0000 0.62732  0.10820  0.26200  Biso   1.000  C
  H175     1.0000 0.61650  0.08390  0.30060  Biso   1.000  H
  C248     1.0000 0.65402  0.15010  0.27530  Biso   1.000  C
  H176     1.0000 0.66170  0.15280  0.32380  Biso   1.000  H
  C249     1.0000 0.80858  0.51510  0.88280  Biso   1.000  C
  C250     1.0000 0.83525  0.51620  0.82620  Biso   1.000  C
  C251     1.0000 0.84460  0.58230  0.79150  Biso   1.000  C
  H177     1.0000 0.83380  0.62770  0.80190  Biso   1.000  H
  C252     1.0000 0.87005  0.58300  0.74080  Biso   1.000  C
  H178     1.0000 0.87580  0.62810  0.71680  Biso   1.000  H
  C253     1.0000 0.88668  0.51600  0.72660  Biso   1.000  C
  C254     1.0000 0.87708  0.44960  0.76200  Biso   1.000  C
  H179     1.0000 0.88780  0.40400  0.75180  Biso   1.000  H
  C255     1.0000 0.85216  0.44970  0.81180  Biso   1.000  C
  H180     1.0000 0.84660  0.40460  0.83610  Biso   1.000  H
  C256     1.0000 0.91524  0.51640  0.67550  Biso   1.000  C
  C257     1.0000 0.96966  0.51060  0.58220  Biso   1.000  C
  C258     1.0000 0.91620  0.55780  0.60940  Biso   1.000  C
  H181     1.0000 0.89830  0.58630  0.59490  Biso   1.000  H
  C259     1.0000 0.94368  0.55730  0.56420  Biso   1.000  C
  H182     1.0000 0.94460  0.58820  0.52210  Biso   1.000  H
  C260     1.0000 0.96950  0.47030  0.64910  Biso   1.000  C
  H183     1.0000 0.98750  0.44250  0.66360  Biso   1.000  H
  C261     1.0000 0.94238  0.47190  0.69390  Biso   1.000  C
  H184     1.0000 0.94210  0.44290  0.73740  Biso   1.000  H
  C262     1.0000 0.66100  0.61460  0.05900  Biso   1.000  C
  H185     1.0000 0.66870  0.57650  0.09040  Biso   1.000  H
  C263     1.0000 0.63150  0.64840  0.07510  Biso   1.000  C
  H186     1.0000 0.62020  0.63450  0.11770  Biso   1.000  H
  C264     1.0000 0.63520  0.72070  0.96200  Biso   1.000  C
  H187     1.0000 0.62570  0.75470  0.92870  Biso   1.000  H
  C265     1.0000 0.66518  0.68860  0.94570  Biso   1.000  C
  H188     1.0000 0.67580  0.70130  0.90190  Biso   1.000  H
  C266     1.0000 0.58410  0.76880  0.11850  Biso   1.000  C
  H189     1.0000 0.60090  0.76870  0.15260  Biso   1.000  H
  C267     1.0000 0.55473  0.80310  0.13700  Biso   1.000  C
  H190     1.0000 0.55110  0.81890  0.18580  Biso   1.000  H
  C268     1.0000 0.53545  0.77890  0.01230  Biso   1.000  C
  H191     1.0000 0.51940  0.78210  0.97620  Biso   1.000  H
  C269     1.0000 0.56377  0.73930  0.99530  Biso   1.000  C
  H192     1.0000 0.56590  0.71380  0.95000  Biso   1.000  H
  C270     1.0000 0.46320  0.00720  0.20990  Biso   1.000  C
  H193     1.0000 0.47860  0.00290  0.24730  Biso   1.000  H
  C271     1.0000 0.43540  0.04870  0.22620  Biso   1.000  C
  H194     1.0000 0.43200  0.06890  0.27350  Biso   1.000  H
  C272     1.0000 0.41407  0.01490  0.10480  Biso   1.000  C
  H195     1.0000 0.39650  0.01120  0.07280  Biso   1.000  H
  C273     1.0000 0.44317  0.97670  0.09080  Biso   1.000  C
  H196     1.0000 0.44550  0.95280  0.04480  Biso   1.000  H
  C274     1.0000 0.35515  0.09470  0.14250  Biso   1.000  C
  H197     1.0000 0.35500  0.05970  0.10350  Biso   1.000  H
  C275     1.0000 0.32716  0.13930  0.15750  Biso   1.000  C
  H198     1.0000 0.30860  0.13410  0.12900  Biso   1.000  H
  C276     1.0000 0.35137  0.18410  0.27190  Biso   1.000  C
  H199     1.0000 0.34860  0.20780  0.31780  Biso   1.000  H
  C277     1.0000 0.37917  0.13930  0.25720  Biso   1.000  C
  H200     1.0000 0.39480  0.13410  0.29400  Biso   1.000  H
  C278     1.0000 0.71192  0.60370  0.98160  Biso   1.000  C
  C279     1.0000 0.67934  0.63600  0.99730  Biso   1.000  C
  C280     1.0000 0.61931  0.70180  0.02820  Biso   1.000  C
  C281     1.0000 0.58830  0.73850  0.04590  Biso   1.000  C
  C282     1.0000 0.53022  0.81430  0.08180  Biso   1.000  C
  C283     1.0000 0.46959  0.97190  0.14240  Biso   1.000  C
  C284     1.0000 0.41312  0.05900  0.17050  Biso   1.000  C
  C285     1.0000 0.76050  0.52250  0.71940  Biso   1.000  C
  C286     1.0000 0.72410  0.45050  0.80150  Biso   1.000  C
  C287     1.0000 0.76950  0.38660  0.72930  Biso   1.000  C
  Cd5      1.0000 0.75800  0.66659  0.85052  Biso   1.000  Cd
  O25      1.0000 0.72095  0.59770  0.91440  Biso   1.000  O
  O26      1.0000 0.72855  0.58200  0.03460  Biso   1.000  O
  O27      1.0000 0.79358  0.57640  0.89740  Biso   1.000  O
  O28      1.0000 0.80276  0.45570  0.91660  Biso   1.000  O
  C288     1.0000 0.38354  0.10250  0.18800  Biso   1.000  C
  C289     1.0000 0.32865  0.19150  0.21690  Biso   1.000  C
  C290     1.0000 0.29960  0.24150  0.23290  Biso   1.000  C
  O29      1.0000 0.29622  0.26850  0.29340  Biso   1.000  O
  O30      1.0000 0.28030  0.25090  0.18020  Biso   1.000  O
  C291     1.0000 0.93690  0.57870  0.67180  Biso   1.000  C
  H201     1.0000 0.93310  0.62250  0.69990  Biso   1.000  H
  C292     1.0000 0.96410  0.57480  0.62640  Biso   1.000  C
  H202     1.0000 0.97850  0.61540  0.62560  Biso   1.000  H
  C293     1.0000 0.94650  0.45270  0.58180  Biso   1.000  C
  H203     1.0000 0.94910  0.41150  0.54940  Biso   1.000  H
  C294     1.0000 0.91990  0.45460  0.62820  Biso   1.000  C
  H204     1.0000 0.90510  0.41460  0.62760  Biso   1.000  H
  C295     1.0000 0.65410  0.62450  0.94940  Biso   1.000  C
  H205     1.0000 0.65670  0.59580  0.90610  Biso   1.000  H
  C296     1.0000 0.62460  0.65650  0.96690  Biso   1.000  C
  H206     1.0000 0.60730  0.64670  0.93540  Biso   1.000  H
  C297     1.0000 0.64520  0.70920  0.07880  Biso   1.000  C
  H207     1.0000 0.64230  0.73630  0.12290  Biso   1.000  H
  C298     1.0000 0.67468  0.67700  0.06370  Biso   1.000  C
  H208     1.0000 0.69150  0.68230  0.09740  Biso   1.000  H
  C299     1.0000 0.55111  0.84690  0.02960  Biso   1.000  C
  H209     1.0000 0.54590  0.89270  0.00600  Biso   1.000  H
  C300     1.0000 0.58088  0.81200  0.01580  Biso   1.000  C
  H210     1.0000 0.59600  0.83720  0.98660  Biso   1.000  H
  C301     1.0000 0.56459  0.70380  0.09010  Biso   1.000  C
  H211     1.0000 0.56710  0.65280  0.10400  Biso   1.000  H
  C302     1.0000 0.53714  0.74380  0.11400  Biso   1.000  C
  H212     1.0000 0.52380  0.72340  0.15060  Biso   1.000  H
  C303     1.0000 0.44000  0.08830  0.12670  Biso   1.000  C
  H213     1.0000 0.43820  0.13690  0.10590  Biso   1.000  H
  C304     1.0000 0.46840  0.04660  0.11430  Biso   1.000  C
  H214     1.0000 0.48570  0.06770  0.08870  Biso   1.000  H
  C305     1.0000 0.44860  0.94860  0.19700  Biso   1.000  C
  H215     1.0000 0.45090  0.90140  0.22040  Biso   1.000  H
  C306     1.0000 0.42303  0.00000  0.21670  Biso   1.000  C
  H216     1.0000 0.41270  0.99340  0.26220  Biso   1.000  H
  C307     1.0000 0.34688  0.19700  0.14910  Biso   1.000  C
  H217     1.0000 0.33950  0.23080  0.11290  Biso   1.000  H
  C308     1.0000 0.37378  0.15410  0.13250  Biso   1.000  C
  H218     1.0000 0.38470  0.15910  0.08750  Biso   1.000  H
  C309     1.0000 0.37268  0.10820  0.26200  Biso   1.000  C
  H219     1.0000 0.38350  0.08390  0.30060  Biso   1.000  H
  C310     1.0000 0.34598  0.15010  0.27530  Biso   1.000  C
  H220     1.0000 0.33830  0.15280  0.32380  Biso   1.000  H
  C311     1.0000 0.69142  0.48490  0.38280  Biso   1.000  C
  C312     1.0000 0.66475  0.48380  0.32620  Biso   1.000  C
  C313     1.0000 0.65540  0.41770  0.29150  Biso   1.000  C
  H221     1.0000 0.66620  0.37230  0.30190  Biso   1.000  H
  C314     1.0000 0.62995  0.41700  0.24080  Biso   1.000  C
  H222     1.0000 0.62420  0.37190  0.21680  Biso   1.000  H
  C315     1.0000 0.61332  0.48400  0.22660  Biso   1.000  C
  C316     1.0000 0.62292  0.55040  0.26200  Biso   1.000  C
  H223     1.0000 0.61220  0.59600  0.25180  Biso   1.000  H
  C317     1.0000 0.64784  0.55030  0.31180  Biso   1.000  C
  H224     1.0000 0.65340  0.59540  0.33610  Biso   1.000  H
  C318     1.0000 0.58476  0.48360  0.17550  Biso   1.000  C
  C319     1.0000 0.53034  0.48940  0.08220  Biso   1.000  C
  C320     1.0000 0.58380  0.44220  0.10940  Biso   1.000  C
  H225     1.0000 0.60170  0.41370  0.09490  Biso   1.000  H
  C321     1.0000 0.55632  0.44270  0.06420  Biso   1.000  C
  H226     1.0000 0.55540  0.41180  0.02210  Biso   1.000  H
  C322     1.0000 0.53050  0.52970  0.14910  Biso   1.000  C
  H227     1.0000 0.51250  0.55750  0.16360  Biso   1.000  H
  C323     1.0000 0.55762  0.52810  0.19390  Biso   1.000  C
  H228     1.0000 0.55790  0.55710  0.23740  Biso   1.000  H
  C324     1.0000 0.83900  0.38540  0.55900  Biso   1.000  C
  H229     1.0000 0.83130  0.42350  0.59040  Biso   1.000  H
  C325     1.0000 0.86850  0.35160  0.57510  Biso   1.000  C
  H230     1.0000 0.87980  0.36550  0.61770  Biso   1.000  H
  C326     1.0000 0.86480  0.27930  0.46200  Biso   1.000  C
  H231     1.0000 0.87430  0.24530  0.42870  Biso   1.000  H
  C327     1.0000 0.83482  0.31140  0.44570  Biso   1.000  C
  H232     1.0000 0.82420  0.29870  0.40190  Biso   1.000  H
  C328     1.0000 0.91590  0.23120  0.61850  Biso   1.000  C
  H233     1.0000 0.89910  0.23130  0.65260  Biso   1.000  H
  C329     1.0000 0.94527  0.19690  0.63700  Biso   1.000  C
  H234     1.0000 0.94890  0.18110  0.68580  Biso   1.000  H
  C330     1.0000 0.96455  0.22110  0.51230  Biso   1.000  C
  H235     1.0000 0.98060  0.21790  0.47620  Biso   1.000  H
  C331     1.0000 0.93623  0.26070  0.49530  Biso   1.000  C
  H236     1.0000 0.93410  0.28620  0.45000  Biso   1.000  H
  C332     1.0000 0.03680  0.99280  0.70990  Biso   1.000  C
  H237     1.0000 0.02140  0.99710  0.74730  Biso   1.000  H
  C333     1.0000 0.06460  0.95130  0.72620  Biso   1.000  C
  H238     1.0000 0.06800  0.93110  0.77350  Biso   1.000  H
  C334     1.0000 0.08593  0.98510  0.60480  Biso   1.000  C
  H239     1.0000 0.10350  0.98880  0.57280  Biso   1.000  H
  C335     1.0000 0.05683  0.02330  0.59080  Biso   1.000  C
  H240     1.0000 0.05450  0.04720  0.54480  Biso   1.000  H
  C336     1.0000 0.14485  0.90530  0.64250  Biso   1.000  C
  H241     1.0000 0.14500  0.94030  0.60350  Biso   1.000  H
  C337     1.0000 0.17284  0.86070  0.65750  Biso   1.000  C
  H242     1.0000 0.19140  0.86590  0.62900  Biso   1.000  H
  C338     1.0000 0.14863  0.81590  0.77190  Biso   1.000  C
  H243     1.0000 0.15140  0.79220  0.81780  Biso   1.000  H
  C339     1.0000 0.12083  0.86070  0.75720  Biso   1.000  C
  H244     1.0000 0.10520  0.86590  0.79400  Biso   1.000  H
  C340     1.0000 0.78808  0.39630  0.48160  Biso   1.000  C
  C341     1.0000 0.82066  0.36400  0.49730  Biso   1.000  C
  C342     1.0000 0.88069  0.29820  0.52820  Biso   1.000  C
  C343     1.0000 0.91170  0.26150  0.54590  Biso   1.000  C
  C344     1.0000 0.96978  0.18570  0.58180  Biso   1.000  C
  C345     1.0000 0.03041  0.02810  0.64240  Biso   1.000  C
  C346     1.0000 0.08688  0.94100  0.67050  Biso   1.000  C
  C347     1.0000 0.73950  0.47750  0.21940  Biso   1.000  C
  C348     1.0000 0.77590  0.54950  0.30150  Biso   1.000  C
  C349     1.0000 0.73050  0.61340  0.22930  Biso   1.000  C
  Cd6      1.0000 0.74200  0.33341  0.35052  Biso   1.000  Cd
  O31      1.0000 0.77905  0.40230  0.41440  Biso   1.000  O
  O32      1.0000 0.77145  0.41800  0.53460  Biso   1.000  O
  O33      1.0000 0.70642  0.42360  0.39740  Biso   1.000  O
  O34      1.0000 0.69724  0.54430  0.41660  Biso   1.000  O
  C350     1.0000 0.11646  0.89750  0.68800  Biso   1.000  C
  C351     1.0000 0.17135  0.80850  0.71690  Biso   1.000  C
  C352     1.0000 0.20040  0.75850  0.73290  Biso   1.000  C
  O35      1.0000 0.20378  0.73150  0.79340  Biso   1.000  O
  O36      1.0000 0.21970  0.74910  0.68020  Biso   1.000  O
  C353     1.0000 0.56310  0.42130  0.17180  Biso   1.000  C
  H245     1.0000 0.56690  0.37750  0.19990  Biso   1.000  H
  C354     1.0000 0.53590  0.42520  0.12640  Biso   1.000  C
  H246     1.0000 0.52150  0.38460  0.12560  Biso   1.000  H
  C355     1.0000 0.55350  0.54730  0.08180  Biso   1.000  C
  H247     1.0000 0.55090  0.58850  0.04940  Biso   1.000  H
  C356     1.0000 0.58010  0.54540  0.12820  Biso   1.000  C
  H248     1.0000 0.59490  0.58540  0.12760  Biso   1.000  H
  C357     1.0000 0.84590  0.37550  0.44940  Biso   1.000  C
  H249     1.0000 0.84330  0.40420  0.40610  Biso   1.000  H
  C358     1.0000 0.87540  0.34350  0.46690  Biso   1.000  C
  H250     1.0000 0.89270  0.35330  0.43540  Biso   1.000  H
  C359     1.0000 0.85480  0.29080  0.57880  Biso   1.000  C
  H251     1.0000 0.85770  0.26370  0.62290  Biso   1.000  H
  C360     1.0000 0.82532  0.32300  0.56370  Biso   1.000  C
  H252     1.0000 0.80850  0.31770  0.59740  Biso   1.000  H
  C361     1.0000 0.94889  0.15310  0.52960  Biso   1.000  C
  H253     1.0000 0.95410  0.10730  0.50600  Biso   1.000  H
  C362     1.0000 0.91912  0.18800  0.51580  Biso   1.000  C
  H254     1.0000 0.90400  0.16280  0.48660  Biso   1.000  H
  C363     1.0000 0.93541  0.29620  0.59010  Biso   1.000  C
  H255     1.0000 0.93290  0.34720  0.60400  Biso   1.000  H
  C364     1.0000 0.96286  0.25620  0.61400  Biso   1.000  C
  H256     1.0000 0.97620  0.27660  0.65060  Biso   1.000  H
  C365     1.0000 0.06000  0.91170  0.62670  Biso   1.000  C
  H257     1.0000 0.06180  0.86310  0.60590  Biso   1.000  H
  C366     1.0000 0.03160  0.95340  0.61430  Biso   1.000  C
  H258     1.0000 0.01430  0.93230  0.58870  Biso   1.000  H
  C367     1.0000 0.05140  0.05140  0.69700  Biso   1.000  C
  H259     1.0000 0.04910  0.09860  0.72040  Biso   1.000  H
  C368     1.0000 0.07697  0.00000  0.71670  Biso   1.000  C
  H260     1.0000 0.08730  0.00660  0.76220  Biso   1.000  H
  C369     1.0000 0.15312  0.80300  0.64910  Biso   1.000  C
  H261     1.0000 0.16050  0.76920  0.61290  Biso   1.000  H
  C370     1.0000 0.12622  0.84590  0.63250  Biso   1.000  C
  H262     1.0000 0.11530  0.84090  0.58750  Biso   1.000  H
  C371     1.0000 0.12732  0.89180  0.76200  Biso   1.000  C
  H263     1.0000 0.11650  0.91610  0.80060  Biso   1.000  H
  C372     1.0000 0.15402  0.84990  0.77530  Biso   1.000  C
  H264     1.0000 0.16170  0.84720  0.82380  Biso   1.000  H
  C373     1.0000 0.69142  0.51510  0.61720  Biso   1.000  C
  C374     1.0000 0.66475  0.51620  0.67380  Biso   1.000  C
  C375     1.0000 0.65540  0.58230  0.70850  Biso   1.000  C
  H265     1.0000 0.66620  0.62770  0.69810  Biso   1.000  H
  C376     1.0000 0.62995  0.58300  0.75920  Biso   1.000  C
  H266     1.0000 0.62420  0.62810  0.78320  Biso   1.000  H
  C377     1.0000 0.61332  0.51600  0.77340  Biso   1.000  C
  C378     1.0000 0.62292  0.44960  0.73800  Biso   1.000  C
  H267     1.0000 0.61220  0.40400  0.74820  Biso   1.000  H
  C379     1.0000 0.64784  0.44970  0.68820  Biso   1.000  C
  H268     1.0000 0.65340  0.40460  0.66390  Biso   1.000  H
  C380     1.0000 0.58476  0.51640  0.82450  Biso   1.000  C
  C381     1.0000 0.53034  0.51060  0.91780  Biso   1.000  C
  C382     1.0000 0.58380  0.55780  0.89060  Biso   1.000  C
  H269     1.0000 0.60170  0.58630  0.90510  Biso   1.000  H
  C383     1.0000 0.55632  0.55730  0.93580  Biso   1.000  C
  H270     1.0000 0.55540  0.58820  0.97790  Biso   1.000  H
  C384     1.0000 0.53050  0.47030  0.85090  Biso   1.000  C
  H271     1.0000 0.51250  0.44250  0.83640  Biso   1.000  H
  C385     1.0000 0.55762  0.47190  0.80610  Biso   1.000  C
  H272     1.0000 0.55790  0.44290  0.76260  Biso   1.000  H
  C386     1.0000 0.83900  0.61460  0.44100  Biso   1.000  C
  H273     1.0000 0.83130  0.57650  0.40960  Biso   1.000  H
  C387     1.0000 0.86850  0.64840  0.42490  Biso   1.000  C
  H274     1.0000 0.87980  0.63450  0.38230  Biso   1.000  H
  C388     1.0000 0.86480  0.72070  0.53800  Biso   1.000  C
  H275     1.0000 0.87430  0.75470  0.57130  Biso   1.000  H
  C389     1.0000 0.83482  0.68860  0.55430  Biso   1.000  C
  H276     1.0000 0.82420  0.70130  0.59810  Biso   1.000  H
  C390     1.0000 0.91590  0.76880  0.38150  Biso   1.000  C
  H277     1.0000 0.89910  0.76870  0.34740  Biso   1.000  H
  C391     1.0000 0.94527  0.80310  0.36300  Biso   1.000  C
  H278     1.0000 0.94890  0.81890  0.31420  Biso   1.000  H
  C392     1.0000 0.96455  0.77890  0.48770  Biso   1.000  C
  H279     1.0000 0.98060  0.78210  0.52380  Biso   1.000  H
  C393     1.0000 0.93623  0.73930  0.50470  Biso   1.000  C
  H280     1.0000 0.93410  0.71380  0.55000  Biso   1.000  H
  C394     1.0000 0.03680  0.00720  0.29010  Biso   1.000  C
  H281     1.0000 0.02140  0.00290  0.25270  Biso   1.000  H
  C395     1.0000 0.06460  0.04870  0.27380  Biso   1.000  C
  H282     1.0000 0.06800  0.06890  0.22650  Biso   1.000  H
  C396     1.0000 0.08593  0.01490  0.39520  Biso   1.000  C
  H283     1.0000 0.10350  0.01120  0.42720  Biso   1.000  H
  C397     1.0000 0.05683  0.97670  0.40920  Biso   1.000  C
  H284     1.0000 0.05450  0.95280  0.45520  Biso   1.000  H
  C398     1.0000 0.14485  0.09470  0.35750  Biso   1.000  C
  H285     1.0000 0.14500  0.05970  0.39650  Biso   1.000  H
  C399     1.0000 0.17284  0.13930  0.34250  Biso   1.000  C
  H286     1.0000 0.19140  0.13410  0.37100  Biso   1.000  H
  C400     1.0000 0.14863  0.18410  0.22810  Biso   1.000  C
  H287     1.0000 0.15140  0.20780  0.18220  Biso   1.000  H
  C401     1.0000 0.12083  0.13930  0.24280  Biso   1.000  C
  H288     1.0000 0.10520  0.13410  0.20600  Biso   1.000  H
  C402     1.0000 0.78808  0.60370  0.51840  Biso   1.000  C
  C403     1.0000 0.82066  0.63600  0.50270  Biso   1.000  C
  C404     1.0000 0.88069  0.70180  0.47180  Biso   1.000  C
  C405     1.0000 0.91170  0.73850  0.45410  Biso   1.000  C
  C406     1.0000 0.96978  0.81430  0.41820  Biso   1.000  C
  C407     1.0000 0.03041  0.97190  0.35760  Biso   1.000  C
  C408     1.0000 0.08688  0.05900  0.32950  Biso   1.000  C
  C409     1.0000 0.73950  0.52250  0.78060  Biso   1.000  C
  C410     1.0000 0.77590  0.45050  0.69850  Biso   1.000  C
  C411     1.0000 0.73050  0.38660  0.77070  Biso   1.000  C
  Cd7      1.0000 0.74200  0.66659  0.64948  Biso   1.000  Cd
  O37      1.0000 0.77905  0.59770  0.58560  Biso   1.000  O
  O38      1.0000 0.77145  0.58200  0.46540  Biso   1.000  O
  O39      1.0000 0.70642  0.57640  0.60260  Biso   1.000  O
  O40      1.0000 0.69724  0.45570  0.58340  Biso   1.000  O
  C412     1.0000 0.11646  0.10250  0.31200  Biso   1.000  C
  C413     1.0000 0.17135  0.19150  0.28310  Biso   1.000  C
  C414     1.0000 0.20040  0.24150  0.26710  Biso   1.000  C
  O41      1.0000 0.20378  0.26850  0.20660  Biso   1.000  O
  O42      1.0000 0.21970  0.25090  0.31980  Biso   1.000  O
  C415     1.0000 0.56310  0.57870  0.82820  Biso   1.000  C
  H289     1.0000 0.56690  0.62250  0.80010  Biso   1.000  H
  C416     1.0000 0.53590  0.57480  0.87360  Biso   1.000  C
  H290     1.0000 0.52150  0.61540  0.87440  Biso   1.000  H
  C417     1.0000 0.55350  0.45270  0.91820  Biso   1.000  C
  H291     1.0000 0.55090  0.41150  0.95060  Biso   1.000  H
  C418     1.0000 0.58010  0.45460  0.87180  Biso   1.000  C
  H292     1.0000 0.59490  0.41460  0.87240  Biso   1.000  H
  C419     1.0000 0.84590  0.62450  0.55060  Biso   1.000  C
  H293     1.0000 0.84330  0.59580  0.59390  Biso   1.000  H
  C420     1.0000 0.87540  0.65650  0.53310  Biso   1.000  C
  H294     1.0000 0.89270  0.64670  0.56460  Biso   1.000  H
  C421     1.0000 0.85480  0.70920  0.42120  Biso   1.000  C
  H295     1.0000 0.85770  0.73630  0.37710  Biso   1.000  H
  C422     1.0000 0.82532  0.67700  0.43630  Biso   1.000  C
  H296     1.0000 0.80850  0.68230  0.40260  Biso   1.000  H
  C423     1.0000 0.94889  0.84690  0.47040  Biso   1.000  C
  H297     1.0000 0.95410  0.89270  0.49400  Biso   1.000  H
  C424     1.0000 0.91912  0.81200  0.48420  Biso   1.000  C
  H298     1.0000 0.90400  0.83720  0.51340  Biso   1.000  H
  C425     1.0000 0.93541  0.70380  0.40990  Biso   1.000  C
  H299     1.0000 0.93290  0.65280  0.39600  Biso   1.000  H
  C426     1.0000 0.96286  0.74380  0.38600  Biso   1.000  C
  H300     1.0000 0.97620  0.72340  0.34940  Biso   1.000  H
  C427     1.0000 0.06000  0.08830  0.37330  Biso   1.000  C
  H301     1.0000 0.06180  0.13690  0.39410  Biso   1.000  H
  C428     1.0000 0.03160  0.04660  0.38570  Biso   1.000  C
  H302     1.0000 0.01430  0.06770  0.41130  Biso   1.000  H
  C429     1.0000 0.05140  0.94860  0.30300  Biso   1.000  C
  H303     1.0000 0.04910  0.90140  0.27960  Biso   1.000  H
  C430     1.0000 0.07697  0.00000  0.28330  Biso   1.000  C
  H304     1.0000 0.08730  0.99340  0.23780  Biso   1.000  H
  C431     1.0000 0.15312  0.19700  0.35090  Biso   1.000  C
  H305     1.0000 0.16050  0.23080  0.38710  Biso   1.000  H
  C432     1.0000 0.12622  0.15410  0.36750  Biso   1.000  C
  H306     1.0000 0.11530  0.15910  0.41250  Biso   1.000  H
  C433     1.0000 0.12732  0.10820  0.23800  Biso   1.000  C
  H307     1.0000 0.11650  0.08390  0.19940  Biso   1.000  H
  C434     1.0000 0.15402  0.15010  0.22470  Biso   1.000  C
  H308     1.0000 0.16170  0.15280  0.17620  Biso   1.000  H
  C435     1.0000 0.80858  0.48490  0.11720  Biso   1.000  C
  C436     1.0000 0.83525  0.48380  0.17380  Biso   1.000  C
  C437     1.0000 0.84460  0.41770  0.20850  Biso   1.000  C
  H309     1.0000 0.83380  0.37230  0.19810  Biso   1.000  H
  C438     1.0000 0.87005  0.41700  0.25920  Biso   1.000  C
  H310     1.0000 0.87580  0.37190  0.28320  Biso   1.000  H
  C439     1.0000 0.88668  0.48400  0.27340  Biso   1.000  C
  C440     1.0000 0.87708  0.55040  0.23800  Biso   1.000  C
  H311     1.0000 0.88780  0.59600  0.24820  Biso   1.000  H
  C441     1.0000 0.85216  0.55030  0.18820  Biso   1.000  C
  H312     1.0000 0.84660  0.59540  0.16390  Biso   1.000  H
  C442     1.0000 0.91524  0.48360  0.32450  Biso   1.000  C
  C443     1.0000 0.96966  0.48940  0.41780  Biso   1.000  C
  C444     1.0000 0.91620  0.44220  0.39060  Biso   1.000  C
  H313     1.0000 0.89830  0.41370  0.40510  Biso   1.000  H
  C445     1.0000 0.94368  0.44270  0.43580  Biso   1.000  C
  H314     1.0000 0.94460  0.41180  0.47790  Biso   1.000  H
  C446     1.0000 0.96950  0.52970  0.35090  Biso   1.000  C
  H315     1.0000 0.98750  0.55750  0.33640  Biso   1.000  H
  C447     1.0000 0.94238  0.52810  0.30610  Biso   1.000  C
  H316     1.0000 0.94210  0.55710  0.26260  Biso   1.000  H
  C448     1.0000 0.66100  0.38540  0.94100  Biso   1.000  C
  H317     1.0000 0.66870  0.42350  0.90960  Biso   1.000  H
  C449     1.0000 0.63150  0.35160  0.92490  Biso   1.000  C
  H318     1.0000 0.62020  0.36550  0.88230  Biso   1.000  H
  C450     1.0000 0.63520  0.27930  0.03800  Biso   1.000  C
  H319     1.0000 0.62570  0.24530  0.07130  Biso   1.000  H
  C451     1.0000 0.66518  0.31140  0.05430  Biso   1.000  C
  H320     1.0000 0.67580  0.29870  0.09810  Biso   1.000  H
  C452     1.0000 0.58410  0.23120  0.88150  Biso   1.000  C
  H321     1.0000 0.60090  0.23130  0.84740  Biso   1.000  H
  C453     1.0000 0.55473  0.19690  0.86300  Biso   1.000  C
  H322     1.0000 0.55110  0.18110  0.81420  Biso   1.000  H
  C454     1.0000 0.53545  0.22110  0.98770  Biso   1.000  C
  H323     1.0000 0.51940  0.21790  0.02380  Biso   1.000  H
  C455     1.0000 0.56377  0.26070  0.00470  Biso   1.000  C
  H324     1.0000 0.56590  0.28620  0.05000  Biso   1.000  H
  C456     1.0000 0.46320  0.99280  0.79010  Biso   1.000  C
  H325     1.0000 0.47860  0.99710  0.75270  Biso   1.000  H
  C457     1.0000 0.43540  0.95130  0.77380  Biso   1.000  C
  H326     1.0000 0.43200  0.93110  0.72650  Biso   1.000  H
  C458     1.0000 0.41407  0.98510  0.89520  Biso   1.000  C
  H327     1.0000 0.39650  0.98880  0.92720  Biso   1.000  H
  C459     1.0000 0.44317  0.02330  0.90920  Biso   1.000  C
  H328     1.0000 0.44550  0.04720  0.95520  Biso   1.000  H
  C460     1.0000 0.35515  0.90530  0.85750  Biso   1.000  C
  H329     1.0000 0.35500  0.94030  0.89650  Biso   1.000  H
  C461     1.0000 0.32716  0.86070  0.84250  Biso   1.000  C
  H330     1.0000 0.30860  0.86590  0.87100  Biso   1.000  H
  C462     1.0000 0.35137  0.81590  0.72810  Biso   1.000  C
  H331     1.0000 0.34860  0.79220  0.68220  Biso   1.000  H
  C463     1.0000 0.37917  0.86070  0.74280  Biso   1.000  C
  H332     1.0000 0.39480  0.86590  0.70600  Biso   1.000  H
  C464     1.0000 0.71192  0.39630  0.01840  Biso   1.000  C
  C465     1.0000 0.67934  0.36400  0.00270  Biso   1.000  C
  C466     1.0000 0.61931  0.29820  0.97180  Biso   1.000  C
  C467     1.0000 0.58830  0.26150  0.95410  Biso   1.000  C
  C468     1.0000 0.53022  0.18570  0.91820  Biso   1.000  C
  C469     1.0000 0.46959  0.02810  0.85760  Biso   1.000  C
  C470     1.0000 0.41312  0.94100  0.82950  Biso   1.000  C
  C471     1.0000 0.76050  0.47750  0.28060  Biso   1.000  C
  C472     1.0000 0.72410  0.54950  0.19850  Biso   1.000  C
  C473     1.0000 0.76950  0.61340  0.27070  Biso   1.000  C
  Cd8      1.0000 0.75800  0.33341  0.14948  Biso   1.000  Cd
  O43      1.0000 0.72095  0.40230  0.08560  Biso   1.000  O
  O44      1.0000 0.72855  0.41800  0.96540  Biso   1.000  O
  O45      1.0000 0.79358  0.42360  0.10260  Biso   1.000  O
  O46      1.0000 0.80276  0.54430  0.08340  Biso   1.000  O
  C474     1.0000 0.38354  0.89750  0.81200  Biso   1.000  C
  C475     1.0000 0.32865  0.80850  0.78310  Biso   1.000  C
  C476     1.0000 0.29960  0.75850  0.76710  Biso   1.000  C
  O47      1.0000 0.29622  0.73150  0.70660  Biso   1.000  O
  O48      1.0000 0.28030  0.74910  0.81980  Biso   1.000  O
  C477     1.0000 0.93690  0.42130  0.32820  Biso   1.000  C
  H333     1.0000 0.93310  0.37750  0.30010  Biso   1.000  H
  C478     1.0000 0.96410  0.42520  0.37360  Biso   1.000  C
  H334     1.0000 0.97850  0.38460  0.37440  Biso   1.000  H
  C479     1.0000 0.94650  0.54730  0.41820  Biso   1.000  C
  H335     1.0000 0.94910  0.58850  0.45060  Biso   1.000  H
  C480     1.0000 0.91990  0.54540  0.37180  Biso   1.000  C
  H336     1.0000 0.90510  0.58540  0.37240  Biso   1.000  H
  C481     1.0000 0.65410  0.37550  0.05060  Biso   1.000  C
  H337     1.0000 0.65670  0.40420  0.09390  Biso   1.000  H
  C482     1.0000 0.62460  0.34350  0.03310  Biso   1.000  C
  H338     1.0000 0.60730  0.35330  0.06460  Biso   1.000  H
  C483     1.0000 0.64520  0.29080  0.92120  Biso   1.000  C
  H339     1.0000 0.64230  0.26370  0.87710  Biso   1.000  H
  C484     1.0000 0.67468  0.32300  0.93630  Biso   1.000  C
  H340     1.0000 0.69150  0.31770  0.90260  Biso   1.000  H
  C485     1.0000 0.55111  0.15310  0.97040  Biso   1.000  C
  H341     1.0000 0.54590  0.10730  0.99400  Biso   1.000  H
  C486     1.0000 0.58088  0.18800  0.98420  Biso   1.000  C
  H342     1.0000 0.59600  0.16280  0.01340  Biso   1.000  H
  C487     1.0000 0.56459  0.29620  0.90990  Biso   1.000  C
  H343     1.0000 0.56710  0.34720  0.89600  Biso   1.000  H
  C488     1.0000 0.53714  0.25620  0.88600  Biso   1.000  C
  H344     1.0000 0.52380  0.27660  0.84940  Biso   1.000  H
  C489     1.0000 0.44000  0.91170  0.87330  Biso   1.000  C
  H345     1.0000 0.43820  0.86310  0.89410  Biso   1.000  H
  C490     1.0000 0.46840  0.95340  0.88570  Biso   1.000  C
  H346     1.0000 0.48570  0.93230  0.91130  Biso   1.000  H
  C491     1.0000 0.44860  0.05140  0.80300  Biso   1.000  C
  H347     1.0000 0.45090  0.09860  0.77960  Biso   1.000  H
  C492     1.0000 0.42303  0.00000  0.78330  Biso   1.000  C
  H348     1.0000 0.41270  0.00660  0.73780  Biso   1.000  H
  C493     1.0000 0.34688  0.80300  0.85090  Biso   1.000  C
  H349     1.0000 0.33950  0.76920  0.88710  Biso   1.000  H
  C494     1.0000 0.37378  0.84590  0.86750  Biso   1.000  C
  H350     1.0000 0.38470  0.84090  0.91250  Biso   1.000  H
  C495     1.0000 0.37268  0.89180  0.73800  Biso   1.000  C
  H351     1.0000 0.38350  0.91610  0.69940  Biso   1.000  H
  C496     1.0000 0.34598  0.84990  0.72470  Biso   1.000  C
  H352     1.0000 0.33830  0.84720  0.67620  Biso   1.000  H
  C497     1.0000 0.00000  0.49420  0.46290  Biso   1.000  C
  C498     1.0000 0.50000  0.50580  0.96290  Biso   1.000  C
  C499     1.0000 0.50000  0.49420  0.03710  Biso   1.000  C
  C500     1.0000 0.00000  0.50580  0.53710  Biso   1.000  C
  C501     1.0000 0.50000  0.14260  0.90040  Biso   1.000  C
  C502     1.0000 0.50000  0.07200  0.87370  Biso   1.000  C
  C503     1.0000 0.00000  0.85740  0.40040  Biso   1.000  C
  C504     1.0000 0.00000  0.92800  0.37370  Biso   1.000  C
  C505     1.0000 0.00000  0.14260  0.59960  Biso   1.000  C
  C506     1.0000 0.00000  0.07200  0.62630  Biso   1.000  C
  C507     1.0000 0.50000  0.85740  0.09960  Biso   1.000  C
  C508     1.0000 0.50000  0.92800  0.12630  Biso   1.000  C
  N1       1.0000 0.25000  0.54660  0.25000  Biso   1.000  N
  O49      1.0000 0.25000  0.41760  0.25000  Biso   1.000  O
  N2       1.0000 0.25000  0.45340  0.75000  Biso   1.000  N
  O50      1.0000 0.25000  0.58240  0.75000  Biso   1.000  O
  N3       1.0000 0.75000  0.45340  0.75000  Biso   1.000  N
  O51      1.0000 0.75000  0.58240  0.75000  Biso   1.000  O
  N4       1.0000 0.75000  0.54660  0.25000  Biso   1.000  N
  O52      1.0000 0.75000  0.41760  0.25000  Biso   1.000  O
  Cd9      1.0000 0.23401  0.50000  0.00000  Biso   1.000  Cd
  Cd10     1.0000 0.26599  0.50000  0.50000  Biso   1.000  Cd
  Cd11     1.0000 0.76599  0.50000  0.00000  Biso   1.000  Cd
  Cd12     1.0000 0.73401  0.50000  0.50000  Biso   1.000  Cd
