data_image0
_cell_length_a       11.6608
_cell_length_b       39.3981
_cell_length_c       24.4617
_cell_angle_alpha    90
_cell_angle_beta     101.297
_cell_angle_gamma    90

_symmetry_space_group_name_H-M    "P 1"
_symmetry_int_tables_number       1

loop_
  _symmetry_equiv_pos_as_xyz
  'x, y, z'

loop_
  _atom_site_label
  _atom_site_occupancy
  _atom_site_fract_x
  _atom_site_fract_y
  _atom_site_fract_z
  _atom_site_thermal_displace_type
  _atom_site_B_iso_or_equiv
  _atom_site_type_symbol
  Mn1      1.0000 0.69405  0.38032  0.61951  Biso   1.000  Mn
  Mn2      1.0000 0.88221  0.04169  0.36714  Biso   1.000  Mn
  Mn3      1.0000 0.72126  0.19883  0.37166  Biso   1.000  Mn
  O1       1.0000 0.60330  0.23530  0.38061  Biso   1.000  O
  O2       1.0000 0.47280  0.24986  0.30544  Biso   1.000  O
  O3       1.0000 0.69490  0.30458  0.54476  Biso   1.000  O
  O4       1.0000 0.60610  0.35382  0.54961  Biso   1.000  O
  O5       1.0000 0.57300  0.46191  0.54371  Biso   1.000  O
  O6       1.0000 0.70970  0.42376  0.56804  Biso   1.000  O
  O7       1.0000 0.48520  0.50269  0.34502  Biso   1.000  O
  O8       1.0000 0.61200  0.49065  0.29322  Biso   1.000  O
  O9       1.0000 0.72510  0.08861  0.31203  Biso   1.000  O
  O10      1.0000 0.81220  0.04608  0.27750  Biso   1.000  O
  O11      1.0000 0.48910  0.17008  0.18741  Biso   1.000  O
  O12      1.0000 0.36020  0.14776  0.11880  Biso   1.000  O
  O13      1.0000 0.03280  0.09313  0.13117  Biso   1.000  O
  O14      1.0000 0.94030  0.07162  0.19403  Biso   1.000  O
  O15      1.0000 0.69780  0.20151  0.27462  Biso   1.000  O
  O16      1.0000 0.81640  0.16264  0.31899  Biso   1.000  O
  C1       1.0000 0.52920  0.25542  0.35356  Biso   1.000  C
  C2       1.0000 0.62600  0.32756  0.52427  Biso   1.000  C
  C3       1.0000 0.64330  0.44136  0.53116  Biso   1.000  C
  C4       1.0000 0.57040  0.48577  0.33633  Biso   1.000  C
  C5       1.0000 0.74020  0.07051  0.27158  Biso   1.000  C
  C6       1.0000 0.45530  0.14625  0.15482  Biso   1.000  C
  C7       1.0000 0.96130  0.09543  0.16444  Biso   1.000  C
  C8       1.0000 0.76850  0.17714  0.27402  Biso   1.000  C
  C9       1.0000 0.51050  0.28764  0.38368  Biso   1.000  C
  C10      1.0000 0.43320  0.31254  0.35849  Biso   1.000  C
  H1       1.0000 0.39070  0.30900  0.32260  Biso   1.000  H
  C11      1.0000 0.41840  0.34283  0.38620  Biso   1.000  C
  C12      1.0000 0.48260  0.34712  0.43977  Biso   1.000  C
  H2       1.0000 0.47410  0.36710  0.45880  Biso   1.000  H
  C13      1.0000 0.55910  0.32244  0.46569  Biso   1.000  C
  C14      1.0000 0.57300  0.29266  0.43752  Biso   1.000  C
  H3       1.0000 0.62420  0.27600  0.45470  Biso   1.000  H
  C15      1.0000 0.33390  0.37021  0.35690  Biso   1.000  C
  C16      1.0000 0.30430  0.39590  0.39770  Biso   1.000  C
  H4       1.0000 0.26520  0.38470  0.42380  Biso   1.000  H
  H5       1.0000 0.37490  0.40620  0.41740  Biso   1.000  H
  H6       1.0000 0.25400  0.41300  0.37790  Biso   1.000  H
  C17      1.0000 0.39680  0.38830  0.31410  Biso   1.000  C
  H7       1.0000 0.34690  0.40570  0.29490  Biso   1.000  H
  H8       1.0000 0.46840  0.39830  0.33340  Biso   1.000  H
  H9       1.0000 0.41360  0.37200  0.28760  Biso   1.000  H
  C18      1.0000 0.22230  0.35500  0.32430  Biso   1.000  C
  H10      1.0000 0.18100  0.34380  0.34940  Biso   1.000  H
  H11      1.0000 0.17420  0.37260  0.30480  Biso   1.000  H
  H12      1.0000 0.24090  0.33880  0.29800  Biso   1.000  H
  C19      1.0000 0.65810  0.43804  0.47152  Biso   1.000  C
  C20      1.0000 0.72760  0.41240  0.45603  Biso   1.000  C
  H13      1.0000 0.76250  0.39680  0.48260  Biso   1.000  H
  C21      1.0000 0.74590  0.40966  0.40170  Biso   1.000  C
  C22      1.0000 0.69310  0.43400  0.36338  Biso   1.000  C
  H14      1.0000 0.70480  0.43300  0.32690  Biso   1.000  H
  C23      1.0000 0.62350  0.45960  0.37834  Biso   1.000  C
  C24      1.0000 0.60360  0.46134  0.43232  Biso   1.000  C
  H15      1.0000 0.55440  0.47790  0.44210  Biso   1.000  H
  C25      1.0000 0.81910  0.38126  0.38317  Biso   1.000  C
  C26      1.0000 0.90970  0.39616  0.35410  Biso   1.000  C
  H16      1.0000 0.87180  0.40930  0.32270  Biso   1.000  H
  H17      1.0000 0.95390  0.37820  0.34160  Biso   1.000  H
  H18      1.0000 0.96130  0.41050  0.37960  Biso   1.000  H
  C27      1.0000 0.73680  0.35753  0.34420  Biso   1.000  C
  H19      1.0000 0.69700  0.37010  0.31250  Biso   1.000  H
  H20      1.0000 0.68050  0.34810  0.36370  Biso   1.000  H
  H21      1.0000 0.78130  0.33960  0.33190  Biso   1.000  H
  C28      1.0000 0.88240  0.36014  0.43300  Biso   1.000  C
  H22      1.0000 0.93510  0.37450  0.45800  Biso   1.000  H
  H23      1.0000 0.92570  0.34220  0.41990  Biso   1.000  H
  H24      1.0000 0.82590  0.35060  0.45240  Biso   1.000  H
  C29      1.0000 0.66890  0.07849  0.21540  Biso   1.000  C
  C30      1.0000 0.67660  0.05923  0.16823  Biso   1.000  C
  H25      1.0000 0.72520  0.04030  0.17190  Biso   1.000  H
  C31      1.0000 0.61270  0.06797  0.11572  Biso   1.000  C
  C32      1.0000 0.53690  0.09551  0.11198  Biso   1.000  C
  H26      1.0000 0.48970  0.10080  0.07780  Biso   1.000  H
  C33      1.0000 0.53020  0.11546  0.15849  Biso   1.000  C
  C34      1.0000 0.59820  0.10718  0.21002  Biso   1.000  C
  H27      1.0000 0.59640  0.12080  0.24090  Biso   1.000  H
  C35      1.0000 0.63440  0.04838  0.06416  Biso   1.000  C
  C36      1.0000 0.61320  0.01051  0.07140  Biso   1.000  C
  H28      1.0000 0.62680  0.99840  0.03920  Biso   1.000  H
  H29      1.0000 0.53390  0.00700  0.07560  Biso   1.000  H
  H30      1.0000 0.66570  0.00230  0.10400  Biso   1.000  H
  C37      1.0000 0.55510  0.06052  0.01110  Biso   1.000  C
  H31      1.0000 0.56830  0.08430  0.00590  Biso   1.000  H
  H32      1.0000 0.47500  0.05700  0.01380  Biso   1.000  H
  H33      1.0000 0.57190  0.04800  0.97990  Biso   1.000  H
  C38      1.0000 0.76160  0.05281  0.05940  Biso   1.000  C
  H34      1.0000 0.77720  0.07640  0.05450  Biso   1.000  H
  H35      1.0000 0.77640  0.04020  0.02800  Biso   1.000  H
  H36      1.0000 0.81140  0.04470  0.09280  Biso   1.000  H
  C39      1.0000 0.89580  0.12792  0.16718  Biso   1.000  C
  C40      1.0000 0.86090  0.14794  0.11992  Biso   1.000  C
  H37      1.0000 0.88490  0.14220  0.08700  Biso   1.000  H
  C41      1.0000 0.79030  0.17648  0.12118  Biso   1.000  C
  C42      1.0000 0.76050  0.18544  0.17181  Biso   1.000  C
  H38      1.0000 0.71380  0.20440  0.17340  Biso   1.000  H
  C43      1.0000 0.79970  0.16645  0.22028  Biso   1.000  C
  C44      1.0000 0.86410  0.13718  0.21741  Biso   1.000  C
  H39      1.0000 0.88630  0.12370  0.24890  Biso   1.000  H
  C45      1.0000 0.74310  0.19689  0.06777  Biso   1.000  C
  C46      1.0000 0.75400  0.23550  0.08310  Biso   1.000  C
  H40      1.0000 0.68730  0.24240  0.09800  Biso   1.000  H
  H41      1.0000 0.75690  0.24850  0.05020  Biso   1.000  H
  H42      1.0000 0.82400  0.23920  0.11040  Biso   1.000  H
  C47      1.0000 0.71100  0.17360  0.02050  Biso   1.000  C
  H43      1.0000 0.64030  0.16180  0.02350  Biso   1.000  H
  H44      1.0000 0.77270  0.15740  0.02080  Biso   1.000  H
  H45      1.0000 0.69870  0.18620  0.98630  Biso   1.000  H
  C48      1.0000 0.60840  0.19020  0.05320  Biso   1.000  C
  H46      1.0000 0.58560  0.17710  0.08230  Biso   1.000  H
  H47      1.0000 0.58950  0.17800  0.01860  Biso   1.000  H
  H48      1.0000 0.56750  0.21150  0.04950  Biso   1.000  H
  C49      1.0000 0.86400  0.21310  0.05320  Biso   1.000  C
  H49      1.0000 0.92860  0.20790  0.08270  Biso   1.000  H
  H50      1.0000 0.85570  0.23730  0.04940  Biso   1.000  H
  H51      1.0000 0.87740  0.20360  0.01890  Biso   1.000  H
  C50      1.0000 0.80000  0.18990  0.02210  Biso   1.000  C
  H52      1.0000 0.75570  0.17310  0.99830  Biso   1.000  H
  H53      1.0000 0.87720  0.18150  0.03600  Biso   1.000  H
  H54      1.0000 0.80400  0.21030  0.00120  Biso   1.000  H
  C51      1.0000 0.66000  0.22210  0.07230  Biso   1.000  C
  H55      1.0000 0.59120  0.21160  0.08070  Biso   1.000  H
  H56      1.0000 0.64030  0.23420  0.03780  Biso   1.000  H
  H57      1.0000 0.69230  0.23750  0.10170  Biso   1.000  H
  Mn4      1.0000 0.19405  0.88032  0.61951  Biso   1.000  Mn
  Mn5      1.0000 0.38221  0.54169  0.36714  Biso   1.000  Mn
  Mn6      1.0000 0.22126  0.69883  0.37166  Biso   1.000  Mn
  O17      1.0000 0.10330  0.73530  0.38061  Biso   1.000  O
  O18      1.0000 0.97280  0.74986  0.30544  Biso   1.000  O
  O19      1.0000 0.19490  0.80458  0.54476  Biso   1.000  O
  O20      1.0000 0.10610  0.85382  0.54961  Biso   1.000  O
  O21      1.0000 0.07300  0.96191  0.54371  Biso   1.000  O
  O22      1.0000 0.20970  0.92376  0.56804  Biso   1.000  O
  O23      1.0000 0.98520  0.00269  0.34502  Biso   1.000  O
  O24      1.0000 0.11200  0.99065  0.29322  Biso   1.000  O
  O25      1.0000 0.22510  0.58861  0.31203  Biso   1.000  O
  O26      1.0000 0.31220  0.54608  0.27750  Biso   1.000  O
  O27      1.0000 0.98910  0.67008  0.18741  Biso   1.000  O
  O28      1.0000 0.86020  0.64776  0.11880  Biso   1.000  O
  O29      1.0000 0.53280  0.59313  0.13117  Biso   1.000  O
  O30      1.0000 0.44030  0.57162  0.19403  Biso   1.000  O
  O31      1.0000 0.19780  0.70151  0.27462  Biso   1.000  O
  O32      1.0000 0.31640  0.66264  0.31899  Biso   1.000  O
  C52      1.0000 0.02920  0.75542  0.35356  Biso   1.000  C
  C53      1.0000 0.12600  0.82756  0.52427  Biso   1.000  C
  C54      1.0000 0.14330  0.94136  0.53116  Biso   1.000  C
  C55      1.0000 0.07040  0.98577  0.33633  Biso   1.000  C
  C56      1.0000 0.24020  0.57051  0.27158  Biso   1.000  C
  C57      1.0000 0.95530  0.64625  0.15482  Biso   1.000  C
  C58      1.0000 0.46130  0.59543  0.16444  Biso   1.000  C
  C59      1.0000 0.26850  0.67714  0.27402  Biso   1.000  C
  C60      1.0000 0.01050  0.78764  0.38368  Biso   1.000  C
  C61      1.0000 0.93320  0.81254  0.35849  Biso   1.000  C
  H58      1.0000 0.89070  0.80900  0.32260  Biso   1.000  H
  C62      1.0000 0.91840  0.84283  0.38620  Biso   1.000  C
  C63      1.0000 0.98260  0.84712  0.43977  Biso   1.000  C
  H59      1.0000 0.97410  0.86710  0.45880  Biso   1.000  H
  C64      1.0000 0.05910  0.82244  0.46569  Biso   1.000  C
  C65      1.0000 0.07300  0.79266  0.43752  Biso   1.000  C
  H60      1.0000 0.12420  0.77600  0.45470  Biso   1.000  H
  C66      1.0000 0.83390  0.87021  0.35690  Biso   1.000  C
  C67      1.0000 0.80430  0.89590  0.39770  Biso   1.000  C
  H61      1.0000 0.76520  0.88470  0.42380  Biso   1.000  H
  H62      1.0000 0.87490  0.90620  0.41740  Biso   1.000  H
  H63      1.0000 0.75400  0.91300  0.37790  Biso   1.000  H
  C68      1.0000 0.89680  0.88830  0.31410  Biso   1.000  C
  H64      1.0000 0.84690  0.90570  0.29490  Biso   1.000  H
  H65      1.0000 0.96840  0.89830  0.33340  Biso   1.000  H
  H66      1.0000 0.91360  0.87200  0.28760  Biso   1.000  H
  C69      1.0000 0.72230  0.85500  0.32430  Biso   1.000  C
  H67      1.0000 0.68100  0.84380  0.34940  Biso   1.000  H
  H68      1.0000 0.67420  0.87260  0.30480  Biso   1.000  H
  H69      1.0000 0.74090  0.83880  0.29800  Biso   1.000  H
  C70      1.0000 0.15810  0.93804  0.47152  Biso   1.000  C
  C71      1.0000 0.22760  0.91240  0.45603  Biso   1.000  C
  H70      1.0000 0.26250  0.89680  0.48260  Biso   1.000  H
  C72      1.0000 0.24590  0.90966  0.40170  Biso   1.000  C
  C73      1.0000 0.19310  0.93400  0.36338  Biso   1.000  C
  H71      1.0000 0.20480  0.93300  0.32690  Biso   1.000  H
  C74      1.0000 0.12350  0.95960  0.37834  Biso   1.000  C
  C75      1.0000 0.10360  0.96134  0.43232  Biso   1.000  C
  H72      1.0000 0.05440  0.97790  0.44210  Biso   1.000  H
  C76      1.0000 0.31910  0.88126  0.38317  Biso   1.000  C
  C77      1.0000 0.40970  0.89616  0.35410  Biso   1.000  C
  H73      1.0000 0.37180  0.90930  0.32270  Biso   1.000  H
  H74      1.0000 0.45390  0.87820  0.34160  Biso   1.000  H
  H75      1.0000 0.46130  0.91050  0.37960  Biso   1.000  H
  C78      1.0000 0.23680  0.85753  0.34420  Biso   1.000  C
  H76      1.0000 0.19700  0.87010  0.31250  Biso   1.000  H
  H77      1.0000 0.18050  0.84810  0.36370  Biso   1.000  H
  H78      1.0000 0.28130  0.83960  0.33190  Biso   1.000  H
  C79      1.0000 0.38240  0.86014  0.43300  Biso   1.000  C
  H79      1.0000 0.43510  0.87450  0.45800  Biso   1.000  H
  H80      1.0000 0.42570  0.84220  0.41990  Biso   1.000  H
  H81      1.0000 0.32590  0.85060  0.45240  Biso   1.000  H
  C80      1.0000 0.16890  0.57849  0.21540  Biso   1.000  C
  C81      1.0000 0.17660  0.55923  0.16823  Biso   1.000  C
  H82      1.0000 0.22520  0.54030  0.17190  Biso   1.000  H
  C82      1.0000 0.11270  0.56797  0.11572  Biso   1.000  C
  C83      1.0000 0.03690  0.59551  0.11198  Biso   1.000  C
  H83      1.0000 0.98970  0.60080  0.07780  Biso   1.000  H
  C84      1.0000 0.03020  0.61546  0.15849  Biso   1.000  C
  C85      1.0000 0.09820  0.60718  0.21002  Biso   1.000  C
  H84      1.0000 0.09640  0.62080  0.24090  Biso   1.000  H
  C86      1.0000 0.13440  0.54838  0.06416  Biso   1.000  C
  C87      1.0000 0.11320  0.51051  0.07140  Biso   1.000  C
  H85      1.0000 0.12680  0.49840  0.03920  Biso   1.000  H
  H86      1.0000 0.03390  0.50700  0.07560  Biso   1.000  H
  H87      1.0000 0.16570  0.50230  0.10400  Biso   1.000  H
  C88      1.0000 0.05510  0.56052  0.01110  Biso   1.000  C
  H88      1.0000 0.06830  0.58430  0.00590  Biso   1.000  H
  H89      1.0000 0.97500  0.55700  0.01380  Biso   1.000  H
  H90      1.0000 0.07190  0.54800  0.97990  Biso   1.000  H
  C89      1.0000 0.26160  0.55281  0.05940  Biso   1.000  C
  H91      1.0000 0.27720  0.57640  0.05450  Biso   1.000  H
  H92      1.0000 0.27640  0.54020  0.02800  Biso   1.000  H
  H93      1.0000 0.31140  0.54470  0.09280  Biso   1.000  H
  C90      1.0000 0.39580  0.62792  0.16718  Biso   1.000  C
  C91      1.0000 0.36090  0.64794  0.11992  Biso   1.000  C
  H94      1.0000 0.38490  0.64220  0.08700  Biso   1.000  H
  C92      1.0000 0.29030  0.67648  0.12118  Biso   1.000  C
  C93      1.0000 0.26050  0.68544  0.17181  Biso   1.000  C
  H95      1.0000 0.21380  0.70440  0.17340  Biso   1.000  H
  C94      1.0000 0.29970  0.66645  0.22028  Biso   1.000  C
  C95      1.0000 0.36410  0.63718  0.21741  Biso   1.000  C
  H96      1.0000 0.38630  0.62370  0.24890  Biso   1.000  H
  C96      1.0000 0.24310  0.69689  0.06777  Biso   1.000  C
  C97      1.0000 0.25400  0.73550  0.08310  Biso   1.000  C
  H97      1.0000 0.18730  0.74240  0.09800  Biso   1.000  H
  H98      1.0000 0.25690  0.74850  0.05020  Biso   1.000  H
  H99      1.0000 0.32400  0.73920  0.11040  Biso   1.000  H
  C98      1.0000 0.21100  0.67360  0.02050  Biso   1.000  C
  H100     1.0000 0.14030  0.66180  0.02350  Biso   1.000  H
  H101     1.0000 0.27270  0.65740  0.02080  Biso   1.000  H
  H102     1.0000 0.19870  0.68620  0.98630  Biso   1.000  H
  C99      1.0000 0.10840  0.69020  0.05320  Biso   1.000  C
  H103     1.0000 0.08560  0.67710  0.08230  Biso   1.000  H
  H104     1.0000 0.08950  0.67800  0.01860  Biso   1.000  H
  H105     1.0000 0.06750  0.71150  0.04950  Biso   1.000  H
  C100     1.0000 0.36400  0.71310  0.05320  Biso   1.000  C
  H106     1.0000 0.42860  0.70790  0.08270  Biso   1.000  H
  H107     1.0000 0.35570  0.73730  0.04940  Biso   1.000  H
  H108     1.0000 0.37740  0.70360  0.01890  Biso   1.000  H
  C101     1.0000 0.30000  0.68990  0.02210  Biso   1.000  C
  H109     1.0000 0.25570  0.67310  0.99830  Biso   1.000  H
  H110     1.0000 0.37720  0.68150  0.03600  Biso   1.000  H
  H111     1.0000 0.30400  0.71030  0.00120  Biso   1.000  H
  C102     1.0000 0.16000  0.72210  0.07230  Biso   1.000  C
  H112     1.0000 0.09120  0.71160  0.08070  Biso   1.000  H
  H113     1.0000 0.14030  0.73420  0.03780  Biso   1.000  H
  H114     1.0000 0.19230  0.73750  0.10170  Biso   1.000  H
  Mn7      1.0000 0.30595  0.38032  0.88049  Biso   1.000  Mn
  Mn8      1.0000 0.11779  0.04169  0.13286  Biso   1.000  Mn
  Mn9      1.0000 0.27874  0.19883  0.12834  Biso   1.000  Mn
  O33      1.0000 0.39670  0.23530  0.11939  Biso   1.000  O
  O34      1.0000 0.52720  0.24986  0.19456  Biso   1.000  O
  O35      1.0000 0.30510  0.30458  0.95524  Biso   1.000  O
  O36      1.0000 0.39390  0.35382  0.95039  Biso   1.000  O
  O37      1.0000 0.42700  0.46191  0.95629  Biso   1.000  O
  O38      1.0000 0.29030  0.42376  0.93196  Biso   1.000  O
  O39      1.0000 0.51480  0.50269  0.15498  Biso   1.000  O
  O40      1.0000 0.38800  0.49065  0.20678  Biso   1.000  O
  O41      1.0000 0.27490  0.08861  0.18797  Biso   1.000  O
  O42      1.0000 0.18780  0.04608  0.22250  Biso   1.000  O
  O43      1.0000 0.51090  0.17008  0.31259  Biso   1.000  O
  O44      1.0000 0.63980  0.14776  0.38120  Biso   1.000  O
  O45      1.0000 0.96720  0.09313  0.36883  Biso   1.000  O
  O46      1.0000 0.05970  0.07162  0.30597  Biso   1.000  O
  O47      1.0000 0.30220  0.20151  0.22538  Biso   1.000  O
  O48      1.0000 0.18360  0.16264  0.18101  Biso   1.000  O
  C103     1.0000 0.47080  0.25542  0.14644  Biso   1.000  C
  C104     1.0000 0.37400  0.32756  0.97573  Biso   1.000  C
  C105     1.0000 0.35670  0.44136  0.96884  Biso   1.000  C
  C106     1.0000 0.42960  0.48577  0.16367  Biso   1.000  C
  C107     1.0000 0.25980  0.07051  0.22842  Biso   1.000  C
  C108     1.0000 0.54470  0.14625  0.34518  Biso   1.000  C
  C109     1.0000 0.03870  0.09543  0.33556  Biso   1.000  C
  C110     1.0000 0.23150  0.17714  0.22598  Biso   1.000  C
  C111     1.0000 0.48950  0.28764  0.11632  Biso   1.000  C
  C112     1.0000 0.56680  0.31254  0.14151  Biso   1.000  C
  H115     1.0000 0.60930  0.30900  0.17740  Biso   1.000  H
  C113     1.0000 0.58160  0.34283  0.11380  Biso   1.000  C
  C114     1.0000 0.51740  0.34712  0.06023  Biso   1.000  C
  H116     1.0000 0.52590  0.36710  0.04120  Biso   1.000  H
  C115     1.0000 0.44090  0.32244  0.03431  Biso   1.000  C
  C116     1.0000 0.42700  0.29266  0.06248  Biso   1.000  C
  H117     1.0000 0.37580  0.27600  0.04530  Biso   1.000  H
  C117     1.0000 0.66610  0.37021  0.14310  Biso   1.000  C
  C118     1.0000 0.69570  0.39590  0.10230  Biso   1.000  C
  H118     1.0000 0.73480  0.38470  0.07620  Biso   1.000  H
  H119     1.0000 0.62510  0.40620  0.08260  Biso   1.000  H
  H120     1.0000 0.74600  0.41300  0.12210  Biso   1.000  H
  C119     1.0000 0.60320  0.38830  0.18590  Biso   1.000  C
  H121     1.0000 0.65310  0.40570  0.20510  Biso   1.000  H
  H122     1.0000 0.53160  0.39830  0.16660  Biso   1.000  H
  H123     1.0000 0.58640  0.37200  0.21240  Biso   1.000  H
  C120     1.0000 0.77770  0.35500  0.17570  Biso   1.000  C
  H124     1.0000 0.81900  0.34380  0.15060  Biso   1.000  H
  H125     1.0000 0.82580  0.37260  0.19520  Biso   1.000  H
  H126     1.0000 0.75910  0.33880  0.20200  Biso   1.000  H
  C121     1.0000 0.34190  0.43804  0.02848  Biso   1.000  C
  C122     1.0000 0.27240  0.41240  0.04397  Biso   1.000  C
  H127     1.0000 0.23750  0.39680  0.01740  Biso   1.000  H
  C123     1.0000 0.25410  0.40966  0.09830  Biso   1.000  C
  C124     1.0000 0.30690  0.43400  0.13662  Biso   1.000  C
  H128     1.0000 0.29520  0.43300  0.17310  Biso   1.000  H
  C125     1.0000 0.37650  0.45960  0.12166  Biso   1.000  C
  C126     1.0000 0.39640  0.46134  0.06768  Biso   1.000  C
  H129     1.0000 0.44560  0.47790  0.05790  Biso   1.000  H
  C127     1.0000 0.18090  0.38126  0.11683  Biso   1.000  C
  C128     1.0000 0.09030  0.39616  0.14590  Biso   1.000  C
  H130     1.0000 0.12820  0.40930  0.17730  Biso   1.000  H
  H131     1.0000 0.04610  0.37820  0.15840  Biso   1.000  H
  H132     1.0000 0.03870  0.41050  0.12040  Biso   1.000  H
  C129     1.0000 0.26320  0.35753  0.15580  Biso   1.000  C
  H133     1.0000 0.30300  0.37010  0.18750  Biso   1.000  H
  H134     1.0000 0.31950  0.34810  0.13630  Biso   1.000  H
  H135     1.0000 0.21870  0.33960  0.16810  Biso   1.000  H
  C130     1.0000 0.11760  0.36014  0.06700  Biso   1.000  C
  H136     1.0000 0.06490  0.37450  0.04200  Biso   1.000  H
  H137     1.0000 0.07430  0.34220  0.08010  Biso   1.000  H
  H138     1.0000 0.17410  0.35060  0.04760  Biso   1.000  H
  C131     1.0000 0.33110  0.07849  0.28460  Biso   1.000  C
  C132     1.0000 0.32340  0.05923  0.33177  Biso   1.000  C
  H139     1.0000 0.27480  0.04030  0.32810  Biso   1.000  H
  C133     1.0000 0.38730  0.06797  0.38428  Biso   1.000  C
  C134     1.0000 0.46310  0.09551  0.38802  Biso   1.000  C
  H140     1.0000 0.51030  0.10080  0.42220  Biso   1.000  H
  C135     1.0000 0.46980  0.11546  0.34151  Biso   1.000  C
  C136     1.0000 0.40180  0.10718  0.28998  Biso   1.000  C
  H141     1.0000 0.40360  0.12080  0.25910  Biso   1.000  H
  C137     1.0000 0.36560  0.04838  0.43584  Biso   1.000  C
  C138     1.0000 0.38680  0.01051  0.42860  Biso   1.000  C
  H142     1.0000 0.37320  0.99840  0.46080  Biso   1.000  H
  H143     1.0000 0.46610  0.00700  0.42440  Biso   1.000  H
  H144     1.0000 0.33430  0.00230  0.39600  Biso   1.000  H
  C139     1.0000 0.44490  0.06052  0.48890  Biso   1.000  C
  H145     1.0000 0.43170  0.08430  0.49410  Biso   1.000  H
  H146     1.0000 0.52500  0.05700  0.48620  Biso   1.000  H
  H147     1.0000 0.42810  0.04800  0.52010  Biso   1.000  H
  C140     1.0000 0.23840  0.05281  0.44060  Biso   1.000  C
  H148     1.0000 0.22280  0.07640  0.44550  Biso   1.000  H
  H149     1.0000 0.22360  0.04020  0.47200  Biso   1.000  H
  H150     1.0000 0.18860  0.04470  0.40720  Biso   1.000  H
  C141     1.0000 0.10420  0.12792  0.33282  Biso   1.000  C
  C142     1.0000 0.13910  0.14794  0.38008  Biso   1.000  C
  H151     1.0000 0.11510  0.14220  0.41300  Biso   1.000  H
  C143     1.0000 0.20970  0.17648  0.37882  Biso   1.000  C
  C144     1.0000 0.23950  0.18544  0.32819  Biso   1.000  C
  H152     1.0000 0.28620  0.20440  0.32660  Biso   1.000  H
  C145     1.0000 0.20030  0.16645  0.27972  Biso   1.000  C
  C146     1.0000 0.13590  0.13718  0.28259  Biso   1.000  C
  H153     1.0000 0.11370  0.12370  0.25110  Biso   1.000  H
  C147     1.0000 0.25690  0.19689  0.43223  Biso   1.000  C
  C148     1.0000 0.24600  0.23550  0.41690  Biso   1.000  C
  H154     1.0000 0.31270  0.24240  0.40200  Biso   1.000  H
  H155     1.0000 0.24310  0.24850  0.44980  Biso   1.000  H
  H156     1.0000 0.17600  0.23920  0.38960  Biso   1.000  H
  C149     1.0000 0.28900  0.17360  0.47950  Biso   1.000  C
  H157     1.0000 0.35970  0.16180  0.47650  Biso   1.000  H
  H158     1.0000 0.22730  0.15740  0.47920  Biso   1.000  H
  H159     1.0000 0.30130  0.18620  0.51370  Biso   1.000  H
  C150     1.0000 0.39160  0.19020  0.44680  Biso   1.000  C
  H160     1.0000 0.41440  0.17710  0.41770  Biso   1.000  H
  H161     1.0000 0.41050  0.17800  0.48140  Biso   1.000  H
  H162     1.0000 0.43250  0.21150  0.45050  Biso   1.000  H
  C151     1.0000 0.13600  0.21310  0.44680  Biso   1.000  C
  H163     1.0000 0.07140  0.20790  0.41730  Biso   1.000  H
  H164     1.0000 0.14430  0.23730  0.45060  Biso   1.000  H
  H165     1.0000 0.12260  0.20360  0.48110  Biso   1.000  H
  C152     1.0000 0.20000  0.18990  0.47790  Biso   1.000  C
  H166     1.0000 0.24430  0.17310  0.50170  Biso   1.000  H
  H167     1.0000 0.12280  0.18150  0.46400  Biso   1.000  H
  H168     1.0000 0.19600  0.21030  0.49880  Biso   1.000  H
  C153     1.0000 0.34000  0.22210  0.42770  Biso   1.000  C
  H169     1.0000 0.40880  0.21160  0.41930  Biso   1.000  H
  H170     1.0000 0.35970  0.23420  0.46220  Biso   1.000  H
  H171     1.0000 0.30770  0.23750  0.39830  Biso   1.000  H
  Mn10     1.0000 0.80595  0.88032  0.88049  Biso   1.000  Mn
  Mn11     1.0000 0.61779  0.54169  0.13286  Biso   1.000  Mn
  Mn12     1.0000 0.77874  0.69883  0.12834  Biso   1.000  Mn
  O49      1.0000 0.89670  0.73530  0.11939  Biso   1.000  O
  O50      1.0000 0.02720  0.74986  0.19456  Biso   1.000  O
  O51      1.0000 0.80510  0.80458  0.95524  Biso   1.000  O
  O52      1.0000 0.89390  0.85382  0.95039  Biso   1.000  O
  O53      1.0000 0.92700  0.96191  0.95629  Biso   1.000  O
  O54      1.0000 0.79030  0.92376  0.93196  Biso   1.000  O
  O55      1.0000 0.01480  0.00269  0.15498  Biso   1.000  O
  O56      1.0000 0.88800  0.99065  0.20678  Biso   1.000  O
  O57      1.0000 0.77490  0.58861  0.18797  Biso   1.000  O
  O58      1.0000 0.68780  0.54608  0.22250  Biso   1.000  O
  O59      1.0000 0.01090  0.67008  0.31259  Biso   1.000  O
  O60      1.0000 0.13980  0.64776  0.38120  Biso   1.000  O
  O61      1.0000 0.46720  0.59313  0.36883  Biso   1.000  O
  O62      1.0000 0.55970  0.57162  0.30597  Biso   1.000  O
  O63      1.0000 0.80220  0.70151  0.22538  Biso   1.000  O
  O64      1.0000 0.68360  0.66264  0.18101  Biso   1.000  O
  C154     1.0000 0.97080  0.75542  0.14644  Biso   1.000  C
  C155     1.0000 0.87400  0.82756  0.97573  Biso   1.000  C
  C156     1.0000 0.85670  0.94136  0.96884  Biso   1.000  C
  C157     1.0000 0.92960  0.98577  0.16367  Biso   1.000  C
  C158     1.0000 0.75980  0.57051  0.22842  Biso   1.000  C
  C159     1.0000 0.04470  0.64625  0.34518  Biso   1.000  C
  C160     1.0000 0.53870  0.59543  0.33556  Biso   1.000  C
  C161     1.0000 0.73150  0.67714  0.22598  Biso   1.000  C
  C162     1.0000 0.98950  0.78764  0.11632  Biso   1.000  C
  C163     1.0000 0.06680  0.81254  0.14151  Biso   1.000  C
  H172     1.0000 0.10930  0.80900  0.17740  Biso   1.000  H
  C164     1.0000 0.08160  0.84283  0.11380  Biso   1.000  C
  C165     1.0000 0.01740  0.84712  0.06023  Biso   1.000  C
  H173     1.0000 0.02590  0.86710  0.04120  Biso   1.000  H
  C166     1.0000 0.94090  0.82244  0.03431  Biso   1.000  C
  C167     1.0000 0.92700  0.79266  0.06248  Biso   1.000  C
  H174     1.0000 0.87580  0.77600  0.04530  Biso   1.000  H
  C168     1.0000 0.16610  0.87021  0.14310  Biso   1.000  C
  C169     1.0000 0.19570  0.89590  0.10230  Biso   1.000  C
  H175     1.0000 0.23480  0.88470  0.07620  Biso   1.000  H
  H176     1.0000 0.12510  0.90620  0.08260  Biso   1.000  H
  H177     1.0000 0.24600  0.91300  0.12210  Biso   1.000  H
  C170     1.0000 0.10320  0.88830  0.18590  Biso   1.000  C
  H178     1.0000 0.15310  0.90570  0.20510  Biso   1.000  H
  H179     1.0000 0.03160  0.89830  0.16660  Biso   1.000  H
  H180     1.0000 0.08640  0.87200  0.21240  Biso   1.000  H
  C171     1.0000 0.27770  0.85500  0.17570  Biso   1.000  C
  H181     1.0000 0.31900  0.84380  0.15060  Biso   1.000  H
  H182     1.0000 0.32580  0.87260  0.19520  Biso   1.000  H
  H183     1.0000 0.25910  0.83880  0.20200  Biso   1.000  H
  C172     1.0000 0.84190  0.93804  0.02848  Biso   1.000  C
  C173     1.0000 0.77240  0.91240  0.04397  Biso   1.000  C
  H184     1.0000 0.73750  0.89680  0.01740  Biso   1.000  H
  C174     1.0000 0.75410  0.90966  0.09830  Biso   1.000  C
  C175     1.0000 0.80690  0.93400  0.13662  Biso   1.000  C
  H185     1.0000 0.79520  0.93300  0.17310  Biso   1.000  H
  C176     1.0000 0.87650  0.95960  0.12166  Biso   1.000  C
  C177     1.0000 0.89640  0.96134  0.06768  Biso   1.000  C
  H186     1.0000 0.94560  0.97790  0.05790  Biso   1.000  H
  C178     1.0000 0.68090  0.88126  0.11683  Biso   1.000  C
  C179     1.0000 0.59030  0.89616  0.14590  Biso   1.000  C
  H187     1.0000 0.62820  0.90930  0.17730  Biso   1.000  H
  H188     1.0000 0.54610  0.87820  0.15840  Biso   1.000  H
  H189     1.0000 0.53870  0.91050  0.12040  Biso   1.000  H
  C180     1.0000 0.76320  0.85753  0.15580  Biso   1.000  C
  H190     1.0000 0.80300  0.87010  0.18750  Biso   1.000  H
  H191     1.0000 0.81950  0.84810  0.13630  Biso   1.000  H
  H192     1.0000 0.71870  0.83960  0.16810  Biso   1.000  H
  C181     1.0000 0.61760  0.86014  0.06700  Biso   1.000  C
  H193     1.0000 0.56490  0.87450  0.04200  Biso   1.000  H
  H194     1.0000 0.57430  0.84220  0.08010  Biso   1.000  H
  H195     1.0000 0.67410  0.85060  0.04760  Biso   1.000  H
  C182     1.0000 0.83110  0.57849  0.28460  Biso   1.000  C
  C183     1.0000 0.82340  0.55923  0.33177  Biso   1.000  C
  H196     1.0000 0.77480  0.54030  0.32810  Biso   1.000  H
  C184     1.0000 0.88730  0.56797  0.38428  Biso   1.000  C
  C185     1.0000 0.96310  0.59551  0.38802  Biso   1.000  C
  H197     1.0000 0.01030  0.60080  0.42220  Biso   1.000  H
  C186     1.0000 0.96980  0.61546  0.34151  Biso   1.000  C
  C187     1.0000 0.90180  0.60718  0.28998  Biso   1.000  C
  H198     1.0000 0.90360  0.62080  0.25910  Biso   1.000  H
  C188     1.0000 0.86560  0.54838  0.43584  Biso   1.000  C
  C189     1.0000 0.88680  0.51051  0.42860  Biso   1.000  C
  H199     1.0000 0.87320  0.49840  0.46080  Biso   1.000  H
  H200     1.0000 0.96610  0.50700  0.42440  Biso   1.000  H
  H201     1.0000 0.83430  0.50230  0.39600  Biso   1.000  H
  C190     1.0000 0.94490  0.56052  0.48890  Biso   1.000  C
  H202     1.0000 0.93170  0.58430  0.49410  Biso   1.000  H
  H203     1.0000 0.02500  0.55700  0.48620  Biso   1.000  H
  H204     1.0000 0.92810  0.54800  0.52010  Biso   1.000  H
  C191     1.0000 0.73840  0.55281  0.44060  Biso   1.000  C
  H205     1.0000 0.72280  0.57640  0.44550  Biso   1.000  H
  H206     1.0000 0.72360  0.54020  0.47200  Biso   1.000  H
  H207     1.0000 0.68860  0.54470  0.40720  Biso   1.000  H
  C192     1.0000 0.60420  0.62792  0.33282  Biso   1.000  C
  C193     1.0000 0.63910  0.64794  0.38008  Biso   1.000  C
  H208     1.0000 0.61510  0.64220  0.41300  Biso   1.000  H
  C194     1.0000 0.70970  0.67648  0.37882  Biso   1.000  C
  C195     1.0000 0.73950  0.68544  0.32819  Biso   1.000  C
  H209     1.0000 0.78620  0.70440  0.32660  Biso   1.000  H
  C196     1.0000 0.70030  0.66645  0.27972  Biso   1.000  C
  C197     1.0000 0.63590  0.63718  0.28259  Biso   1.000  C
  H210     1.0000 0.61370  0.62370  0.25110  Biso   1.000  H
  C198     1.0000 0.75690  0.69689  0.43223  Biso   1.000  C
  C199     1.0000 0.74600  0.73550  0.41690  Biso   1.000  C
  H211     1.0000 0.81270  0.74240  0.40200  Biso   1.000  H
  H212     1.0000 0.74310  0.74850  0.44980  Biso   1.000  H
  H213     1.0000 0.67600  0.73920  0.38960  Biso   1.000  H
  C200     1.0000 0.78900  0.67360  0.47950  Biso   1.000  C
  H214     1.0000 0.85970  0.66180  0.47650  Biso   1.000  H
  H215     1.0000 0.72730  0.65740  0.47920  Biso   1.000  H
  H216     1.0000 0.80130  0.68620  0.51370  Biso   1.000  H
  C201     1.0000 0.89160  0.69020  0.44680  Biso   1.000  C
  H217     1.0000 0.91440  0.67710  0.41770  Biso   1.000  H
  H218     1.0000 0.91050  0.67800  0.48140  Biso   1.000  H
  H219     1.0000 0.93250  0.71150  0.45050  Biso   1.000  H
  C202     1.0000 0.63600  0.71310  0.44680  Biso   1.000  C
  H220     1.0000 0.57140  0.70790  0.41730  Biso   1.000  H
  H221     1.0000 0.64430  0.73730  0.45060  Biso   1.000  H
  H222     1.0000 0.62260  0.70360  0.48110  Biso   1.000  H
  C203     1.0000 0.70000  0.68990  0.47790  Biso   1.000  C
  H223     1.0000 0.74430  0.67310  0.50170  Biso   1.000  H
  H224     1.0000 0.62280  0.68150  0.46400  Biso   1.000  H
  H225     1.0000 0.69600  0.71030  0.49880  Biso   1.000  H
  C204     1.0000 0.84000  0.72210  0.42770  Biso   1.000  C
  H226     1.0000 0.90880  0.71160  0.41930  Biso   1.000  H
  H227     1.0000 0.85970  0.73420  0.46220  Biso   1.000  H
  H228     1.0000 0.80770  0.73750  0.39830  Biso   1.000  H
  Mn13     1.0000 0.30595  0.61968  0.38049  Biso   1.000  Mn
  Mn14     1.0000 0.11779  0.95831  0.63286  Biso   1.000  Mn
  Mn15     1.0000 0.27874  0.80117  0.62834  Biso   1.000  Mn
  O65      1.0000 0.39670  0.76470  0.61939  Biso   1.000  O
  O66      1.0000 0.52720  0.75014  0.69456  Biso   1.000  O
  O67      1.0000 0.30510  0.69542  0.45524  Biso   1.000  O
  O68      1.0000 0.39390  0.64618  0.45039  Biso   1.000  O
  O69      1.0000 0.42700  0.53809  0.45629  Biso   1.000  O
  O70      1.0000 0.29030  0.57624  0.43196  Biso   1.000  O
  O71      1.0000 0.51480  0.49731  0.65498  Biso   1.000  O
  O72      1.0000 0.38800  0.50935  0.70678  Biso   1.000  O
  O73      1.0000 0.27490  0.91139  0.68797  Biso   1.000  O
  O74      1.0000 0.18780  0.95392  0.72250  Biso   1.000  O
  O75      1.0000 0.51090  0.82992  0.81259  Biso   1.000  O
  O76      1.0000 0.63980  0.85224  0.88120  Biso   1.000  O
  O77      1.0000 0.96720  0.90687  0.86883  Biso   1.000  O
  O78      1.0000 0.05970  0.92838  0.80597  Biso   1.000  O
  O79      1.0000 0.30220  0.79849  0.72538  Biso   1.000  O
  O80      1.0000 0.18360  0.83736  0.68101  Biso   1.000  O
  C205     1.0000 0.47080  0.74458  0.64644  Biso   1.000  C
  C206     1.0000 0.37400  0.67244  0.47573  Biso   1.000  C
  C207     1.0000 0.35670  0.55864  0.46884  Biso   1.000  C
  C208     1.0000 0.42960  0.51423  0.66367  Biso   1.000  C
  C209     1.0000 0.25980  0.92949  0.72842  Biso   1.000  C
  C210     1.0000 0.54470  0.85375  0.84518  Biso   1.000  C
  C211     1.0000 0.03870  0.90457  0.83556  Biso   1.000  C
  C212     1.0000 0.23150  0.82286  0.72598  Biso   1.000  C
  C213     1.0000 0.48950  0.71236  0.61632  Biso   1.000  C
  C214     1.0000 0.56680  0.68746  0.64151  Biso   1.000  C
  H229     1.0000 0.60930  0.69100  0.67740  Biso   1.000  H
  C215     1.0000 0.58160  0.65717  0.61380  Biso   1.000  C
  C216     1.0000 0.51740  0.65288  0.56023  Biso   1.000  C
  H230     1.0000 0.52590  0.63290  0.54120  Biso   1.000  H
  C217     1.0000 0.44090  0.67756  0.53431  Biso   1.000  C
  C218     1.0000 0.42700  0.70734  0.56248  Biso   1.000  C
  H231     1.0000 0.37580  0.72400  0.54530  Biso   1.000  H
  C219     1.0000 0.66610  0.62979  0.64310  Biso   1.000  C
  C220     1.0000 0.69570  0.60410  0.60230  Biso   1.000  C
  H232     1.0000 0.73480  0.61530  0.57620  Biso   1.000  H
  H233     1.0000 0.62510  0.59380  0.58260  Biso   1.000  H
  H234     1.0000 0.74600  0.58700  0.62210  Biso   1.000  H
  C221     1.0000 0.60320  0.61170  0.68590  Biso   1.000  C
  H235     1.0000 0.65310  0.59430  0.70510  Biso   1.000  H
  H236     1.0000 0.53160  0.60170  0.66660  Biso   1.000  H
  H237     1.0000 0.58640  0.62800  0.71240  Biso   1.000  H
  C222     1.0000 0.77770  0.64500  0.67570  Biso   1.000  C
  H238     1.0000 0.81900  0.65620  0.65060  Biso   1.000  H
  H239     1.0000 0.82580  0.62740  0.69520  Biso   1.000  H
  H240     1.0000 0.75910  0.66120  0.70200  Biso   1.000  H
  C223     1.0000 0.34190  0.56196  0.52848  Biso   1.000  C
  C224     1.0000 0.27240  0.58760  0.54397  Biso   1.000  C
  H241     1.0000 0.23750  0.60320  0.51740  Biso   1.000  H
  C225     1.0000 0.25410  0.59034  0.59830  Biso   1.000  C
  C226     1.0000 0.30690  0.56600  0.63662  Biso   1.000  C
  H242     1.0000 0.29520  0.56700  0.67310  Biso   1.000  H
  C227     1.0000 0.37650  0.54040  0.62166  Biso   1.000  C
  C228     1.0000 0.39640  0.53866  0.56768  Biso   1.000  C
  H243     1.0000 0.44560  0.52210  0.55790  Biso   1.000  H
  C229     1.0000 0.18090  0.61874  0.61683  Biso   1.000  C
  C230     1.0000 0.09030  0.60384  0.64590  Biso   1.000  C
  H244     1.0000 0.12820  0.59070  0.67730  Biso   1.000  H
  H245     1.0000 0.04610  0.62180  0.65840  Biso   1.000  H
  H246     1.0000 0.03870  0.58950  0.62040  Biso   1.000  H
  C231     1.0000 0.26320  0.64247  0.65580  Biso   1.000  C
  H247     1.0000 0.30300  0.62990  0.68750  Biso   1.000  H
  H248     1.0000 0.31950  0.65190  0.63630  Biso   1.000  H
  H249     1.0000 0.21870  0.66040  0.66810  Biso   1.000  H
  C232     1.0000 0.11760  0.63986  0.56700  Biso   1.000  C
  H250     1.0000 0.06490  0.62550  0.54200  Biso   1.000  H
  H251     1.0000 0.07430  0.65780  0.58010  Biso   1.000  H
  H252     1.0000 0.17410  0.64940  0.54760  Biso   1.000  H
  C233     1.0000 0.33110  0.92151  0.78460  Biso   1.000  C
  C234     1.0000 0.32340  0.94077  0.83177  Biso   1.000  C
  H253     1.0000 0.27480  0.95970  0.82810  Biso   1.000  H
  C235     1.0000 0.38730  0.93203  0.88428  Biso   1.000  C
  C236     1.0000 0.46310  0.90449  0.88802  Biso   1.000  C
  H254     1.0000 0.51030  0.89920  0.92220  Biso   1.000  H
  C237     1.0000 0.46980  0.88454  0.84151  Biso   1.000  C
  C238     1.0000 0.40180  0.89282  0.78998  Biso   1.000  C
  H255     1.0000 0.40360  0.87920  0.75910  Biso   1.000  H
  C239     1.0000 0.36560  0.95162  0.93584  Biso   1.000  C
  C240     1.0000 0.38680  0.98949  0.92860  Biso   1.000  C
  H256     1.0000 0.37320  0.00160  0.96080  Biso   1.000  H
  H257     1.0000 0.46610  0.99300  0.92440  Biso   1.000  H
  H258     1.0000 0.33430  0.99770  0.89600  Biso   1.000  H
  C241     1.0000 0.44490  0.93948  0.98890  Biso   1.000  C
  H259     1.0000 0.43170  0.91570  0.99410  Biso   1.000  H
  H260     1.0000 0.52500  0.94300  0.98620  Biso   1.000  H
  H261     1.0000 0.42810  0.95200  0.02010  Biso   1.000  H
  C242     1.0000 0.23840  0.94719  0.94060  Biso   1.000  C
  H262     1.0000 0.22280  0.92360  0.94550  Biso   1.000  H
  H263     1.0000 0.22360  0.95980  0.97200  Biso   1.000  H
  H264     1.0000 0.18860  0.95530  0.90720  Biso   1.000  H
  C243     1.0000 0.10420  0.87208  0.83282  Biso   1.000  C
  C244     1.0000 0.13910  0.85206  0.88008  Biso   1.000  C
  H265     1.0000 0.11510  0.85780  0.91300  Biso   1.000  H
  C245     1.0000 0.20970  0.82352  0.87882  Biso   1.000  C
  C246     1.0000 0.23950  0.81456  0.82819  Biso   1.000  C
  H266     1.0000 0.28620  0.79560  0.82660  Biso   1.000  H
  C247     1.0000 0.20030  0.83355  0.77972  Biso   1.000  C
  C248     1.0000 0.13590  0.86282  0.78259  Biso   1.000  C
  H267     1.0000 0.11370  0.87630  0.75110  Biso   1.000  H
  C249     1.0000 0.25690  0.80311  0.93223  Biso   1.000  C
  C250     1.0000 0.24600  0.76450  0.91690  Biso   1.000  C
  H268     1.0000 0.31270  0.75760  0.90200  Biso   1.000  H
  H269     1.0000 0.24310  0.75150  0.94980  Biso   1.000  H
  H270     1.0000 0.17600  0.76080  0.88960  Biso   1.000  H
  C251     1.0000 0.28900  0.82640  0.97950  Biso   1.000  C
  H271     1.0000 0.35970  0.83820  0.97650  Biso   1.000  H
  H272     1.0000 0.22730  0.84260  0.97920  Biso   1.000  H
  H273     1.0000 0.30130  0.81380  0.01370  Biso   1.000  H
  C252     1.0000 0.39160  0.80980  0.94680  Biso   1.000  C
  H274     1.0000 0.41440  0.82290  0.91770  Biso   1.000  H
  H275     1.0000 0.41050  0.82200  0.98140  Biso   1.000  H
  H276     1.0000 0.43250  0.78850  0.95050  Biso   1.000  H
  C253     1.0000 0.13600  0.78690  0.94680  Biso   1.000  C
  H277     1.0000 0.07140  0.79210  0.91730  Biso   1.000  H
  H278     1.0000 0.14430  0.76270  0.95060  Biso   1.000  H
  H279     1.0000 0.12260  0.79640  0.98110  Biso   1.000  H
  C254     1.0000 0.20000  0.81010  0.97790  Biso   1.000  C
  H280     1.0000 0.24430  0.82690  0.00170  Biso   1.000  H
  H281     1.0000 0.12280  0.81850  0.96400  Biso   1.000  H
  H282     1.0000 0.19600  0.78970  0.99880  Biso   1.000  H
  C255     1.0000 0.34000  0.77790  0.92770  Biso   1.000  C
  H283     1.0000 0.40880  0.78840  0.91930  Biso   1.000  H
  H284     1.0000 0.35970  0.76580  0.96220  Biso   1.000  H
  H285     1.0000 0.30770  0.76250  0.89830  Biso   1.000  H
  Mn16     1.0000 0.80595  0.11968  0.38049  Biso   1.000  Mn
  Mn17     1.0000 0.61779  0.45831  0.63286  Biso   1.000  Mn
  Mn18     1.0000 0.77874  0.30117  0.62834  Biso   1.000  Mn
  O81      1.0000 0.89670  0.26470  0.61939  Biso   1.000  O
  O82      1.0000 0.02720  0.25014  0.69456  Biso   1.000  O
  O83      1.0000 0.80510  0.19542  0.45524  Biso   1.000  O
  O84      1.0000 0.89390  0.14618  0.45039  Biso   1.000  O
  O85      1.0000 0.92700  0.03809  0.45629  Biso   1.000  O
  O86      1.0000 0.79030  0.07624  0.43196  Biso   1.000  O
  O87      1.0000 0.01480  0.99731  0.65498  Biso   1.000  O
  O88      1.0000 0.88800  0.00935  0.70678  Biso   1.000  O
  O89      1.0000 0.77490  0.41139  0.68797  Biso   1.000  O
  O90      1.0000 0.68780  0.45392  0.72250  Biso   1.000  O
  O91      1.0000 0.01090  0.32992  0.81259  Biso   1.000  O
  O92      1.0000 0.13980  0.35224  0.88120  Biso   1.000  O
  O93      1.0000 0.46720  0.40687  0.86883  Biso   1.000  O
  O94      1.0000 0.55970  0.42838  0.80597  Biso   1.000  O
  O95      1.0000 0.80220  0.29849  0.72538  Biso   1.000  O
  O96      1.0000 0.68360  0.33736  0.68101  Biso   1.000  O
  C256     1.0000 0.97080  0.24458  0.64644  Biso   1.000  C
  C257     1.0000 0.87400  0.17244  0.47573  Biso   1.000  C
  C258     1.0000 0.85670  0.05864  0.46884  Biso   1.000  C
  C259     1.0000 0.92960  0.01423  0.66367  Biso   1.000  C
  C260     1.0000 0.75980  0.42949  0.72842  Biso   1.000  C
  C261     1.0000 0.04470  0.35375  0.84518  Biso   1.000  C
  C262     1.0000 0.53870  0.40457  0.83556  Biso   1.000  C
  C263     1.0000 0.73150  0.32286  0.72598  Biso   1.000  C
  C264     1.0000 0.98950  0.21236  0.61632  Biso   1.000  C
  C265     1.0000 0.06680  0.18746  0.64151  Biso   1.000  C
  H286     1.0000 0.10930  0.19100  0.67740  Biso   1.000  H
  C266     1.0000 0.08160  0.15717  0.61380  Biso   1.000  C
  C267     1.0000 0.01740  0.15288  0.56023  Biso   1.000  C
  H287     1.0000 0.02590  0.13290  0.54120  Biso   1.000  H
  C268     1.0000 0.94090  0.17756  0.53431  Biso   1.000  C
  C269     1.0000 0.92700  0.20734  0.56248  Biso   1.000  C
  H288     1.0000 0.87580  0.22400  0.54530  Biso   1.000  H
  C270     1.0000 0.16610  0.12979  0.64310  Biso   1.000  C
  C271     1.0000 0.19570  0.10410  0.60230  Biso   1.000  C
  H289     1.0000 0.23480  0.11530  0.57620  Biso   1.000  H
  H290     1.0000 0.12510  0.09380  0.58260  Biso   1.000  H
  H291     1.0000 0.24600  0.08700  0.62210  Biso   1.000  H
  C272     1.0000 0.10320  0.11170  0.68590  Biso   1.000  C
  H292     1.0000 0.15310  0.09430  0.70510  Biso   1.000  H
  H293     1.0000 0.03160  0.10170  0.66660  Biso   1.000  H
  H294     1.0000 0.08640  0.12800  0.71240  Biso   1.000  H
  C273     1.0000 0.27770  0.14500  0.67570  Biso   1.000  C
  H295     1.0000 0.31900  0.15620  0.65060  Biso   1.000  H
  H296     1.0000 0.32580  0.12740  0.69520  Biso   1.000  H
  H297     1.0000 0.25910  0.16120  0.70200  Biso   1.000  H
  C274     1.0000 0.84190  0.06196  0.52848  Biso   1.000  C
  C275     1.0000 0.77240  0.08760  0.54397  Biso   1.000  C
  H298     1.0000 0.73750  0.10320  0.51740  Biso   1.000  H
  C276     1.0000 0.75410  0.09034  0.59830  Biso   1.000  C
  C277     1.0000 0.80690  0.06600  0.63662  Biso   1.000  C
  H299     1.0000 0.79520  0.06700  0.67310  Biso   1.000  H
  C278     1.0000 0.87650  0.04040  0.62166  Biso   1.000  C
  C279     1.0000 0.89640  0.03866  0.56768  Biso   1.000  C
  H300     1.0000 0.94560  0.02210  0.55790  Biso   1.000  H
  C280     1.0000 0.68090  0.11874  0.61683  Biso   1.000  C
  C281     1.0000 0.59030  0.10384  0.64590  Biso   1.000  C
  H301     1.0000 0.62820  0.09070  0.67730  Biso   1.000  H
  H302     1.0000 0.54610  0.12180  0.65840  Biso   1.000  H
  H303     1.0000 0.53870  0.08950  0.62040  Biso   1.000  H
  C282     1.0000 0.76320  0.14247  0.65580  Biso   1.000  C
  H304     1.0000 0.80300  0.12990  0.68750  Biso   1.000  H
  H305     1.0000 0.81950  0.15190  0.63630  Biso   1.000  H
  H306     1.0000 0.71870  0.16040  0.66810  Biso   1.000  H
  C283     1.0000 0.61760  0.13986  0.56700  Biso   1.000  C
  H307     1.0000 0.56490  0.12550  0.54200  Biso   1.000  H
  H308     1.0000 0.57430  0.15780  0.58010  Biso   1.000  H
  H309     1.0000 0.67410  0.14940  0.54760  Biso   1.000  H
  C284     1.0000 0.83110  0.42151  0.78460  Biso   1.000  C
  C285     1.0000 0.82340  0.44077  0.83177  Biso   1.000  C
  H310     1.0000 0.77480  0.45970  0.82810  Biso   1.000  H
  C286     1.0000 0.88730  0.43203  0.88428  Biso   1.000  C
  C287     1.0000 0.96310  0.40449  0.88802  Biso   1.000  C
  H311     1.0000 0.01030  0.39920  0.92220  Biso   1.000  H
  C288     1.0000 0.96980  0.38454  0.84151  Biso   1.000  C
  C289     1.0000 0.90180  0.39282  0.78998  Biso   1.000  C
  H312     1.0000 0.90360  0.37920  0.75910  Biso   1.000  H
  C290     1.0000 0.86560  0.45162  0.93584  Biso   1.000  C
  C291     1.0000 0.88680  0.48949  0.92860  Biso   1.000  C
  H313     1.0000 0.87320  0.50160  0.96080  Biso   1.000  H
  H314     1.0000 0.96610  0.49300  0.92440  Biso   1.000  H
  H315     1.0000 0.83430  0.49770  0.89600  Biso   1.000  H
  C292     1.0000 0.94490  0.43948  0.98890  Biso   1.000  C
  H316     1.0000 0.93170  0.41570  0.99410  Biso   1.000  H
  H317     1.0000 0.02500  0.44300  0.98620  Biso   1.000  H
  H318     1.0000 0.92810  0.45200  0.02010  Biso   1.000  H
  C293     1.0000 0.73840  0.44719  0.94060  Biso   1.000  C
  H319     1.0000 0.72280  0.42360  0.94550  Biso   1.000  H
  H320     1.0000 0.72360  0.45980  0.97200  Biso   1.000  H
  H321     1.0000 0.68860  0.45530  0.90720  Biso   1.000  H
  C294     1.0000 0.60420  0.37208  0.83282  Biso   1.000  C
  C295     1.0000 0.63910  0.35206  0.88008  Biso   1.000  C
  H322     1.0000 0.61510  0.35780  0.91300  Biso   1.000  H
  C296     1.0000 0.70970  0.32352  0.87882  Biso   1.000  C
  C297     1.0000 0.73950  0.31456  0.82819  Biso   1.000  C
  H323     1.0000 0.78620  0.29560  0.82660  Biso   1.000  H
  C298     1.0000 0.70030  0.33355  0.77972  Biso   1.000  C
  C299     1.0000 0.63590  0.36282  0.78259  Biso   1.000  C
  H324     1.0000 0.61370  0.37630  0.75110  Biso   1.000  H
  C300     1.0000 0.75690  0.30311  0.93223  Biso   1.000  C
  C301     1.0000 0.74600  0.26450  0.91690  Biso   1.000  C
  H325     1.0000 0.81270  0.25760  0.90200  Biso   1.000  H
  H326     1.0000 0.74310  0.25150  0.94980  Biso   1.000  H
  H327     1.0000 0.67600  0.26080  0.88960  Biso   1.000  H
  C302     1.0000 0.78900  0.32640  0.97950  Biso   1.000  C
  H328     1.0000 0.85970  0.33820  0.97650  Biso   1.000  H
  H329     1.0000 0.72730  0.34260  0.97920  Biso   1.000  H
  H330     1.0000 0.80130  0.31380  0.01370  Biso   1.000  H
  C303     1.0000 0.89160  0.30980  0.94680  Biso   1.000  C
  H331     1.0000 0.91440  0.32290  0.91770  Biso   1.000  H
  H332     1.0000 0.91050  0.32200  0.98140  Biso   1.000  H
  H333     1.0000 0.93250  0.28850  0.95050  Biso   1.000  H
  C304     1.0000 0.63600  0.28690  0.94680  Biso   1.000  C
  H334     1.0000 0.57140  0.29210  0.91730  Biso   1.000  H
  H335     1.0000 0.64430  0.26270  0.95060  Biso   1.000  H
  H336     1.0000 0.62260  0.29640  0.98110  Biso   1.000  H
  C305     1.0000 0.70000  0.31010  0.97790  Biso   1.000  C
  H337     1.0000 0.74430  0.32690  0.00170  Biso   1.000  H
  H338     1.0000 0.62280  0.31850  0.96400  Biso   1.000  H
  H339     1.0000 0.69600  0.28970  0.99880  Biso   1.000  H
  C306     1.0000 0.84000  0.27790  0.92770  Biso   1.000  C
  H340     1.0000 0.90880  0.28840  0.91930  Biso   1.000  H
  H341     1.0000 0.85970  0.26580  0.96220  Biso   1.000  H
  H342     1.0000 0.80770  0.26250  0.89830  Biso   1.000  H
  Mn19     1.0000 0.69405  0.61968  0.11951  Biso   1.000  Mn
  Mn20     1.0000 0.88221  0.95831  0.86714  Biso   1.000  Mn
  Mn21     1.0000 0.72126  0.80117  0.87166  Biso   1.000  Mn
  O97      1.0000 0.60330  0.76470  0.88061  Biso   1.000  O
  O98      1.0000 0.47280  0.75014  0.80544  Biso   1.000  O
  O99      1.0000 0.69490  0.69542  0.04476  Biso   1.000  O
  O100     1.0000 0.60610  0.64618  0.04961  Biso   1.000  O
  O101     1.0000 0.57300  0.53809  0.04371  Biso   1.000  O
  O102     1.0000 0.70970  0.57624  0.06804  Biso   1.000  O
  O103     1.0000 0.48520  0.49731  0.84502  Biso   1.000  O
  O104     1.0000 0.61200  0.50935  0.79322  Biso   1.000  O
  O105     1.0000 0.72510  0.91139  0.81203  Biso   1.000  O
  O106     1.0000 0.81220  0.95392  0.77750  Biso   1.000  O
  O107     1.0000 0.48910  0.82992  0.68741  Biso   1.000  O
  O108     1.0000 0.36020  0.85224  0.61880  Biso   1.000  O
  O109     1.0000 0.03280  0.90687  0.63117  Biso   1.000  O
  O110     1.0000 0.94030  0.92838  0.69403  Biso   1.000  O
  O111     1.0000 0.69780  0.79849  0.77462  Biso   1.000  O
  O112     1.0000 0.81640  0.83736  0.81899  Biso   1.000  O
  C307     1.0000 0.52920  0.74458  0.85356  Biso   1.000  C
  C308     1.0000 0.62600  0.67244  0.02427  Biso   1.000  C
  C309     1.0000 0.64330  0.55864  0.03116  Biso   1.000  C
  C310     1.0000 0.57040  0.51423  0.83633  Biso   1.000  C
  C311     1.0000 0.74020  0.92949  0.77158  Biso   1.000  C
  C312     1.0000 0.45530  0.85375  0.65482  Biso   1.000  C
  C313     1.0000 0.96130  0.90457  0.66444  Biso   1.000  C
  C314     1.0000 0.76850  0.82286  0.77402  Biso   1.000  C
  C315     1.0000 0.51050  0.71236  0.88368  Biso   1.000  C
  C316     1.0000 0.43320  0.68746  0.85849  Biso   1.000  C
  H343     1.0000 0.39070  0.69100  0.82260  Biso   1.000  H
  C317     1.0000 0.41840  0.65717  0.88620  Biso   1.000  C
  C318     1.0000 0.48260  0.65288  0.93977  Biso   1.000  C
  H344     1.0000 0.47410  0.63290  0.95880  Biso   1.000  H
  C319     1.0000 0.55910  0.67756  0.96569  Biso   1.000  C
  C320     1.0000 0.57300  0.70734  0.93752  Biso   1.000  C
  H345     1.0000 0.62420  0.72400  0.95470  Biso   1.000  H
  C321     1.0000 0.33390  0.62979  0.85690  Biso   1.000  C
  C322     1.0000 0.30430  0.60410  0.89770  Biso   1.000  C
  H346     1.0000 0.26520  0.61530  0.92380  Biso   1.000  H
  H347     1.0000 0.37490  0.59380  0.91740  Biso   1.000  H
  H348     1.0000 0.25400  0.58700  0.87790  Biso   1.000  H
  C323     1.0000 0.39680  0.61170  0.81410  Biso   1.000  C
  H349     1.0000 0.34690  0.59430  0.79490  Biso   1.000  H
  H350     1.0000 0.46840  0.60170  0.83340  Biso   1.000  H
  H351     1.0000 0.41360  0.62800  0.78760  Biso   1.000  H
  C324     1.0000 0.22230  0.64500  0.82430  Biso   1.000  C
  H352     1.0000 0.18100  0.65620  0.84940  Biso   1.000  H
  H353     1.0000 0.17420  0.62740  0.80480  Biso   1.000  H
  H354     1.0000 0.24090  0.66120  0.79800  Biso   1.000  H
  C325     1.0000 0.65810  0.56196  0.97152  Biso   1.000  C
  C326     1.0000 0.72760  0.58760  0.95603  Biso   1.000  C
  H355     1.0000 0.76250  0.60320  0.98260  Biso   1.000  H
  C327     1.0000 0.74590  0.59034  0.90170  Biso   1.000  C
  C328     1.0000 0.69310  0.56600  0.86338  Biso   1.000  C
  H356     1.0000 0.70480  0.56700  0.82690  Biso   1.000  H
  C329     1.0000 0.62350  0.54040  0.87834  Biso   1.000  C
  C330     1.0000 0.60360  0.53866  0.93232  Biso   1.000  C
  H357     1.0000 0.55440  0.52210  0.94210  Biso   1.000  H
  C331     1.0000 0.81910  0.61874  0.88317  Biso   1.000  C
  C332     1.0000 0.90970  0.60384  0.85410  Biso   1.000  C
  H358     1.0000 0.87180  0.59070  0.82270  Biso   1.000  H
  H359     1.0000 0.95390  0.62180  0.84160  Biso   1.000  H
  H360     1.0000 0.96130  0.58950  0.87960  Biso   1.000  H
  C333     1.0000 0.73680  0.64247  0.84420  Biso   1.000  C
  H361     1.0000 0.69700  0.62990  0.81250  Biso   1.000  H
  H362     1.0000 0.68050  0.65190  0.86370  Biso   1.000  H
  H363     1.0000 0.78130  0.66040  0.83190  Biso   1.000  H
  C334     1.0000 0.88240  0.63986  0.93300  Biso   1.000  C
  H364     1.0000 0.93510  0.62550  0.95800  Biso   1.000  H
  H365     1.0000 0.92570  0.65780  0.91990  Biso   1.000  H
  H366     1.0000 0.82590  0.64940  0.95240  Biso   1.000  H
  C335     1.0000 0.66890  0.92151  0.71540  Biso   1.000  C
  C336     1.0000 0.67660  0.94077  0.66823  Biso   1.000  C
  H367     1.0000 0.72520  0.95970  0.67190  Biso   1.000  H
  C337     1.0000 0.61270  0.93203  0.61572  Biso   1.000  C
  C338     1.0000 0.53690  0.90449  0.61198  Biso   1.000  C
  H368     1.0000 0.48970  0.89920  0.57780  Biso   1.000  H
  C339     1.0000 0.53020  0.88454  0.65849  Biso   1.000  C
  C340     1.0000 0.59820  0.89282  0.71002  Biso   1.000  C
  H369     1.0000 0.59640  0.87920  0.74090  Biso   1.000  H
  C341     1.0000 0.63440  0.95162  0.56416  Biso   1.000  C
  C342     1.0000 0.61320  0.98949  0.57140  Biso   1.000  C
  H370     1.0000 0.62680  0.00160  0.53920  Biso   1.000  H
  H371     1.0000 0.53390  0.99300  0.57560  Biso   1.000  H
  H372     1.0000 0.66570  0.99770  0.60400  Biso   1.000  H
  C343     1.0000 0.55510  0.93948  0.51110  Biso   1.000  C
  H373     1.0000 0.56830  0.91570  0.50590  Biso   1.000  H
  H374     1.0000 0.47500  0.94300  0.51380  Biso   1.000  H
  H375     1.0000 0.57190  0.95200  0.47990  Biso   1.000  H
  C344     1.0000 0.76160  0.94719  0.55940  Biso   1.000  C
  H376     1.0000 0.77720  0.92360  0.55450  Biso   1.000  H
  H377     1.0000 0.77640  0.95980  0.52800  Biso   1.000  H
  H378     1.0000 0.81140  0.95530  0.59280  Biso   1.000  H
  C345     1.0000 0.89580  0.87208  0.66718  Biso   1.000  C
  C346     1.0000 0.86090  0.85206  0.61992  Biso   1.000  C
  H379     1.0000 0.88490  0.85780  0.58700  Biso   1.000  H
  C347     1.0000 0.79030  0.82352  0.62118  Biso   1.000  C
  C348     1.0000 0.76050  0.81456  0.67181  Biso   1.000  C
  H380     1.0000 0.71380  0.79560  0.67340  Biso   1.000  H
  C349     1.0000 0.79970  0.83355  0.72028  Biso   1.000  C
  C350     1.0000 0.86410  0.86282  0.71741  Biso   1.000  C
  H381     1.0000 0.88630  0.87630  0.74890  Biso   1.000  H
  C351     1.0000 0.74310  0.80311  0.56777  Biso   1.000  C
  C352     1.0000 0.75400  0.76450  0.58310  Biso   1.000  C
  H382     1.0000 0.68730  0.75760  0.59800  Biso   1.000  H
  H383     1.0000 0.75690  0.75150  0.55020  Biso   1.000  H
  H384     1.0000 0.82400  0.76080  0.61040  Biso   1.000  H
  C353     1.0000 0.71100  0.82640  0.52050  Biso   1.000  C
  H385     1.0000 0.64030  0.83820  0.52350  Biso   1.000  H
  H386     1.0000 0.77270  0.84260  0.52080  Biso   1.000  H
  H387     1.0000 0.69870  0.81380  0.48630  Biso   1.000  H
  C354     1.0000 0.60840  0.80980  0.55320  Biso   1.000  C
  H388     1.0000 0.58560  0.82290  0.58230  Biso   1.000  H
  H389     1.0000 0.58950  0.82200  0.51860  Biso   1.000  H
  H390     1.0000 0.56750  0.78850  0.54950  Biso   1.000  H
  C355     1.0000 0.86400  0.78690  0.55320  Biso   1.000  C
  H391     1.0000 0.92860  0.79210  0.58270  Biso   1.000  H
  H392     1.0000 0.85570  0.76270  0.54940  Biso   1.000  H
  H393     1.0000 0.87740  0.79640  0.51890  Biso   1.000  H
  C356     1.0000 0.80000  0.81010  0.52210  Biso   1.000  C
  H394     1.0000 0.75570  0.82690  0.49830  Biso   1.000  H
  H395     1.0000 0.87720  0.81850  0.53600  Biso   1.000  H
  H396     1.0000 0.80400  0.78970  0.50120  Biso   1.000  H
  C357     1.0000 0.66000  0.77790  0.57230  Biso   1.000  C
  H397     1.0000 0.59120  0.78840  0.58070  Biso   1.000  H
  H398     1.0000 0.64030  0.76580  0.53780  Biso   1.000  H
  H399     1.0000 0.69230  0.76250  0.60170  Biso   1.000  H
  Mn22     1.0000 0.19405  0.11968  0.11951  Biso   1.000  Mn
  Mn23     1.0000 0.38221  0.45831  0.86714  Biso   1.000  Mn
  Mn24     1.0000 0.22126  0.30117  0.87166  Biso   1.000  Mn
  O113     1.0000 0.10330  0.26470  0.88061  Biso   1.000  O
  O114     1.0000 0.97280  0.25014  0.80544  Biso   1.000  O
  O115     1.0000 0.19490  0.19542  0.04476  Biso   1.000  O
  O116     1.0000 0.10610  0.14618  0.04961  Biso   1.000  O
  O117     1.0000 0.07300  0.03809  0.04371  Biso   1.000  O
  O118     1.0000 0.20970  0.07624  0.06804  Biso   1.000  O
  O119     1.0000 0.98520  0.99731  0.84502  Biso   1.000  O
  O120     1.0000 0.11200  0.00935  0.79322  Biso   1.000  O
  O121     1.0000 0.22510  0.41139  0.81203  Biso   1.000  O
  O122     1.0000 0.31220  0.45392  0.77750  Biso   1.000  O
  O123     1.0000 0.98910  0.32992  0.68741  Biso   1.000  O
  O124     1.0000 0.86020  0.35224  0.61880  Biso   1.000  O
  O125     1.0000 0.53280  0.40687  0.63117  Biso   1.000  O
  O126     1.0000 0.44030  0.42838  0.69403  Biso   1.000  O
  O127     1.0000 0.19780  0.29849  0.77462  Biso   1.000  O
  O128     1.0000 0.31640  0.33736  0.81899  Biso   1.000  O
  C358     1.0000 0.02920  0.24458  0.85356  Biso   1.000  C
  C359     1.0000 0.12600  0.17244  0.02427  Biso   1.000  C
  C360     1.0000 0.14330  0.05864  0.03116  Biso   1.000  C
  C361     1.0000 0.07040  0.01423  0.83633  Biso   1.000  C
  C362     1.0000 0.24020  0.42949  0.77158  Biso   1.000  C
  C363     1.0000 0.95530  0.35375  0.65482  Biso   1.000  C
  C364     1.0000 0.46130  0.40457  0.66444  Biso   1.000  C
  C365     1.0000 0.26850  0.32286  0.77402  Biso   1.000  C
  C366     1.0000 0.01050  0.21236  0.88368  Biso   1.000  C
  C367     1.0000 0.93320  0.18746  0.85849  Biso   1.000  C
  H400     1.0000 0.89070  0.19100  0.82260  Biso   1.000  H
  C368     1.0000 0.91840  0.15717  0.88620  Biso   1.000  C
  C369     1.0000 0.98260  0.15288  0.93977  Biso   1.000  C
  H401     1.0000 0.97410  0.13290  0.95880  Biso   1.000  H
  C370     1.0000 0.05910  0.17756  0.96569  Biso   1.000  C
  C371     1.0000 0.07300  0.20734  0.93752  Biso   1.000  C
  H402     1.0000 0.12420  0.22400  0.95470  Biso   1.000  H
  C372     1.0000 0.83390  0.12979  0.85690  Biso   1.000  C
  C373     1.0000 0.80430  0.10410  0.89770  Biso   1.000  C
  H403     1.0000 0.76520  0.11530  0.92380  Biso   1.000  H
  H404     1.0000 0.87490  0.09380  0.91740  Biso   1.000  H
  H405     1.0000 0.75400  0.08700  0.87790  Biso   1.000  H
  C374     1.0000 0.89680  0.11170  0.81410  Biso   1.000  C
  H406     1.0000 0.84690  0.09430  0.79490  Biso   1.000  H
  H407     1.0000 0.96840  0.10170  0.83340  Biso   1.000  H
  H408     1.0000 0.91360  0.12800  0.78760  Biso   1.000  H
  C375     1.0000 0.72230  0.14500  0.82430  Biso   1.000  C
  H409     1.0000 0.68100  0.15620  0.84940  Biso   1.000  H
  H410     1.0000 0.67420  0.12740  0.80480  Biso   1.000  H
  H411     1.0000 0.74090  0.16120  0.79800  Biso   1.000  H
  C376     1.0000 0.15810  0.06196  0.97152  Biso   1.000  C
  C377     1.0000 0.22760  0.08760  0.95603  Biso   1.000  C
  H412     1.0000 0.26250  0.10320  0.98260  Biso   1.000  H
  C378     1.0000 0.24590  0.09034  0.90170  Biso   1.000  C
  C379     1.0000 0.19310  0.06600  0.86338  Biso   1.000  C
  H413     1.0000 0.20480  0.06700  0.82690  Biso   1.000  H
  C380     1.0000 0.12350  0.04040  0.87834  Biso   1.000  C
  C381     1.0000 0.10360  0.03866  0.93232  Biso   1.000  C
  H414     1.0000 0.05440  0.02210  0.94210  Biso   1.000  H
  C382     1.0000 0.31910  0.11874  0.88317  Biso   1.000  C
  C383     1.0000 0.40970  0.10384  0.85410  Biso   1.000  C
  H415     1.0000 0.37180  0.09070  0.82270  Biso   1.000  H
  H416     1.0000 0.45390  0.12180  0.84160  Biso   1.000  H
  H417     1.0000 0.46130  0.08950  0.87960  Biso   1.000  H
  C384     1.0000 0.23680  0.14247  0.84420  Biso   1.000  C
  H418     1.0000 0.19700  0.12990  0.81250  Biso   1.000  H
  H419     1.0000 0.18050  0.15190  0.86370  Biso   1.000  H
  H420     1.0000 0.28130  0.16040  0.83190  Biso   1.000  H
  C385     1.0000 0.38240  0.13986  0.93300  Biso   1.000  C
  H421     1.0000 0.43510  0.12550  0.95800  Biso   1.000  H
  H422     1.0000 0.42570  0.15780  0.91990  Biso   1.000  H
  H423     1.0000 0.32590  0.14940  0.95240  Biso   1.000  H
  C386     1.0000 0.16890  0.42151  0.71540  Biso   1.000  C
  C387     1.0000 0.17660  0.44077  0.66823  Biso   1.000  C
  H424     1.0000 0.22520  0.45970  0.67190  Biso   1.000  H
  C388     1.0000 0.11270  0.43203  0.61572  Biso   1.000  C
  C389     1.0000 0.03690  0.40449  0.61198  Biso   1.000  C
  H425     1.0000 0.98970  0.39920  0.57780  Biso   1.000  H
  C390     1.0000 0.03020  0.38454  0.65849  Biso   1.000  C
  C391     1.0000 0.09820  0.39282  0.71002  Biso   1.000  C
  H426     1.0000 0.09640  0.37920  0.74090  Biso   1.000  H
  C392     1.0000 0.13440  0.45162  0.56416  Biso   1.000  C
  C393     1.0000 0.11320  0.48949  0.57140  Biso   1.000  C
  H427     1.0000 0.12680  0.50160  0.53920  Biso   1.000  H
  H428     1.0000 0.03390  0.49300  0.57560  Biso   1.000  H
  H429     1.0000 0.16570  0.49770  0.60400  Biso   1.000  H
  C394     1.0000 0.05510  0.43948  0.51110  Biso   1.000  C
  H430     1.0000 0.06830  0.41570  0.50590  Biso   1.000  H
  H431     1.0000 0.97500  0.44300  0.51380  Biso   1.000  H
  H432     1.0000 0.07190  0.45200  0.47990  Biso   1.000  H
  C395     1.0000 0.26160  0.44719  0.55940  Biso   1.000  C
  H433     1.0000 0.27720  0.42360  0.55450  Biso   1.000  H
  H434     1.0000 0.27640  0.45980  0.52800  Biso   1.000  H
  H435     1.0000 0.31140  0.45530  0.59280  Biso   1.000  H
  C396     1.0000 0.39580  0.37208  0.66718  Biso   1.000  C
  C397     1.0000 0.36090  0.35206  0.61992  Biso   1.000  C
  H436     1.0000 0.38490  0.35780  0.58700  Biso   1.000  H
  C398     1.0000 0.29030  0.32352  0.62118  Biso   1.000  C
  C399     1.0000 0.26050  0.31456  0.67181  Biso   1.000  C
  H437     1.0000 0.21380  0.29560  0.67340  Biso   1.000  H
  C400     1.0000 0.29970  0.33355  0.72028  Biso   1.000  C
  C401     1.0000 0.36410  0.36282  0.71741  Biso   1.000  C
  H438     1.0000 0.38630  0.37630  0.74890  Biso   1.000  H
  C402     1.0000 0.24310  0.30311  0.56777  Biso   1.000  C
  C403     1.0000 0.25400  0.26450  0.58310  Biso   1.000  C
  H439     1.0000 0.18730  0.25760  0.59800  Biso   1.000  H
  H440     1.0000 0.25690  0.25150  0.55020  Biso   1.000  H
  H441     1.0000 0.32400  0.26080  0.61040  Biso   1.000  H
  C404     1.0000 0.21100  0.32640  0.52050  Biso   1.000  C
  H442     1.0000 0.14030  0.33820  0.52350  Biso   1.000  H
  H443     1.0000 0.27270  0.34260  0.52080  Biso   1.000  H
  H444     1.0000 0.19870  0.31380  0.48630  Biso   1.000  H
  C405     1.0000 0.10840  0.30980  0.55320  Biso   1.000  C
  H445     1.0000 0.08560  0.32290  0.58230  Biso   1.000  H
  H446     1.0000 0.08950  0.32200  0.51860  Biso   1.000  H
  H447     1.0000 0.06750  0.28850  0.54950  Biso   1.000  H
  C406     1.0000 0.36400  0.28690  0.55320  Biso   1.000  C
  H448     1.0000 0.42860  0.29210  0.58270  Biso   1.000  H
  H449     1.0000 0.35570  0.26270  0.54940  Biso   1.000  H
  H450     1.0000 0.37740  0.29640  0.51890  Biso   1.000  H
  C407     1.0000 0.30000  0.31010  0.52210  Biso   1.000  C
  H451     1.0000 0.25570  0.32690  0.49830  Biso   1.000  H
  H452     1.0000 0.37720  0.31850  0.53600  Biso   1.000  H
  H453     1.0000 0.30400  0.28970  0.50120  Biso   1.000  H
  C408     1.0000 0.16000  0.27790  0.57230  Biso   1.000  C
  H454     1.0000 0.09120  0.28840  0.58070  Biso   1.000  H
  H455     1.0000 0.14030  0.26580  0.53780  Biso   1.000  H
  H456     1.0000 0.19230  0.26250  0.60170  Biso   1.000  H
  Mn25     1.0000 0.50000  0.20913  0.25000  Biso   1.000  Mn
  Mn26     1.0000 0.00000  0.70913  0.25000  Biso   1.000  Mn
  Mn27     1.0000 0.50000  0.79087  0.75000  Biso   1.000  Mn
  Mn28     1.0000 0.00000  0.29087  0.75000  Biso   1.000  Mn
  Mn29     1.0000 0.00000  0.03130  0.25000  Biso   1.000  Mn
  Mn30     1.0000 0.50000  0.53130  0.25000  Biso   1.000  Mn
  Mn31     1.0000 0.00000  0.96871  0.75000  Biso   1.000  Mn
  Mn32     1.0000 0.50000  0.46870  0.75000  Biso   1.000  Mn
