data_image0
_cell_length_a       22.8727
_cell_length_b       22.8727
_cell_length_c       19.059
_cell_angle_alpha    90
_cell_angle_beta     90
_cell_angle_gamma    90

_symmetry_space_group_name_H-M    "P 1"
_symmetry_int_tables_number       1

loop_
  _symmetry_equiv_pos_as_xyz
  'x, y, z'

loop_
  _atom_site_label
  _atom_site_occupancy
  _atom_site_fract_x
  _atom_site_fract_y
  _atom_site_fract_z
  _atom_site_thermal_displace_type
  _atom_site_B_iso_or_equiv
  _atom_site_type_symbol
  F1       1.0000 0.36890  0.29630  0.13200  Biso   1.000  F
  F2       1.0000 0.38250  0.36110  0.20900  Biso   1.000  F
  F3       1.0000 0.35800  0.38520  0.10670  Biso   1.000  F
  O1       1.0000 0.15810  0.44120  0.06970  Biso   1.000  O
  O2       1.0000 0.08800  0.39360  0.12750  Biso   1.000  O
  N1       1.0000 0.04400  0.28420  0.47080  Biso   1.000  N
  H1       1.0000 0.03850  0.24810  0.45320  Biso   1.000  H
  H2       1.0000 0.05020  0.28900  0.51710  Biso   1.000  H
  C1       1.0000 0.26610  0.30850  0.23330  Biso   1.000  C
  C2       1.0000 0.28410  0.34270  0.17670  Biso   1.000  C
  C3       1.0000 0.24310  0.37410  0.13810  Biso   1.000  C
  H3       1.0000 0.25560  0.39720  0.09940  Biso   1.000  H
  C4       1.0000 0.18490  0.37220  0.15520  Biso   1.000  C
  C5       1.0000 0.16570  0.33840  0.21100  Biso   1.000  C
  H4       1.0000 0.12530  0.33690  0.22270  Biso   1.000  H
  C6       1.0000 0.20670  0.30670  0.24990  Biso   1.000  C
  H5       1.0000 0.19390  0.28350  0.28830  Biso   1.000  H
  C7       1.0000 0.34720  0.34590  0.15700  Biso   1.000  C
  C8       1.0000 0.14070  0.40480  0.11440  Biso   1.000  C
  C9       1.0000 0.03580  0.39990  0.52840  Biso   1.000  C
  C10      1.0000 0.02740  0.38750  0.45200  Biso   1.000  C
  C11      1.0000 0.03460  0.33180  0.42540  Biso   1.000  C
  C12      1.0000 0.02540  0.32140  0.35420  Biso   1.000  C
  H6       1.0000 0.02720  0.28300  0.33410  Biso   1.000  H
  C13      1.0000 0.00910  0.36670  0.31010  Biso   1.000  C
  H7       1.0000 0.99460  0.45520  0.30800  Biso   1.000  H
  C14      1.0000 0.01160  0.43320  0.40750  Biso   1.000  C
  H8       1.0000 0.00990  0.47170  0.42750  Biso   1.000  H
  F4       1.0000 0.21210  0.28300  0.37050  Biso   1.000  F
  F5       1.0000 0.12840  0.27810  0.32270  Biso   1.000  F
  F6       1.0000 0.19230  0.21330  0.30050  Biso   1.000  F
  O3       1.0000 0.08970  0.47880  0.76350  Biso   1.000  O
  H9       1.0000 0.11440  0.45200  0.45470  Biso   1.000  H
  H10      1.0000 0.14380  0.48710  0.51290  Biso   1.000  H
  H11      1.0000 0.32440  0.34450  0.16450  Biso   1.000  H
  C15      1.0000 0.18570  0.27050  0.31030  Biso   1.000  C
  C16      1.0000 0.07800  0.43960  0.54990  Biso   1.000  C
  C17      1.0000 0.08180  0.45600  0.61980  Biso   1.000  C
  H12      1.0000 0.11000  0.48480  0.63380  Biso   1.000  H
  C18      1.0000 0.04350  0.43240  0.66890  Biso   1.000  C
  H13      1.0000 0.97190  0.37980  0.67970  Biso   1.000  H
  H14      1.0000 0.97180  0.34590  0.56390  Biso   1.000  H
  C19      1.0000 0.04460  0.45240  0.74430  Biso   1.000  C
  F7       1.0000 0.63110  0.70370  0.13200  Biso   1.000  F
  F8       1.0000 0.61750  0.63890  0.20900  Biso   1.000  F
  F9       1.0000 0.64200  0.61480  0.10670  Biso   1.000  F
  O4       1.0000 0.84190  0.55880  0.06970  Biso   1.000  O
  O5       1.0000 0.91200  0.60640  0.12750  Biso   1.000  O
  N2       1.0000 0.95600  0.71580  0.47080  Biso   1.000  N
  H15      1.0000 0.96150  0.75190  0.45320  Biso   1.000  H
  H16      1.0000 0.94980  0.71100  0.51710  Biso   1.000  H
  C20      1.0000 0.73390  0.69150  0.23330  Biso   1.000  C
  C21      1.0000 0.71590  0.65730  0.17670  Biso   1.000  C
  C22      1.0000 0.75690  0.62590  0.13810  Biso   1.000  C
  H17      1.0000 0.74440  0.60280  0.09940  Biso   1.000  H
  C23      1.0000 0.81510  0.62780  0.15520  Biso   1.000  C
  C24      1.0000 0.83430  0.66160  0.21100  Biso   1.000  C
  H18      1.0000 0.87470  0.66310  0.22270  Biso   1.000  H
  C25      1.0000 0.79330  0.69330  0.24990  Biso   1.000  C
  H19      1.0000 0.80610  0.71650  0.28830  Biso   1.000  H
  C26      1.0000 0.65280  0.65410  0.15700  Biso   1.000  C
  C27      1.0000 0.85930  0.59520  0.11440  Biso   1.000  C
  C28      1.0000 0.96420  0.60010  0.52840  Biso   1.000  C
  C29      1.0000 0.97260  0.61250  0.45200  Biso   1.000  C
  C30      1.0000 0.96540  0.66820  0.42540  Biso   1.000  C
  C31      1.0000 0.97460  0.67860  0.35420  Biso   1.000  C
  H20      1.0000 0.97280  0.71700  0.33410  Biso   1.000  H
  C32      1.0000 0.99090  0.63330  0.31010  Biso   1.000  C
  H21      1.0000 0.00540  0.54480  0.30800  Biso   1.000  H
  C33      1.0000 0.98840  0.56680  0.40750  Biso   1.000  C
  H22      1.0000 0.99010  0.52830  0.42750  Biso   1.000  H
  F10      1.0000 0.78790  0.71700  0.37050  Biso   1.000  F
  F11      1.0000 0.87160  0.72190  0.32270  Biso   1.000  F
  F12      1.0000 0.80770  0.78670  0.30050  Biso   1.000  F
  O6       1.0000 0.91030  0.52120  0.76350  Biso   1.000  O
  H23      1.0000 0.88560  0.54800  0.45470  Biso   1.000  H
  H24      1.0000 0.85620  0.51290  0.51290  Biso   1.000  H
  H25      1.0000 0.67560  0.65550  0.16450  Biso   1.000  H
  C34      1.0000 0.81430  0.72950  0.31030  Biso   1.000  C
  C35      1.0000 0.92200  0.56040  0.54990  Biso   1.000  C
  C36      1.0000 0.91820  0.54400  0.61980  Biso   1.000  C
  H26      1.0000 0.89000  0.51520  0.63380  Biso   1.000  H
  C37      1.0000 0.95650  0.56760  0.66890  Biso   1.000  C
  H27      1.0000 0.02810  0.62020  0.67970  Biso   1.000  H
  H28      1.0000 0.02820  0.65410  0.56390  Biso   1.000  H
  C38      1.0000 0.95540  0.54760  0.74430  Biso   1.000  C
  F13      1.0000 0.70370  0.36890  0.63200  Biso   1.000  F
  F14      1.0000 0.63890  0.38250  0.70900  Biso   1.000  F
  F15      1.0000 0.61480  0.35800  0.60670  Biso   1.000  F
  O7       1.0000 0.55880  0.15810  0.56970  Biso   1.000  O
  O8       1.0000 0.60640  0.08800  0.62750  Biso   1.000  O
  N3       1.0000 0.71580  0.04400  0.97080  Biso   1.000  N
  H29      1.0000 0.75190  0.03850  0.95320  Biso   1.000  H
  H30      1.0000 0.71100  0.05020  0.01710  Biso   1.000  H
  C39      1.0000 0.69150  0.26610  0.73330  Biso   1.000  C
  C40      1.0000 0.65730  0.28410  0.67670  Biso   1.000  C
  C41      1.0000 0.62590  0.24310  0.63810  Biso   1.000  C
  H31      1.0000 0.60280  0.25560  0.59940  Biso   1.000  H
  C42      1.0000 0.62780  0.18490  0.65520  Biso   1.000  C
  C43      1.0000 0.66160  0.16570  0.71100  Biso   1.000  C
  H32      1.0000 0.66310  0.12530  0.72270  Biso   1.000  H
  C44      1.0000 0.69330  0.20670  0.74990  Biso   1.000  C
  H33      1.0000 0.71650  0.19390  0.78830  Biso   1.000  H
  C45      1.0000 0.65410  0.34720  0.65700  Biso   1.000  C
  C46      1.0000 0.59520  0.14070  0.61440  Biso   1.000  C
  C47      1.0000 0.60010  0.03580  0.02840  Biso   1.000  C
  C48      1.0000 0.61250  0.02740  0.95200  Biso   1.000  C
  C49      1.0000 0.66820  0.03460  0.92540  Biso   1.000  C
  C50      1.0000 0.67860  0.02540  0.85420  Biso   1.000  C
  H34      1.0000 0.71700  0.02720  0.83410  Biso   1.000  H
  C51      1.0000 0.63330  0.00910  0.81010  Biso   1.000  C
  H35      1.0000 0.54480  0.99460  0.80800  Biso   1.000  H
  C52      1.0000 0.56680  0.01160  0.90750  Biso   1.000  C
  H36      1.0000 0.52830  0.00990  0.92750  Biso   1.000  H
  F16      1.0000 0.71700  0.21210  0.87050  Biso   1.000  F
  F17      1.0000 0.72190  0.12840  0.82270  Biso   1.000  F
  F18      1.0000 0.78670  0.19230  0.80050  Biso   1.000  F
  O9       1.0000 0.52120  0.08970  0.26350  Biso   1.000  O
  H37      1.0000 0.54800  0.11440  0.95470  Biso   1.000  H
  H38      1.0000 0.51290  0.14380  0.01290  Biso   1.000  H
  H39      1.0000 0.65550  0.32440  0.66450  Biso   1.000  H
  C53      1.0000 0.72950  0.18570  0.81030  Biso   1.000  C
  C54      1.0000 0.56040  0.07800  0.04990  Biso   1.000  C
  C55      1.0000 0.54400  0.08180  0.11980  Biso   1.000  C
  H40      1.0000 0.51520  0.11000  0.13380  Biso   1.000  H
  C56      1.0000 0.56760  0.04350  0.16890  Biso   1.000  C
  H41      1.0000 0.62020  0.97190  0.17970  Biso   1.000  H
  H42      1.0000 0.65410  0.97180  0.06390  Biso   1.000  H
  C57      1.0000 0.54760  0.04460  0.24430  Biso   1.000  C
  F19      1.0000 0.29630  0.63110  0.63200  Biso   1.000  F
  F20      1.0000 0.36110  0.61750  0.70900  Biso   1.000  F
  F21      1.0000 0.38520  0.64200  0.60670  Biso   1.000  F
  O10      1.0000 0.44120  0.84190  0.56970  Biso   1.000  O
  O11      1.0000 0.39360  0.91200  0.62750  Biso   1.000  O
  N4       1.0000 0.28420  0.95600  0.97080  Biso   1.000  N
  H43      1.0000 0.24810  0.96150  0.95320  Biso   1.000  H
  H44      1.0000 0.28900  0.94980  0.01710  Biso   1.000  H
  C58      1.0000 0.30850  0.73390  0.73330  Biso   1.000  C
  C59      1.0000 0.34270  0.71590  0.67670  Biso   1.000  C
  C60      1.0000 0.37410  0.75690  0.63810  Biso   1.000  C
  H45      1.0000 0.39720  0.74440  0.59940  Biso   1.000  H
  C61      1.0000 0.37220  0.81510  0.65520  Biso   1.000  C
  C62      1.0000 0.33840  0.83430  0.71100  Biso   1.000  C
  H46      1.0000 0.33690  0.87470  0.72270  Biso   1.000  H
  C63      1.0000 0.30670  0.79330  0.74990  Biso   1.000  C
  H47      1.0000 0.28350  0.80610  0.78830  Biso   1.000  H
  C64      1.0000 0.34590  0.65280  0.65700  Biso   1.000  C
  C65      1.0000 0.40480  0.85930  0.61440  Biso   1.000  C
  C66      1.0000 0.39990  0.96420  0.02840  Biso   1.000  C
  C67      1.0000 0.38750  0.97260  0.95200  Biso   1.000  C
  C68      1.0000 0.33180  0.96540  0.92540  Biso   1.000  C
  C69      1.0000 0.32140  0.97460  0.85420  Biso   1.000  C
  H48      1.0000 0.28300  0.97280  0.83410  Biso   1.000  H
  C70      1.0000 0.36670  0.99090  0.81010  Biso   1.000  C
  H49      1.0000 0.45520  0.00540  0.80800  Biso   1.000  H
  C71      1.0000 0.43320  0.98840  0.90750  Biso   1.000  C
  H50      1.0000 0.47170  0.99010  0.92750  Biso   1.000  H
  F22      1.0000 0.28300  0.78790  0.87050  Biso   1.000  F
  F23      1.0000 0.27810  0.87160  0.82270  Biso   1.000  F
  F24      1.0000 0.21330  0.80770  0.80050  Biso   1.000  F
  O12      1.0000 0.47880  0.91030  0.26350  Biso   1.000  O
  H51      1.0000 0.45200  0.88560  0.95470  Biso   1.000  H
  H52      1.0000 0.48710  0.85620  0.01290  Biso   1.000  H
  H53      1.0000 0.34450  0.67560  0.66450  Biso   1.000  H
  C72      1.0000 0.27050  0.81430  0.81030  Biso   1.000  C
  C73      1.0000 0.43960  0.92200  0.04990  Biso   1.000  C
  C74      1.0000 0.45600  0.91820  0.11980  Biso   1.000  C
  H54      1.0000 0.48480  0.89000  0.13380  Biso   1.000  H
  C75      1.0000 0.43240  0.95650  0.16890  Biso   1.000  C
  H55      1.0000 0.37980  0.02810  0.17970  Biso   1.000  H
  H56      1.0000 0.34590  0.02820  0.06390  Biso   1.000  H
  C76      1.0000 0.45240  0.95540  0.24430  Biso   1.000  C
  F25      1.0000 0.63110  0.29630  0.86800  Biso   1.000  F
  F26      1.0000 0.61750  0.36110  0.79100  Biso   1.000  F
  F27      1.0000 0.64200  0.38520  0.89330  Biso   1.000  F
  O13      1.0000 0.84190  0.44120  0.93030  Biso   1.000  O
  O14      1.0000 0.91200  0.39360  0.87250  Biso   1.000  O
  N5       1.0000 0.95600  0.28420  0.52920  Biso   1.000  N
  H57      1.0000 0.96150  0.24810  0.54680  Biso   1.000  H
  H58      1.0000 0.94980  0.28900  0.48290  Biso   1.000  H
  C77      1.0000 0.73390  0.30850  0.76670  Biso   1.000  C
  C78      1.0000 0.71590  0.34270  0.82330  Biso   1.000  C
  C79      1.0000 0.75690  0.37410  0.86190  Biso   1.000  C
  H59      1.0000 0.74440  0.39720  0.90060  Biso   1.000  H
  C80      1.0000 0.81510  0.37220  0.84480  Biso   1.000  C
  C81      1.0000 0.83430  0.33840  0.78900  Biso   1.000  C
  H60      1.0000 0.87470  0.33690  0.77730  Biso   1.000  H
  C82      1.0000 0.79330  0.30670  0.75010  Biso   1.000  C
  H61      1.0000 0.80610  0.28350  0.71170  Biso   1.000  H
  C83      1.0000 0.65280  0.34590  0.84300  Biso   1.000  C
  C84      1.0000 0.85930  0.40480  0.88560  Biso   1.000  C
  C85      1.0000 0.96420  0.39990  0.47160  Biso   1.000  C
  C86      1.0000 0.97260  0.38750  0.54800  Biso   1.000  C
  C87      1.0000 0.96540  0.33180  0.57460  Biso   1.000  C
  C88      1.0000 0.97460  0.32140  0.64580  Biso   1.000  C
  H62      1.0000 0.97280  0.28300  0.66590  Biso   1.000  H
  C89      1.0000 0.99090  0.36670  0.68990  Biso   1.000  C
  H63      1.0000 0.00540  0.45520  0.69200  Biso   1.000  H
  C90      1.0000 0.98840  0.43320  0.59250  Biso   1.000  C
  H64      1.0000 0.99010  0.47170  0.57250  Biso   1.000  H
  F28      1.0000 0.78790  0.28300  0.62950  Biso   1.000  F
  F29      1.0000 0.87160  0.27810  0.67730  Biso   1.000  F
  F30      1.0000 0.80770  0.21330  0.69950  Biso   1.000  F
  O15      1.0000 0.91030  0.47880  0.23650  Biso   1.000  O
  H65      1.0000 0.88560  0.45200  0.54530  Biso   1.000  H
  H66      1.0000 0.85620  0.48710  0.48710  Biso   1.000  H
  H67      1.0000 0.67560  0.34450  0.83550  Biso   1.000  H
  C91      1.0000 0.81430  0.27050  0.68970  Biso   1.000  C
  C92      1.0000 0.92200  0.43960  0.45010  Biso   1.000  C
  C93      1.0000 0.91820  0.45600  0.38020  Biso   1.000  C
  H68      1.0000 0.89000  0.48480  0.36620  Biso   1.000  H
  C94      1.0000 0.95650  0.43240  0.33110  Biso   1.000  C
  H69      1.0000 0.02810  0.37980  0.32030  Biso   1.000  H
  H70      1.0000 0.02820  0.34590  0.43610  Biso   1.000  H
  C95      1.0000 0.95540  0.45240  0.25570  Biso   1.000  C
  F31      1.0000 0.36890  0.70370  0.86800  Biso   1.000  F
  F32      1.0000 0.38250  0.63890  0.79100  Biso   1.000  F
  F33      1.0000 0.35800  0.61480  0.89330  Biso   1.000  F
  O16      1.0000 0.15810  0.55880  0.93030  Biso   1.000  O
  O17      1.0000 0.08800  0.60640  0.87250  Biso   1.000  O
  N6       1.0000 0.04400  0.71580  0.52920  Biso   1.000  N
  H71      1.0000 0.03850  0.75190  0.54680  Biso   1.000  H
  H72      1.0000 0.05020  0.71100  0.48290  Biso   1.000  H
  C96      1.0000 0.26610  0.69150  0.76670  Biso   1.000  C
  C97      1.0000 0.28410  0.65730  0.82330  Biso   1.000  C
  C98      1.0000 0.24310  0.62590  0.86190  Biso   1.000  C
  H73      1.0000 0.25560  0.60280  0.90060  Biso   1.000  H
  C99      1.0000 0.18490  0.62780  0.84480  Biso   1.000  C
  C100     1.0000 0.16570  0.66160  0.78900  Biso   1.000  C
  H74      1.0000 0.12530  0.66310  0.77730  Biso   1.000  H
  C101     1.0000 0.20670  0.69330  0.75010  Biso   1.000  C
  H75      1.0000 0.19390  0.71650  0.71170  Biso   1.000  H
  C102     1.0000 0.34720  0.65410  0.84300  Biso   1.000  C
  C103     1.0000 0.14070  0.59520  0.88560  Biso   1.000  C
  C104     1.0000 0.03580  0.60010  0.47160  Biso   1.000  C
  C105     1.0000 0.02740  0.61250  0.54800  Biso   1.000  C
  C106     1.0000 0.03460  0.66820  0.57460  Biso   1.000  C
  C107     1.0000 0.02540  0.67860  0.64580  Biso   1.000  C
  H76      1.0000 0.02720  0.71700  0.66590  Biso   1.000  H
  C108     1.0000 0.00910  0.63330  0.68990  Biso   1.000  C
  H77      1.0000 0.99460  0.54480  0.69200  Biso   1.000  H
  C109     1.0000 0.01160  0.56680  0.59250  Biso   1.000  C
  H78      1.0000 0.00990  0.52830  0.57250  Biso   1.000  H
  F34      1.0000 0.21210  0.71700  0.62950  Biso   1.000  F
  F35      1.0000 0.12840  0.72190  0.67730  Biso   1.000  F
  F36      1.0000 0.19230  0.78670  0.69950  Biso   1.000  F
  O18      1.0000 0.08970  0.52120  0.23650  Biso   1.000  O
  H79      1.0000 0.11440  0.54800  0.54530  Biso   1.000  H
  H80      1.0000 0.14380  0.51290  0.48710  Biso   1.000  H
  H81      1.0000 0.32440  0.65550  0.83550  Biso   1.000  H
  C110     1.0000 0.18570  0.72950  0.68970  Biso   1.000  C
  C111     1.0000 0.07800  0.56040  0.45010  Biso   1.000  C
  C112     1.0000 0.08180  0.54400  0.38020  Biso   1.000  C
  H82      1.0000 0.11000  0.51520  0.36620  Biso   1.000  H
  C113     1.0000 0.04350  0.56760  0.33110  Biso   1.000  C
  H83      1.0000 0.97190  0.62020  0.32030  Biso   1.000  H
  H84      1.0000 0.97180  0.65410  0.43610  Biso   1.000  H
  C114     1.0000 0.04460  0.54760  0.25570  Biso   1.000  C
  F37      1.0000 0.29630  0.36890  0.36800  Biso   1.000  F
  F38      1.0000 0.36110  0.38250  0.29100  Biso   1.000  F
  F39      1.0000 0.38520  0.35800  0.39330  Biso   1.000  F
  O19      1.0000 0.44120  0.15810  0.43030  Biso   1.000  O
  O20      1.0000 0.39360  0.08800  0.37250  Biso   1.000  O
  N7       1.0000 0.28420  0.04400  0.02920  Biso   1.000  N
  H85      1.0000 0.24810  0.03850  0.04680  Biso   1.000  H
  H86      1.0000 0.28900  0.05020  0.98290  Biso   1.000  H
  C115     1.0000 0.30850  0.26610  0.26670  Biso   1.000  C
  C116     1.0000 0.34270  0.28410  0.32330  Biso   1.000  C
  C117     1.0000 0.37410  0.24310  0.36190  Biso   1.000  C
  H87      1.0000 0.39720  0.25560  0.40060  Biso   1.000  H
  C118     1.0000 0.37220  0.18490  0.34480  Biso   1.000  C
  C119     1.0000 0.33840  0.16570  0.28900  Biso   1.000  C
  H88      1.0000 0.33690  0.12530  0.27730  Biso   1.000  H
  C120     1.0000 0.30670  0.20670  0.25010  Biso   1.000  C
  H89      1.0000 0.28350  0.19390  0.21170  Biso   1.000  H
  C121     1.0000 0.34590  0.34720  0.34300  Biso   1.000  C
  C122     1.0000 0.40480  0.14070  0.38560  Biso   1.000  C
  C123     1.0000 0.39990  0.03580  0.97160  Biso   1.000  C
  C124     1.0000 0.38750  0.02740  0.04800  Biso   1.000  C
  C125     1.0000 0.33180  0.03460  0.07460  Biso   1.000  C
  C126     1.0000 0.32140  0.02540  0.14580  Biso   1.000  C
  H90      1.0000 0.28300  0.02720  0.16590  Biso   1.000  H
  C127     1.0000 0.36670  0.00910  0.18990  Biso   1.000  C
  H91      1.0000 0.45520  0.99460  0.19200  Biso   1.000  H
  C128     1.0000 0.43320  0.01160  0.09250  Biso   1.000  C
  H92      1.0000 0.47170  0.00990  0.07250  Biso   1.000  H
  F40      1.0000 0.28300  0.21210  0.12950  Biso   1.000  F
  F41      1.0000 0.27810  0.12840  0.17730  Biso   1.000  F
  F42      1.0000 0.21330  0.19230  0.19950  Biso   1.000  F
  O21      1.0000 0.47880  0.08970  0.73650  Biso   1.000  O
  H93      1.0000 0.45200  0.11440  0.04530  Biso   1.000  H
  H94      1.0000 0.48710  0.14380  0.98710  Biso   1.000  H
  H95      1.0000 0.34450  0.32440  0.33550  Biso   1.000  H
  C129     1.0000 0.27050  0.18570  0.18970  Biso   1.000  C
  C130     1.0000 0.43960  0.07800  0.95010  Biso   1.000  C
  C131     1.0000 0.45600  0.08180  0.88020  Biso   1.000  C
  H96      1.0000 0.48480  0.11000  0.86620  Biso   1.000  H
  C132     1.0000 0.43240  0.04350  0.83110  Biso   1.000  C
  H97      1.0000 0.37980  0.97190  0.82030  Biso   1.000  H
  H98      1.0000 0.34590  0.97180  0.93610  Biso   1.000  H
  C133     1.0000 0.45240  0.04460  0.75570  Biso   1.000  C
  F43      1.0000 0.70370  0.63110  0.36800  Biso   1.000  F
  F44      1.0000 0.63890  0.61750  0.29100  Biso   1.000  F
  F45      1.0000 0.61480  0.64200  0.39330  Biso   1.000  F
  O22      1.0000 0.55880  0.84190  0.43030  Biso   1.000  O
  O23      1.0000 0.60640  0.91200  0.37250  Biso   1.000  O
  N8       1.0000 0.71580  0.95600  0.02920  Biso   1.000  N
  H99      1.0000 0.75190  0.96150  0.04680  Biso   1.000  H
  H100     1.0000 0.71100  0.94980  0.98290  Biso   1.000  H
  C134     1.0000 0.69150  0.73390  0.26670  Biso   1.000  C
  C135     1.0000 0.65730  0.71590  0.32330  Biso   1.000  C
  C136     1.0000 0.62590  0.75690  0.36190  Biso   1.000  C
  H101     1.0000 0.60280  0.74440  0.40060  Biso   1.000  H
  C137     1.0000 0.62780  0.81510  0.34480  Biso   1.000  C
  C138     1.0000 0.66160  0.83430  0.28900  Biso   1.000  C
  H102     1.0000 0.66310  0.87470  0.27730  Biso   1.000  H
  C139     1.0000 0.69330  0.79330  0.25010  Biso   1.000  C
  H103     1.0000 0.71650  0.80610  0.21170  Biso   1.000  H
  C140     1.0000 0.65410  0.65280  0.34300  Biso   1.000  C
  C141     1.0000 0.59520  0.85930  0.38560  Biso   1.000  C
  C142     1.0000 0.60010  0.96420  0.97160  Biso   1.000  C
  C143     1.0000 0.61250  0.97260  0.04800  Biso   1.000  C
  C144     1.0000 0.66820  0.96540  0.07460  Biso   1.000  C
  C145     1.0000 0.67860  0.97460  0.14580  Biso   1.000  C
  H104     1.0000 0.71700  0.97280  0.16590  Biso   1.000  H
  C146     1.0000 0.63330  0.99090  0.18990  Biso   1.000  C
  H105     1.0000 0.54480  0.00540  0.19200  Biso   1.000  H
  C147     1.0000 0.56680  0.98840  0.09250  Biso   1.000  C
  H106     1.0000 0.52830  0.99010  0.07250  Biso   1.000  H
  F46      1.0000 0.71700  0.78790  0.12950  Biso   1.000  F
  F47      1.0000 0.72190  0.87160  0.17730  Biso   1.000  F
  F48      1.0000 0.78670  0.80770  0.19950  Biso   1.000  F
  O24      1.0000 0.52120  0.91030  0.73650  Biso   1.000  O
  H107     1.0000 0.54800  0.88560  0.04530  Biso   1.000  H
  H108     1.0000 0.51290  0.85620  0.98710  Biso   1.000  H
  H109     1.0000 0.65550  0.67560  0.33550  Biso   1.000  H
  C148     1.0000 0.72950  0.81430  0.18970  Biso   1.000  C
  C149     1.0000 0.56040  0.92200  0.95010  Biso   1.000  C
  C150     1.0000 0.54400  0.91820  0.88020  Biso   1.000  C
  H110     1.0000 0.51520  0.89000  0.86620  Biso   1.000  H
  C151     1.0000 0.56760  0.95650  0.83110  Biso   1.000  C
  H111     1.0000 0.62020  0.02810  0.82030  Biso   1.000  H
  H112     1.0000 0.65410  0.02820  0.93610  Biso   1.000  H
  C152     1.0000 0.54760  0.95540  0.75570  Biso   1.000  C
  F49      1.0000 0.63110  0.70370  0.86800  Biso   1.000  F
  F50      1.0000 0.61750  0.63890  0.79100  Biso   1.000  F
  F51      1.0000 0.64200  0.61480  0.89330  Biso   1.000  F
  O25      1.0000 0.84190  0.55880  0.93030  Biso   1.000  O
  O26      1.0000 0.91200  0.60640  0.87250  Biso   1.000  O
  N9       1.0000 0.95600  0.71580  0.52920  Biso   1.000  N
  H113     1.0000 0.96150  0.75190  0.54680  Biso   1.000  H
  H114     1.0000 0.94980  0.71100  0.48290  Biso   1.000  H
  C153     1.0000 0.73390  0.69150  0.76670  Biso   1.000  C
  C154     1.0000 0.71590  0.65730  0.82330  Biso   1.000  C
  C155     1.0000 0.75690  0.62590  0.86190  Biso   1.000  C
  H115     1.0000 0.74440  0.60280  0.90060  Biso   1.000  H
  C156     1.0000 0.81510  0.62780  0.84480  Biso   1.000  C
  C157     1.0000 0.83430  0.66160  0.78900  Biso   1.000  C
  H116     1.0000 0.87470  0.66310  0.77730  Biso   1.000  H
  C158     1.0000 0.79330  0.69330  0.75010  Biso   1.000  C
  H117     1.0000 0.80610  0.71650  0.71170  Biso   1.000  H
  C159     1.0000 0.65280  0.65410  0.84300  Biso   1.000  C
  C160     1.0000 0.85930  0.59520  0.88560  Biso   1.000  C
  C161     1.0000 0.96420  0.60010  0.47160  Biso   1.000  C
  C162     1.0000 0.97260  0.61250  0.54800  Biso   1.000  C
  C163     1.0000 0.96540  0.66820  0.57460  Biso   1.000  C
  C164     1.0000 0.97460  0.67860  0.64580  Biso   1.000  C
  H118     1.0000 0.97280  0.71700  0.66590  Biso   1.000  H
  C165     1.0000 0.99090  0.63330  0.68990  Biso   1.000  C
  H119     1.0000 0.00540  0.54480  0.69200  Biso   1.000  H
  C166     1.0000 0.98840  0.56680  0.59250  Biso   1.000  C
  H120     1.0000 0.99010  0.52830  0.57250  Biso   1.000  H
  F52      1.0000 0.78790  0.71700  0.62950  Biso   1.000  F
  F53      1.0000 0.87160  0.72190  0.67730  Biso   1.000  F
  F54      1.0000 0.80770  0.78670  0.69950  Biso   1.000  F
  O27      1.0000 0.91030  0.52120  0.23650  Biso   1.000  O
  H121     1.0000 0.88560  0.54800  0.54530  Biso   1.000  H
  H122     1.0000 0.85620  0.51290  0.48710  Biso   1.000  H
  H123     1.0000 0.67560  0.65550  0.83550  Biso   1.000  H
  C167     1.0000 0.81430  0.72950  0.68970  Biso   1.000  C
  C168     1.0000 0.92200  0.56040  0.45010  Biso   1.000  C
  C169     1.0000 0.91820  0.54400  0.38020  Biso   1.000  C
  H124     1.0000 0.89000  0.51520  0.36620  Biso   1.000  H
  C170     1.0000 0.95650  0.56760  0.33110  Biso   1.000  C
  H125     1.0000 0.02810  0.62020  0.32030  Biso   1.000  H
  H126     1.0000 0.02820  0.65410  0.43610  Biso   1.000  H
  C171     1.0000 0.95540  0.54760  0.25570  Biso   1.000  C
  F55      1.0000 0.36890  0.29630  0.86800  Biso   1.000  F
  F56      1.0000 0.38250  0.36110  0.79100  Biso   1.000  F
  F57      1.0000 0.35800  0.38520  0.89330  Biso   1.000  F
  O28      1.0000 0.15810  0.44120  0.93030  Biso   1.000  O
  O29      1.0000 0.08800  0.39360  0.87250  Biso   1.000  O
  N10      1.0000 0.04400  0.28420  0.52920  Biso   1.000  N
  H127     1.0000 0.03850  0.24810  0.54680  Biso   1.000  H
  H128     1.0000 0.05020  0.28900  0.48290  Biso   1.000  H
  C172     1.0000 0.26610  0.30850  0.76670  Biso   1.000  C
  C173     1.0000 0.28410  0.34270  0.82330  Biso   1.000  C
  C174     1.0000 0.24310  0.37410  0.86190  Biso   1.000  C
  H129     1.0000 0.25560  0.39720  0.90060  Biso   1.000  H
  C175     1.0000 0.18490  0.37220  0.84480  Biso   1.000  C
  C176     1.0000 0.16570  0.33840  0.78900  Biso   1.000  C
  H130     1.0000 0.12530  0.33690  0.77730  Biso   1.000  H
  C177     1.0000 0.20670  0.30670  0.75010  Biso   1.000  C
  H131     1.0000 0.19390  0.28350  0.71170  Biso   1.000  H
  C178     1.0000 0.34720  0.34590  0.84300  Biso   1.000  C
  C179     1.0000 0.14070  0.40480  0.88560  Biso   1.000  C
  C180     1.0000 0.03580  0.39990  0.47160  Biso   1.000  C
  C181     1.0000 0.02740  0.38750  0.54800  Biso   1.000  C
  C182     1.0000 0.03460  0.33180  0.57460  Biso   1.000  C
  C183     1.0000 0.02540  0.32140  0.64580  Biso   1.000  C
  H132     1.0000 0.02720  0.28300  0.66590  Biso   1.000  H
  C184     1.0000 0.00910  0.36670  0.68990  Biso   1.000  C
  H133     1.0000 0.99460  0.45520  0.69200  Biso   1.000  H
  C185     1.0000 0.01160  0.43320  0.59250  Biso   1.000  C
  H134     1.0000 0.00990  0.47170  0.57250  Biso   1.000  H
  F58      1.0000 0.21210  0.28300  0.62950  Biso   1.000  F
  F59      1.0000 0.12840  0.27810  0.67730  Biso   1.000  F
  F60      1.0000 0.19230  0.21330  0.69950  Biso   1.000  F
  O30      1.0000 0.08970  0.47880  0.23650  Biso   1.000  O
  H135     1.0000 0.11440  0.45200  0.54530  Biso   1.000  H
  H136     1.0000 0.14380  0.48710  0.48710  Biso   1.000  H
  H137     1.0000 0.32440  0.34450  0.83550  Biso   1.000  H
  C186     1.0000 0.18570  0.27050  0.68970  Biso   1.000  C
  C187     1.0000 0.07800  0.43960  0.45010  Biso   1.000  C
  C188     1.0000 0.08180  0.45600  0.38020  Biso   1.000  C
  H138     1.0000 0.11000  0.48480  0.36620  Biso   1.000  H
  C189     1.0000 0.04350  0.43240  0.33110  Biso   1.000  C
  H139     1.0000 0.97190  0.37980  0.32030  Biso   1.000  H
  H140     1.0000 0.97180  0.34590  0.43610  Biso   1.000  H
  C190     1.0000 0.04460  0.45240  0.25570  Biso   1.000  C
  F61      1.0000 0.29630  0.63110  0.36800  Biso   1.000  F
  F62      1.0000 0.36110  0.61750  0.29100  Biso   1.000  F
  F63      1.0000 0.38520  0.64200  0.39330  Biso   1.000  F
  O31      1.0000 0.44120  0.84190  0.43030  Biso   1.000  O
  O32      1.0000 0.39360  0.91200  0.37250  Biso   1.000  O
  N11      1.0000 0.28420  0.95600  0.02920  Biso   1.000  N
  H141     1.0000 0.24810  0.96150  0.04680  Biso   1.000  H
  H142     1.0000 0.28900  0.94980  0.98290  Biso   1.000  H
  C191     1.0000 0.30850  0.73390  0.26670  Biso   1.000  C
  C192     1.0000 0.34270  0.71590  0.32330  Biso   1.000  C
  C193     1.0000 0.37410  0.75690  0.36190  Biso   1.000  C
  H143     1.0000 0.39720  0.74440  0.40060  Biso   1.000  H
  C194     1.0000 0.37220  0.81510  0.34480  Biso   1.000  C
  C195     1.0000 0.33840  0.83430  0.28900  Biso   1.000  C
  H144     1.0000 0.33690  0.87470  0.27730  Biso   1.000  H
  C196     1.0000 0.30670  0.79330  0.25010  Biso   1.000  C
  H145     1.0000 0.28350  0.80610  0.21170  Biso   1.000  H
  C197     1.0000 0.34590  0.65280  0.34300  Biso   1.000  C
  C198     1.0000 0.40480  0.85930  0.38560  Biso   1.000  C
  C199     1.0000 0.39990  0.96420  0.97160  Biso   1.000  C
  C200     1.0000 0.38750  0.97260  0.04800  Biso   1.000  C
  C201     1.0000 0.33180  0.96540  0.07460  Biso   1.000  C
  C202     1.0000 0.32140  0.97460  0.14580  Biso   1.000  C
  H146     1.0000 0.28300  0.97280  0.16590  Biso   1.000  H
  C203     1.0000 0.36670  0.99090  0.18990  Biso   1.000  C
  H147     1.0000 0.45520  0.00540  0.19200  Biso   1.000  H
  C204     1.0000 0.43320  0.98840  0.09250  Biso   1.000  C
  H148     1.0000 0.47170  0.99010  0.07250  Biso   1.000  H
  F64      1.0000 0.28300  0.78790  0.12950  Biso   1.000  F
  F65      1.0000 0.27810  0.87160  0.17730  Biso   1.000  F
  F66      1.0000 0.21330  0.80770  0.19950  Biso   1.000  F
  O33      1.0000 0.47880  0.91030  0.73650  Biso   1.000  O
  H149     1.0000 0.45200  0.88560  0.04530  Biso   1.000  H
  H150     1.0000 0.48710  0.85620  0.98710  Biso   1.000  H
  H151     1.0000 0.34450  0.67560  0.33550  Biso   1.000  H
  C205     1.0000 0.27050  0.81430  0.18970  Biso   1.000  C
  C206     1.0000 0.43960  0.92200  0.95010  Biso   1.000  C
  C207     1.0000 0.45600  0.91820  0.88020  Biso   1.000  C
  H152     1.0000 0.48480  0.89000  0.86620  Biso   1.000  H
  C208     1.0000 0.43240  0.95650  0.83110  Biso   1.000  C
  H153     1.0000 0.37980  0.02810  0.82030  Biso   1.000  H
  H154     1.0000 0.34590  0.02820  0.93610  Biso   1.000  H
  C209     1.0000 0.45240  0.95540  0.75570  Biso   1.000  C
  F67      1.0000 0.70370  0.36890  0.36800  Biso   1.000  F
  F68      1.0000 0.63890  0.38250  0.29100  Biso   1.000  F
  F69      1.0000 0.61480  0.35800  0.39330  Biso   1.000  F
  O34      1.0000 0.55880  0.15810  0.43030  Biso   1.000  O
  O35      1.0000 0.60640  0.08800  0.37250  Biso   1.000  O
  N12      1.0000 0.71580  0.04400  0.02920  Biso   1.000  N
  H155     1.0000 0.75190  0.03850  0.04680  Biso   1.000  H
  H156     1.0000 0.71100  0.05020  0.98290  Biso   1.000  H
  C210     1.0000 0.69150  0.26610  0.26670  Biso   1.000  C
  C211     1.0000 0.65730  0.28410  0.32330  Biso   1.000  C
  C212     1.0000 0.62590  0.24310  0.36190  Biso   1.000  C
  H157     1.0000 0.60280  0.25560  0.40060  Biso   1.000  H
  C213     1.0000 0.62780  0.18490  0.34480  Biso   1.000  C
  C214     1.0000 0.66160  0.16570  0.28900  Biso   1.000  C
  H158     1.0000 0.66310  0.12530  0.27730  Biso   1.000  H
  C215     1.0000 0.69330  0.20670  0.25010  Biso   1.000  C
  H159     1.0000 0.71650  0.19390  0.21170  Biso   1.000  H
  C216     1.0000 0.65410  0.34720  0.34300  Biso   1.000  C
  C217     1.0000 0.59520  0.14070  0.38560  Biso   1.000  C
  C218     1.0000 0.60010  0.03580  0.97160  Biso   1.000  C
  C219     1.0000 0.61250  0.02740  0.04800  Biso   1.000  C
  C220     1.0000 0.66820  0.03460  0.07460  Biso   1.000  C
  C221     1.0000 0.67860  0.02540  0.14580  Biso   1.000  C
  H160     1.0000 0.71700  0.02720  0.16590  Biso   1.000  H
  C222     1.0000 0.63330  0.00910  0.18990  Biso   1.000  C
  H161     1.0000 0.54480  0.99460  0.19200  Biso   1.000  H
  C223     1.0000 0.56680  0.01160  0.09250  Biso   1.000  C
  H162     1.0000 0.52830  0.00990  0.07250  Biso   1.000  H
  F70      1.0000 0.71700  0.21210  0.12950  Biso   1.000  F
  F71      1.0000 0.72190  0.12840  0.17730  Biso   1.000  F
  F72      1.0000 0.78670  0.19230  0.19950  Biso   1.000  F
  O36      1.0000 0.52120  0.08970  0.73650  Biso   1.000  O
  H163     1.0000 0.54800  0.11440  0.04530  Biso   1.000  H
  H164     1.0000 0.51290  0.14380  0.98710  Biso   1.000  H
  H165     1.0000 0.65550  0.32440  0.33550  Biso   1.000  H
  C224     1.0000 0.72950  0.18570  0.18970  Biso   1.000  C
  C225     1.0000 0.56040  0.07800  0.95010  Biso   1.000  C
  C226     1.0000 0.54400  0.08180  0.88020  Biso   1.000  C
  H166     1.0000 0.51520  0.11000  0.86620  Biso   1.000  H
  C227     1.0000 0.56760  0.04350  0.83110  Biso   1.000  C
  H167     1.0000 0.62020  0.97190  0.82030  Biso   1.000  H
  H168     1.0000 0.65410  0.97180  0.93610  Biso   1.000  H
  C228     1.0000 0.54760  0.04460  0.75570  Biso   1.000  C
  F73      1.0000 0.36890  0.70370  0.13200  Biso   1.000  F
  F74      1.0000 0.38250  0.63890  0.20900  Biso   1.000  F
  F75      1.0000 0.35800  0.61480  0.10670  Biso   1.000  F
  O37      1.0000 0.15810  0.55880  0.06970  Biso   1.000  O
  O38      1.0000 0.08800  0.60640  0.12750  Biso   1.000  O
  N13      1.0000 0.04400  0.71580  0.47080  Biso   1.000  N
  H169     1.0000 0.03850  0.75190  0.45320  Biso   1.000  H
  H170     1.0000 0.05020  0.71100  0.51710  Biso   1.000  H
  C229     1.0000 0.26610  0.69150  0.23330  Biso   1.000  C
  C230     1.0000 0.28410  0.65730  0.17670  Biso   1.000  C
  C231     1.0000 0.24310  0.62590  0.13810  Biso   1.000  C
  H171     1.0000 0.25560  0.60280  0.09940  Biso   1.000  H
  C232     1.0000 0.18490  0.62780  0.15520  Biso   1.000  C
  C233     1.0000 0.16570  0.66160  0.21100  Biso   1.000  C
  H172     1.0000 0.12530  0.66310  0.22270  Biso   1.000  H
  C234     1.0000 0.20670  0.69330  0.24990  Biso   1.000  C
  H173     1.0000 0.19390  0.71650  0.28830  Biso   1.000  H
  C235     1.0000 0.34720  0.65410  0.15700  Biso   1.000  C
  C236     1.0000 0.14070  0.59520  0.11440  Biso   1.000  C
  C237     1.0000 0.03580  0.60010  0.52840  Biso   1.000  C
  C238     1.0000 0.02740  0.61250  0.45200  Biso   1.000  C
  C239     1.0000 0.03460  0.66820  0.42540  Biso   1.000  C
  C240     1.0000 0.02540  0.67860  0.35420  Biso   1.000  C
  H174     1.0000 0.02720  0.71700  0.33410  Biso   1.000  H
  C241     1.0000 0.00910  0.63330  0.31010  Biso   1.000  C
  H175     1.0000 0.99460  0.54480  0.30800  Biso   1.000  H
  C242     1.0000 0.01160  0.56680  0.40750  Biso   1.000  C
  H176     1.0000 0.00990  0.52830  0.42750  Biso   1.000  H
  F76      1.0000 0.21210  0.71700  0.37050  Biso   1.000  F
  F77      1.0000 0.12840  0.72190  0.32270  Biso   1.000  F
  F78      1.0000 0.19230  0.78670  0.30050  Biso   1.000  F
  O39      1.0000 0.08970  0.52120  0.76350  Biso   1.000  O
  H177     1.0000 0.11440  0.54800  0.45470  Biso   1.000  H
  H178     1.0000 0.14380  0.51290  0.51290  Biso   1.000  H
  H179     1.0000 0.32440  0.65550  0.16450  Biso   1.000  H
  C243     1.0000 0.18570  0.72950  0.31030  Biso   1.000  C
  C244     1.0000 0.07800  0.56040  0.54990  Biso   1.000  C
  C245     1.0000 0.08180  0.54400  0.61980  Biso   1.000  C
  H180     1.0000 0.11000  0.51520  0.63380  Biso   1.000  H
  C246     1.0000 0.04350  0.56760  0.66890  Biso   1.000  C
  H181     1.0000 0.97190  0.62020  0.67970  Biso   1.000  H
  H182     1.0000 0.97180  0.65410  0.56390  Biso   1.000  H
  C247     1.0000 0.04460  0.54760  0.74430  Biso   1.000  C
  F79      1.0000 0.63110  0.29630  0.13200  Biso   1.000  F
  F80      1.0000 0.61750  0.36110  0.20900  Biso   1.000  F
  F81      1.0000 0.64200  0.38520  0.10670  Biso   1.000  F
  O40      1.0000 0.84190  0.44120  0.06970  Biso   1.000  O
  O41      1.0000 0.91200  0.39360  0.12750  Biso   1.000  O
  N14      1.0000 0.95600  0.28420  0.47080  Biso   1.000  N
  H183     1.0000 0.96150  0.24810  0.45320  Biso   1.000  H
  H184     1.0000 0.94980  0.28900  0.51710  Biso   1.000  H
  C248     1.0000 0.73390  0.30850  0.23330  Biso   1.000  C
  C249     1.0000 0.71590  0.34270  0.17670  Biso   1.000  C
  C250     1.0000 0.75690  0.37410  0.13810  Biso   1.000  C
  H185     1.0000 0.74440  0.39720  0.09940  Biso   1.000  H
  C251     1.0000 0.81510  0.37220  0.15520  Biso   1.000  C
  C252     1.0000 0.83430  0.33840  0.21100  Biso   1.000  C
  H186     1.0000 0.87470  0.33690  0.22270  Biso   1.000  H
  C253     1.0000 0.79330  0.30670  0.24990  Biso   1.000  C
  H187     1.0000 0.80610  0.28350  0.28830  Biso   1.000  H
  C254     1.0000 0.65280  0.34590  0.15700  Biso   1.000  C
  C255     1.0000 0.85930  0.40480  0.11440  Biso   1.000  C
  C256     1.0000 0.96420  0.39990  0.52840  Biso   1.000  C
  C257     1.0000 0.97260  0.38750  0.45200  Biso   1.000  C
  C258     1.0000 0.96540  0.33180  0.42540  Biso   1.000  C
  C259     1.0000 0.97460  0.32140  0.35420  Biso   1.000  C
  H188     1.0000 0.97280  0.28300  0.33410  Biso   1.000  H
  C260     1.0000 0.99090  0.36670  0.31010  Biso   1.000  C
  H189     1.0000 0.00540  0.45520  0.30800  Biso   1.000  H
  C261     1.0000 0.98840  0.43320  0.40750  Biso   1.000  C
  H190     1.0000 0.99010  0.47170  0.42750  Biso   1.000  H
  F82      1.0000 0.78790  0.28300  0.37050  Biso   1.000  F
  F83      1.0000 0.87160  0.27810  0.32270  Biso   1.000  F
  F84      1.0000 0.80770  0.21330  0.30050  Biso   1.000  F
  O42      1.0000 0.91030  0.47880  0.76350  Biso   1.000  O
  H191     1.0000 0.88560  0.45200  0.45470  Biso   1.000  H
  H192     1.0000 0.85620  0.48710  0.51290  Biso   1.000  H
  H193     1.0000 0.67560  0.34450  0.16450  Biso   1.000  H
  C262     1.0000 0.81430  0.27050  0.31030  Biso   1.000  C
  C263     1.0000 0.92200  0.43960  0.54990  Biso   1.000  C
  C264     1.0000 0.91820  0.45600  0.61980  Biso   1.000  C
  H194     1.0000 0.89000  0.48480  0.63380  Biso   1.000  H
  C265     1.0000 0.95650  0.43240  0.66890  Biso   1.000  C
  H195     1.0000 0.02810  0.37980  0.67970  Biso   1.000  H
  H196     1.0000 0.02820  0.34590  0.56390  Biso   1.000  H
  C266     1.0000 0.95540  0.45240  0.74430  Biso   1.000  C
  F85      1.0000 0.70370  0.63110  0.63200  Biso   1.000  F
  F86      1.0000 0.63890  0.61750  0.70900  Biso   1.000  F
  F87      1.0000 0.61480  0.64200  0.60670  Biso   1.000  F
  O43      1.0000 0.55880  0.84190  0.56970  Biso   1.000  O
  O44      1.0000 0.60640  0.91200  0.62750  Biso   1.000  O
  N15      1.0000 0.71580  0.95600  0.97080  Biso   1.000  N
  H197     1.0000 0.75190  0.96150  0.95320  Biso   1.000  H
  H198     1.0000 0.71100  0.94980  0.01710  Biso   1.000  H
  C267     1.0000 0.69150  0.73390  0.73330  Biso   1.000  C
  C268     1.0000 0.65730  0.71590  0.67670  Biso   1.000  C
  C269     1.0000 0.62590  0.75690  0.63810  Biso   1.000  C
  H199     1.0000 0.60280  0.74440  0.59940  Biso   1.000  H
  C270     1.0000 0.62780  0.81510  0.65520  Biso   1.000  C
  C271     1.0000 0.66160  0.83430  0.71100  Biso   1.000  C
  H200     1.0000 0.66310  0.87470  0.72270  Biso   1.000  H
  C272     1.0000 0.69330  0.79330  0.74990  Biso   1.000  C
  H201     1.0000 0.71650  0.80610  0.78830  Biso   1.000  H
  C273     1.0000 0.65410  0.65280  0.65700  Biso   1.000  C
  C274     1.0000 0.59520  0.85930  0.61440  Biso   1.000  C
  C275     1.0000 0.60010  0.96420  0.02840  Biso   1.000  C
  C276     1.0000 0.61250  0.97260  0.95200  Biso   1.000  C
  C277     1.0000 0.66820  0.96540  0.92540  Biso   1.000  C
  C278     1.0000 0.67860  0.97460  0.85420  Biso   1.000  C
  H202     1.0000 0.71700  0.97280  0.83410  Biso   1.000  H
  C279     1.0000 0.63330  0.99090  0.81010  Biso   1.000  C
  H203     1.0000 0.54480  0.00540  0.80800  Biso   1.000  H
  C280     1.0000 0.56680  0.98840  0.90750  Biso   1.000  C
  H204     1.0000 0.52830  0.99010  0.92750  Biso   1.000  H
  F88      1.0000 0.71700  0.78790  0.87050  Biso   1.000  F
  F89      1.0000 0.72190  0.87160  0.82270  Biso   1.000  F
  F90      1.0000 0.78670  0.80770  0.80050  Biso   1.000  F
  O45      1.0000 0.52120  0.91030  0.26350  Biso   1.000  O
  H205     1.0000 0.54800  0.88560  0.95470  Biso   1.000  H
  H206     1.0000 0.51290  0.85620  0.01290  Biso   1.000  H
  H207     1.0000 0.65550  0.67560  0.66450  Biso   1.000  H
  C281     1.0000 0.72950  0.81430  0.81030  Biso   1.000  C
  C282     1.0000 0.56040  0.92200  0.04990  Biso   1.000  C
  C283     1.0000 0.54400  0.91820  0.11980  Biso   1.000  C
  H208     1.0000 0.51520  0.89000  0.13380  Biso   1.000  H
  C284     1.0000 0.56760  0.95650  0.16890  Biso   1.000  C
  H209     1.0000 0.62020  0.02810  0.17970  Biso   1.000  H
  H210     1.0000 0.65410  0.02820  0.06390  Biso   1.000  H
  C285     1.0000 0.54760  0.95540  0.24430  Biso   1.000  C
  F91      1.0000 0.29630  0.36890  0.63200  Biso   1.000  F
  F92      1.0000 0.36110  0.38250  0.70900  Biso   1.000  F
  F93      1.0000 0.38520  0.35800  0.60670  Biso   1.000  F
  O46      1.0000 0.44120  0.15810  0.56970  Biso   1.000  O
  O47      1.0000 0.39360  0.08800  0.62750  Biso   1.000  O
  N16      1.0000 0.28420  0.04400  0.97080  Biso   1.000  N
  H211     1.0000 0.24810  0.03850  0.95320  Biso   1.000  H
  H212     1.0000 0.28900  0.05020  0.01710  Biso   1.000  H
  C286     1.0000 0.30850  0.26610  0.73330  Biso   1.000  C
  C287     1.0000 0.34270  0.28410  0.67670  Biso   1.000  C
  C288     1.0000 0.37410  0.24310  0.63810  Biso   1.000  C
  H213     1.0000 0.39720  0.25560  0.59940  Biso   1.000  H
  C289     1.0000 0.37220  0.18490  0.65520  Biso   1.000  C
  C290     1.0000 0.33840  0.16570  0.71100  Biso   1.000  C
  H214     1.0000 0.33690  0.12530  0.72270  Biso   1.000  H
  C291     1.0000 0.30670  0.20670  0.74990  Biso   1.000  C
  H215     1.0000 0.28350  0.19390  0.78830  Biso   1.000  H
  C292     1.0000 0.34590  0.34720  0.65700  Biso   1.000  C
  C293     1.0000 0.40480  0.14070  0.61440  Biso   1.000  C
  C294     1.0000 0.39990  0.03580  0.02840  Biso   1.000  C
  C295     1.0000 0.38750  0.02740  0.95200  Biso   1.000  C
  C296     1.0000 0.33180  0.03460  0.92540  Biso   1.000  C
  C297     1.0000 0.32140  0.02540  0.85420  Biso   1.000  C
  H216     1.0000 0.28300  0.02720  0.83410  Biso   1.000  H
  C298     1.0000 0.36670  0.00910  0.81010  Biso   1.000  C
  H217     1.0000 0.45520  0.99460  0.80800  Biso   1.000  H
  C299     1.0000 0.43320  0.01160  0.90750  Biso   1.000  C
  H218     1.0000 0.47170  0.00990  0.92750  Biso   1.000  H
  F94      1.0000 0.28300  0.21210  0.87050  Biso   1.000  F
  F95      1.0000 0.27810  0.12840  0.82270  Biso   1.000  F
  F96      1.0000 0.21330  0.19230  0.80050  Biso   1.000  F
  O48      1.0000 0.47880  0.08970  0.26350  Biso   1.000  O
  H219     1.0000 0.45200  0.11440  0.95470  Biso   1.000  H
  H220     1.0000 0.48710  0.14380  0.01290  Biso   1.000  H
  H221     1.0000 0.34450  0.32440  0.66450  Biso   1.000  H
  C300     1.0000 0.27050  0.18570  0.81030  Biso   1.000  C
  C301     1.0000 0.43960  0.07800  0.04990  Biso   1.000  C
  C302     1.0000 0.45600  0.08180  0.11980  Biso   1.000  C
  H222     1.0000 0.48480  0.11000  0.13380  Biso   1.000  H
  C303     1.0000 0.43240  0.04350  0.16890  Biso   1.000  C
  H223     1.0000 0.37980  0.97190  0.17970  Biso   1.000  H
  H224     1.0000 0.34590  0.97180  0.06390  Biso   1.000  H
  C304     1.0000 0.45240  0.04460  0.24430  Biso   1.000  C
  Zr1      1.0000 0.10741  0.50000  0.00000  Biso   1.000  Zr
  Zr2      1.0000 0.89259  0.50000  0.00000  Biso   1.000  Zr
  Zr3      1.0000 0.50000  0.10741  0.50000  Biso   1.000  Zr
  Zr4      1.0000 0.50000  0.89259  0.50000  Biso   1.000  Zr
  Zr5      1.0000 0.00000  0.42335  0.09233  Biso   1.000  Zr
  O49      1.0000 0.00000  0.40200  0.19690  Biso   1.000  O
  O50      1.0000 0.00000  0.30580  0.20710  Biso   1.000  O
  C305     1.0000 0.00000  0.42230  0.33760  Biso   1.000  C
  C306     1.0000 0.00000  0.35600  0.23280  Biso   1.000  C
  C307     1.0000 0.00000  0.39410  0.64650  Biso   1.000  C
  C308     1.0000 0.00000  0.37470  0.57790  Biso   1.000  C
  O51      1.0000 0.00000  0.44100  0.78180  Biso   1.000  O
  Zr6      1.0000 0.00000  0.57665  0.09233  Biso   1.000  Zr
  O52      1.0000 0.00000  0.59800  0.19690  Biso   1.000  O
  O53      1.0000 0.00000  0.69420  0.20710  Biso   1.000  O
  C309     1.0000 0.00000  0.57770  0.33760  Biso   1.000  C
  C310     1.0000 0.00000  0.64400  0.23280  Biso   1.000  C
  C311     1.0000 0.00000  0.60590  0.64650  Biso   1.000  C
  C312     1.0000 0.00000  0.62530  0.57790  Biso   1.000  C
  O54      1.0000 0.00000  0.55900  0.78180  Biso   1.000  O
  Zr7      1.0000 0.57665  0.00000  0.59233  Biso   1.000  Zr
  O55      1.0000 0.59800  0.00000  0.69690  Biso   1.000  O
  O56      1.0000 0.69420  0.00000  0.70710  Biso   1.000  O
  C313     1.0000 0.57770  0.00000  0.83760  Biso   1.000  C
  C314     1.0000 0.64400  0.00000  0.73280  Biso   1.000  C
  C315     1.0000 0.60590  0.00000  0.14650  Biso   1.000  C
  C316     1.0000 0.62530  0.00000  0.07790  Biso   1.000  C
  O57      1.0000 0.55900  0.00000  0.28180  Biso   1.000  O
  Zr8      1.0000 0.42335  0.00000  0.59233  Biso   1.000  Zr
  O58      1.0000 0.40200  0.00000  0.69690  Biso   1.000  O
  O59      1.0000 0.30580  0.00000  0.70710  Biso   1.000  O
  C317     1.0000 0.42230  0.00000  0.83760  Biso   1.000  C
  C318     1.0000 0.35600  0.00000  0.73280  Biso   1.000  C
  C319     1.0000 0.39410  0.00000  0.14650  Biso   1.000  C
  C320     1.0000 0.37470  0.00000  0.07790  Biso   1.000  C
  O60      1.0000 0.44100  0.00000  0.28180  Biso   1.000  O
  Zr9      1.0000 0.00000  0.42335  0.90767  Biso   1.000  Zr
  O61      1.0000 0.00000  0.40200  0.80310  Biso   1.000  O
  O62      1.0000 0.00000  0.30580  0.79290  Biso   1.000  O
  C321     1.0000 0.00000  0.42230  0.66240  Biso   1.000  C
  C322     1.0000 0.00000  0.35600  0.76720  Biso   1.000  C
  C323     1.0000 0.00000  0.39410  0.35350  Biso   1.000  C
  C324     1.0000 0.00000  0.37470  0.42210  Biso   1.000  C
  O63      1.0000 0.00000  0.44100  0.21820  Biso   1.000  O
  Zr10     1.0000 0.00000  0.57665  0.90767  Biso   1.000  Zr
  O64      1.0000 0.00000  0.59800  0.80310  Biso   1.000  O
  O65      1.0000 0.00000  0.69420  0.79290  Biso   1.000  O
  C325     1.0000 0.00000  0.57770  0.66240  Biso   1.000  C
  C326     1.0000 0.00000  0.64400  0.76720  Biso   1.000  C
  C327     1.0000 0.00000  0.60590  0.35350  Biso   1.000  C
  C328     1.0000 0.00000  0.62530  0.42210  Biso   1.000  C
  O66      1.0000 0.00000  0.55900  0.21820  Biso   1.000  O
  Zr11     1.0000 0.42335  0.00000  0.40767  Biso   1.000  Zr
  O67      1.0000 0.40200  0.00000  0.30310  Biso   1.000  O
  O68      1.0000 0.30580  0.00000  0.29290  Biso   1.000  O
  C329     1.0000 0.42230  0.00000  0.16240  Biso   1.000  C
  C330     1.0000 0.35600  0.00000  0.26720  Biso   1.000  C
  C331     1.0000 0.39410  0.00000  0.85350  Biso   1.000  C
  C332     1.0000 0.37470  0.00000  0.92210  Biso   1.000  C
  O69      1.0000 0.44100  0.00000  0.71820  Biso   1.000  O
  Zr12     1.0000 0.57665  0.00000  0.40767  Biso   1.000  Zr
  O70      1.0000 0.59800  0.00000  0.30310  Biso   1.000  O
  O71      1.0000 0.69420  0.00000  0.29290  Biso   1.000  O
  C333     1.0000 0.57770  0.00000  0.16240  Biso   1.000  C
  C334     1.0000 0.64400  0.00000  0.26720  Biso   1.000  C
  C335     1.0000 0.60590  0.00000  0.85350  Biso   1.000  C
  C336     1.0000 0.62530  0.00000  0.92210  Biso   1.000  C
  O72      1.0000 0.55900  0.00000  0.71820  Biso   1.000  O
  O73      1.0000 0.05430  0.58080  0.00000  Biso   1.000  O
  O74      1.0000 0.94570  0.41920  0.00000  Biso   1.000  O
  O75      1.0000 0.41920  0.05430  0.50000  Biso   1.000  O
  O76      1.0000 0.58080  0.94570  0.50000  Biso   1.000  O
  O77      1.0000 0.94570  0.58080  0.00000  Biso   1.000  O
  O78      1.0000 0.05430  0.41920  0.00000  Biso   1.000  O
  O79      1.0000 0.58080  0.05430  0.50000  Biso   1.000  O
  O80      1.0000 0.41920  0.94570  0.50000  Biso   1.000  O
  O81      1.0000 0.05290  0.50000  0.09130  Biso   1.000  O
  O82      1.0000 0.94710  0.50000  0.09130  Biso   1.000  O
  O83      1.0000 0.50000  0.05290  0.59130  Biso   1.000  O
  O84      1.0000 0.50000  0.94710  0.59130  Biso   1.000  O
  O85      1.0000 0.94710  0.50000  0.90870  Biso   1.000  O
  O86      1.0000 0.05290  0.50000  0.90870  Biso   1.000  O
  O87      1.0000 0.50000  0.05290  0.40870  Biso   1.000  O
  O88      1.0000 0.50000  0.94710  0.40870  Biso   1.000  O
  N17      1.0000 0.11700  0.46300  0.50000  Biso   1.000  N
  N18      1.0000 0.88300  0.53700  0.50000  Biso   1.000  N
  N19      1.0000 0.53700  0.11700  0.00000  Biso   1.000  N
  N20      1.0000 0.46300  0.88300  0.00000  Biso   1.000  N
  N21      1.0000 0.88300  0.46300  0.50000  Biso   1.000  N
  N22      1.0000 0.11700  0.53700  0.50000  Biso   1.000  N
  N23      1.0000 0.46300  0.11700  0.00000  Biso   1.000  N
  N24      1.0000 0.53700  0.88300  0.00000  Biso   1.000  N
