data_image0
_cell_length_a       36.24
_cell_length_b       36.24
_cell_length_c       36.24
_cell_angle_alpha    90
_cell_angle_beta     90
_cell_angle_gamma    90

_symmetry_space_group_name_H-M    "P 1"
_symmetry_int_tables_number       1

loop_
  _symmetry_equiv_pos_as_xyz
  'x, y, z'

loop_
  _atom_site_label
  _atom_site_occupancy
  _atom_site_fract_x
  _atom_site_fract_y
  _atom_site_fract_z
  _atom_site_thermal_displace_type
  _atom_site_B_iso_or_equiv
  _atom_site_type_symbol
  C1       1.0000 0.21446  0.95047  0.14741  Biso   1.000  C
  C2       1.0000 0.23505  0.92005  0.12678  Biso   1.000  C
  C3       1.0000 0.26920  0.90938  0.13740  Biso   1.000  C
  H1       1.0000 0.28030  0.92120  0.15800  Biso   1.000  H
  O1       1.0000 0.22986  0.96180  0.17591  Biso   1.000  O
  O2       1.0000 0.18576  0.96223  0.13268  Biso   1.000  O
  H2       1.0000 0.24100  0.98500  0.26600  Biso   1.000  H
  C4       1.0000 0.21446  0.45047  0.64741  Biso   1.000  C
  C5       1.0000 0.23505  0.42005  0.62678  Biso   1.000  C
  C6       1.0000 0.26920  0.40938  0.63740  Biso   1.000  C
  H3       1.0000 0.28030  0.42120  0.65800  Biso   1.000  H
  O3       1.0000 0.22986  0.46180  0.67591  Biso   1.000  O
  O4       1.0000 0.18576  0.46223  0.63268  Biso   1.000  O
  H4       1.0000 0.24100  0.48500  0.76600  Biso   1.000  H
  C7       1.0000 0.71446  0.95047  0.64741  Biso   1.000  C
  C8       1.0000 0.73505  0.92005  0.62678  Biso   1.000  C
  C9       1.0000 0.76920  0.90938  0.63740  Biso   1.000  C
  H5       1.0000 0.78030  0.92120  0.65800  Biso   1.000  H
  O5       1.0000 0.72986  0.96180  0.67591  Biso   1.000  O
  O6       1.0000 0.68576  0.96223  0.63268  Biso   1.000  O
  H6       1.0000 0.74100  0.98500  0.76600  Biso   1.000  H
  C10      1.0000 0.71446  0.45047  0.14741  Biso   1.000  C
  C11      1.0000 0.73505  0.42005  0.12678  Biso   1.000  C
  C12      1.0000 0.76920  0.40938  0.13740  Biso   1.000  C
  H7       1.0000 0.78030  0.42120  0.15800  Biso   1.000  H
  O7       1.0000 0.72986  0.46180  0.17591  Biso   1.000  O
  O8       1.0000 0.68576  0.46223  0.13268  Biso   1.000  O
  H8       1.0000 0.74100  0.48500  0.26600  Biso   1.000  H
  C13      1.0000 0.78554  0.04953  0.14741  Biso   1.000  C
  C14      1.0000 0.76495  0.07995  0.12678  Biso   1.000  C
  C15      1.0000 0.73080  0.09062  0.13740  Biso   1.000  C
  H9       1.0000 0.71970  0.07880  0.15800  Biso   1.000  H
  O9       1.0000 0.77014  0.03820  0.17591  Biso   1.000  O
  O10      1.0000 0.81424  0.03777  0.13268  Biso   1.000  O
  H10      1.0000 0.75900  0.01500  0.26600  Biso   1.000  H
  C16      1.0000 0.78554  0.54953  0.64741  Biso   1.000  C
  C17      1.0000 0.76495  0.57995  0.62678  Biso   1.000  C
  C18      1.0000 0.73080  0.59062  0.63740  Biso   1.000  C
  H11      1.0000 0.71970  0.57880  0.65800  Biso   1.000  H
  O11      1.0000 0.77014  0.53820  0.67591  Biso   1.000  O
  O12      1.0000 0.81424  0.53777  0.63268  Biso   1.000  O
  H12      1.0000 0.75900  0.51500  0.76600  Biso   1.000  H
  C19      1.0000 0.28554  0.04953  0.64741  Biso   1.000  C
  C20      1.0000 0.26495  0.07995  0.62678  Biso   1.000  C
  C21      1.0000 0.23080  0.09062  0.63740  Biso   1.000  C
  H13      1.0000 0.21970  0.07880  0.65800  Biso   1.000  H
  O13      1.0000 0.27014  0.03820  0.67591  Biso   1.000  O
  O14      1.0000 0.31424  0.03777  0.63268  Biso   1.000  O
  H14      1.0000 0.25900  0.01500  0.76600  Biso   1.000  H
  C22      1.0000 0.28554  0.54953  0.14741  Biso   1.000  C
  C23      1.0000 0.26495  0.57995  0.12678  Biso   1.000  C
  C24      1.0000 0.23080  0.59062  0.13740  Biso   1.000  C
  H15      1.0000 0.21970  0.57880  0.15800  Biso   1.000  H
  O15      1.0000 0.27014  0.53820  0.17591  Biso   1.000  O
  O16      1.0000 0.31424  0.53777  0.13268  Biso   1.000  O
  H16      1.0000 0.25900  0.51500  0.26600  Biso   1.000  H
  C25      1.0000 0.78554  0.95047  0.85259  Biso   1.000  C
  C26      1.0000 0.76495  0.92005  0.87322  Biso   1.000  C
  C27      1.0000 0.73080  0.90938  0.86260  Biso   1.000  C
  H17      1.0000 0.71970  0.92120  0.84200  Biso   1.000  H
  O17      1.0000 0.77014  0.96180  0.82409  Biso   1.000  O
  O18      1.0000 0.81424  0.96223  0.86732  Biso   1.000  O
  H18      1.0000 0.75900  0.98500  0.73400  Biso   1.000  H
  C28      1.0000 0.78554  0.45047  0.35259  Biso   1.000  C
  C29      1.0000 0.76495  0.42005  0.37322  Biso   1.000  C
  C30      1.0000 0.73080  0.40938  0.36260  Biso   1.000  C
  H19      1.0000 0.71970  0.42120  0.34200  Biso   1.000  H
  O19      1.0000 0.77014  0.46180  0.32409  Biso   1.000  O
  O20      1.0000 0.81424  0.46223  0.36732  Biso   1.000  O
  H20      1.0000 0.75900  0.48500  0.23400  Biso   1.000  H
  C31      1.0000 0.28554  0.95047  0.35259  Biso   1.000  C
  C32      1.0000 0.26495  0.92005  0.37322  Biso   1.000  C
  C33      1.0000 0.23080  0.90938  0.36260  Biso   1.000  C
  H21      1.0000 0.21970  0.92120  0.34200  Biso   1.000  H
  O21      1.0000 0.27014  0.96180  0.32409  Biso   1.000  O
  O22      1.0000 0.31424  0.96223  0.36732  Biso   1.000  O
  H22      1.0000 0.25900  0.98500  0.23400  Biso   1.000  H
  C34      1.0000 0.28554  0.45047  0.85259  Biso   1.000  C
  C35      1.0000 0.26495  0.42005  0.87322  Biso   1.000  C
  C36      1.0000 0.23080  0.40938  0.86260  Biso   1.000  C
  H23      1.0000 0.21970  0.42120  0.84200  Biso   1.000  H
  O23      1.0000 0.27014  0.46180  0.82409  Biso   1.000  O
  O24      1.0000 0.31424  0.46223  0.86732  Biso   1.000  O
  H24      1.0000 0.25900  0.48500  0.73400  Biso   1.000  H
  C37      1.0000 0.21446  0.04953  0.85259  Biso   1.000  C
  C38      1.0000 0.23505  0.07995  0.87322  Biso   1.000  C
  C39      1.0000 0.26920  0.09062  0.86260  Biso   1.000  C
  H25      1.0000 0.28030  0.07880  0.84200  Biso   1.000  H
  O25      1.0000 0.22986  0.03820  0.82409  Biso   1.000  O
  O26      1.0000 0.18576  0.03777  0.86732  Biso   1.000  O
  H26      1.0000 0.24100  0.01500  0.73400  Biso   1.000  H
  C40      1.0000 0.21446  0.54953  0.35259  Biso   1.000  C
  C41      1.0000 0.23505  0.57995  0.37322  Biso   1.000  C
  C42      1.0000 0.26920  0.59062  0.36260  Biso   1.000  C
  H27      1.0000 0.28030  0.57880  0.34200  Biso   1.000  H
  O27      1.0000 0.22986  0.53820  0.32409  Biso   1.000  O
  O28      1.0000 0.18576  0.53777  0.36732  Biso   1.000  O
  H28      1.0000 0.24100  0.51500  0.23400  Biso   1.000  H
  C43      1.0000 0.71446  0.04953  0.35259  Biso   1.000  C
  C44      1.0000 0.73505  0.07995  0.37322  Biso   1.000  C
  C45      1.0000 0.76920  0.09062  0.36260  Biso   1.000  C
  H29      1.0000 0.78030  0.07880  0.34200  Biso   1.000  H
  O29      1.0000 0.72986  0.03820  0.32409  Biso   1.000  O
  O30      1.0000 0.68576  0.03777  0.36732  Biso   1.000  O
  H30      1.0000 0.74100  0.01500  0.23400  Biso   1.000  H
  C46      1.0000 0.71446  0.54953  0.85259  Biso   1.000  C
  C47      1.0000 0.73505  0.57995  0.87322  Biso   1.000  C
  C48      1.0000 0.76920  0.59062  0.86260  Biso   1.000  C
  H31      1.0000 0.78030  0.57880  0.84200  Biso   1.000  H
  O31      1.0000 0.72986  0.53820  0.82409  Biso   1.000  O
  O32      1.0000 0.68576  0.53777  0.86732  Biso   1.000  O
  H32      1.0000 0.74100  0.51500  0.73400  Biso   1.000  H
  C49      1.0000 0.14741  0.21446  0.95047  Biso   1.000  C
  C50      1.0000 0.12678  0.23505  0.92005  Biso   1.000  C
  C51      1.0000 0.13740  0.26920  0.90938  Biso   1.000  C
  H33      1.0000 0.15800  0.28030  0.92120  Biso   1.000  H
  O33      1.0000 0.17591  0.22986  0.96180  Biso   1.000  O
  O34      1.0000 0.13268  0.18576  0.96223  Biso   1.000  O
  H34      1.0000 0.26600  0.24100  0.98500  Biso   1.000  H
  C52      1.0000 0.14741  0.71446  0.45047  Biso   1.000  C
  C53      1.0000 0.12678  0.73505  0.42005  Biso   1.000  C
  C54      1.0000 0.13740  0.76920  0.40938  Biso   1.000  C
  H35      1.0000 0.15800  0.78030  0.42120  Biso   1.000  H
  O35      1.0000 0.17591  0.72986  0.46180  Biso   1.000  O
  O36      1.0000 0.13268  0.68576  0.46223  Biso   1.000  O
  H36      1.0000 0.26600  0.74100  0.48500  Biso   1.000  H
  C55      1.0000 0.64741  0.21446  0.45047  Biso   1.000  C
  C56      1.0000 0.62678  0.23505  0.42005  Biso   1.000  C
  C57      1.0000 0.63740  0.26920  0.40938  Biso   1.000  C
  H37      1.0000 0.65800  0.28030  0.42120  Biso   1.000  H
  O37      1.0000 0.67591  0.22986  0.46180  Biso   1.000  O
  O38      1.0000 0.63268  0.18576  0.46223  Biso   1.000  O
  H38      1.0000 0.76600  0.24100  0.48500  Biso   1.000  H
  C58      1.0000 0.64741  0.71446  0.95047  Biso   1.000  C
  C59      1.0000 0.62678  0.73505  0.92005  Biso   1.000  C
  C60      1.0000 0.63740  0.76920  0.90938  Biso   1.000  C
  H39      1.0000 0.65800  0.78030  0.92120  Biso   1.000  H
  O39      1.0000 0.67591  0.72986  0.96180  Biso   1.000  O
  O40      1.0000 0.63268  0.68576  0.96223  Biso   1.000  O
  H40      1.0000 0.76600  0.74100  0.98500  Biso   1.000  H
  C61      1.0000 0.14741  0.78554  0.04953  Biso   1.000  C
  C62      1.0000 0.12678  0.76495  0.07995  Biso   1.000  C
  C63      1.0000 0.13740  0.73080  0.09062  Biso   1.000  C
  H41      1.0000 0.15800  0.71970  0.07880  Biso   1.000  H
  O41      1.0000 0.17591  0.77014  0.03820  Biso   1.000  O
  O42      1.0000 0.13268  0.81424  0.03777  Biso   1.000  O
  H42      1.0000 0.26600  0.75900  0.01500  Biso   1.000  H
  C64      1.0000 0.14741  0.28554  0.54953  Biso   1.000  C
  C65      1.0000 0.12678  0.26495  0.57995  Biso   1.000  C
  C66      1.0000 0.13740  0.23080  0.59062  Biso   1.000  C
  H43      1.0000 0.15800  0.21970  0.57880  Biso   1.000  H
  O43      1.0000 0.17591  0.27014  0.53820  Biso   1.000  O
  O44      1.0000 0.13268  0.31424  0.53777  Biso   1.000  O
  H44      1.0000 0.26600  0.25900  0.51500  Biso   1.000  H
  C67      1.0000 0.64741  0.78554  0.54953  Biso   1.000  C
  C68      1.0000 0.62678  0.76495  0.57995  Biso   1.000  C
  C69      1.0000 0.63740  0.73080  0.59062  Biso   1.000  C
  H45      1.0000 0.65800  0.71970  0.57880  Biso   1.000  H
  O45      1.0000 0.67591  0.77014  0.53820  Biso   1.000  O
  O46      1.0000 0.63268  0.81424  0.53777  Biso   1.000  O
  H46      1.0000 0.76600  0.75900  0.51500  Biso   1.000  H
  C70      1.0000 0.64741  0.28554  0.04953  Biso   1.000  C
  C71      1.0000 0.62678  0.26495  0.07995  Biso   1.000  C
  C72      1.0000 0.63740  0.23080  0.09062  Biso   1.000  C
  H47      1.0000 0.65800  0.21970  0.07880  Biso   1.000  H
  O47      1.0000 0.67591  0.27014  0.03820  Biso   1.000  O
  O48      1.0000 0.63268  0.31424  0.03777  Biso   1.000  O
  H48      1.0000 0.76600  0.25900  0.01500  Biso   1.000  H
  C73      1.0000 0.85259  0.78554  0.95047  Biso   1.000  C
  C74      1.0000 0.87322  0.76495  0.92005  Biso   1.000  C
  C75      1.0000 0.86260  0.73080  0.90938  Biso   1.000  C
  H49      1.0000 0.84200  0.71970  0.92120  Biso   1.000  H
  O49      1.0000 0.82409  0.77014  0.96180  Biso   1.000  O
  O50      1.0000 0.86732  0.81424  0.96223  Biso   1.000  O
  H50      1.0000 0.73400  0.75900  0.98500  Biso   1.000  H
  C76      1.0000 0.85259  0.28554  0.45047  Biso   1.000  C
  C77      1.0000 0.87322  0.26495  0.42005  Biso   1.000  C
  C78      1.0000 0.86260  0.23080  0.40938  Biso   1.000  C
  H51      1.0000 0.84200  0.21970  0.42120  Biso   1.000  H
  O51      1.0000 0.82409  0.27014  0.46180  Biso   1.000  O
  O52      1.0000 0.86732  0.31424  0.46223  Biso   1.000  O
  H52      1.0000 0.73400  0.25900  0.48500  Biso   1.000  H
  C79      1.0000 0.35259  0.78554  0.45047  Biso   1.000  C
  C80      1.0000 0.37322  0.76495  0.42005  Biso   1.000  C
  C81      1.0000 0.36260  0.73080  0.40938  Biso   1.000  C
  H53      1.0000 0.34200  0.71970  0.42120  Biso   1.000  H
  O53      1.0000 0.32409  0.77014  0.46180  Biso   1.000  O
  O54      1.0000 0.36732  0.81424  0.46223  Biso   1.000  O
  H54      1.0000 0.23400  0.75900  0.48500  Biso   1.000  H
  C82      1.0000 0.35259  0.28554  0.95047  Biso   1.000  C
  C83      1.0000 0.37322  0.26495  0.92005  Biso   1.000  C
  C84      1.0000 0.36260  0.23080  0.90938  Biso   1.000  C
  H55      1.0000 0.34200  0.21970  0.92120  Biso   1.000  H
  O55      1.0000 0.32409  0.27014  0.96180  Biso   1.000  O
  O56      1.0000 0.36732  0.31424  0.96223  Biso   1.000  O
  H56      1.0000 0.23400  0.25900  0.98500  Biso   1.000  H
  C85      1.0000 0.85259  0.21446  0.04953  Biso   1.000  C
  C86      1.0000 0.87322  0.23505  0.07995  Biso   1.000  C
  C87      1.0000 0.86260  0.26920  0.09062  Biso   1.000  C
  H57      1.0000 0.84200  0.28030  0.07880  Biso   1.000  H
  O57      1.0000 0.82409  0.22986  0.03820  Biso   1.000  O
  O58      1.0000 0.86732  0.18576  0.03777  Biso   1.000  O
  H58      1.0000 0.73400  0.24100  0.01500  Biso   1.000  H
  C88      1.0000 0.85259  0.71446  0.54953  Biso   1.000  C
  C89      1.0000 0.87322  0.73505  0.57995  Biso   1.000  C
  C90      1.0000 0.86260  0.76920  0.59062  Biso   1.000  C
  H59      1.0000 0.84200  0.78030  0.57880  Biso   1.000  H
  O59      1.0000 0.82409  0.72986  0.53820  Biso   1.000  O
  O60      1.0000 0.86732  0.68576  0.53777  Biso   1.000  O
  H60      1.0000 0.73400  0.74100  0.51500  Biso   1.000  H
  C91      1.0000 0.35259  0.21446  0.54953  Biso   1.000  C
  C92      1.0000 0.37322  0.23505  0.57995  Biso   1.000  C
  C93      1.0000 0.36260  0.26920  0.59062  Biso   1.000  C
  H61      1.0000 0.34200  0.28030  0.57880  Biso   1.000  H
  O61      1.0000 0.32409  0.22986  0.53820  Biso   1.000  O
  O62      1.0000 0.36732  0.18576  0.53777  Biso   1.000  O
  H62      1.0000 0.23400  0.24100  0.51500  Biso   1.000  H
  C94      1.0000 0.35259  0.71446  0.04953  Biso   1.000  C
  C95      1.0000 0.37322  0.73505  0.07995  Biso   1.000  C
  C96      1.0000 0.36260  0.76920  0.09062  Biso   1.000  C
  H63      1.0000 0.34200  0.78030  0.07880  Biso   1.000  H
  O63      1.0000 0.32409  0.72986  0.03820  Biso   1.000  O
  O64      1.0000 0.36732  0.68576  0.03777  Biso   1.000  O
  H64      1.0000 0.23400  0.74100  0.01500  Biso   1.000  H
  C97      1.0000 0.95047  0.14741  0.21446  Biso   1.000  C
  C98      1.0000 0.92005  0.12678  0.23505  Biso   1.000  C
  C99      1.0000 0.90938  0.13740  0.26920  Biso   1.000  C
  H65      1.0000 0.92120  0.15800  0.28030  Biso   1.000  H
  O65      1.0000 0.96180  0.17591  0.22986  Biso   1.000  O
  O66      1.0000 0.96223  0.13268  0.18576  Biso   1.000  O
  H66      1.0000 0.98500  0.26600  0.24100  Biso   1.000  H
  C100     1.0000 0.95047  0.64741  0.71446  Biso   1.000  C
  C101     1.0000 0.92005  0.62678  0.73505  Biso   1.000  C
  C102     1.0000 0.90938  0.63740  0.76920  Biso   1.000  C
  H67      1.0000 0.92120  0.65800  0.78030  Biso   1.000  H
  O67      1.0000 0.96180  0.67591  0.72986  Biso   1.000  O
  O68      1.0000 0.96223  0.63268  0.68576  Biso   1.000  O
  H68      1.0000 0.98500  0.76600  0.74100  Biso   1.000  H
  C103     1.0000 0.45047  0.14741  0.71446  Biso   1.000  C
  C104     1.0000 0.42005  0.12678  0.73505  Biso   1.000  C
  C105     1.0000 0.40938  0.13740  0.76920  Biso   1.000  C
  H69      1.0000 0.42120  0.15800  0.78030  Biso   1.000  H
  O69      1.0000 0.46180  0.17591  0.72986  Biso   1.000  O
  O70      1.0000 0.46223  0.13268  0.68576  Biso   1.000  O
  H70      1.0000 0.48500  0.26600  0.74100  Biso   1.000  H
  C106     1.0000 0.45047  0.64741  0.21446  Biso   1.000  C
  C107     1.0000 0.42005  0.62678  0.23505  Biso   1.000  C
  C108     1.0000 0.40938  0.63740  0.26920  Biso   1.000  C
  H71      1.0000 0.42120  0.65800  0.28030  Biso   1.000  H
  O71      1.0000 0.46180  0.67591  0.22986  Biso   1.000  O
  O72      1.0000 0.46223  0.63268  0.18576  Biso   1.000  O
  H72      1.0000 0.48500  0.76600  0.24100  Biso   1.000  H
  C109     1.0000 0.04953  0.14741  0.78554  Biso   1.000  C
  C110     1.0000 0.07995  0.12678  0.76495  Biso   1.000  C
  C111     1.0000 0.09062  0.13740  0.73080  Biso   1.000  C
  H73      1.0000 0.07880  0.15800  0.71970  Biso   1.000  H
  O73      1.0000 0.03820  0.17591  0.77014  Biso   1.000  O
  O74      1.0000 0.03777  0.13268  0.81424  Biso   1.000  O
  H74      1.0000 0.01500  0.26600  0.75900  Biso   1.000  H
  C112     1.0000 0.04953  0.64741  0.28554  Biso   1.000  C
  C113     1.0000 0.07995  0.62678  0.26495  Biso   1.000  C
  C114     1.0000 0.09062  0.63740  0.23080  Biso   1.000  C
  H75      1.0000 0.07880  0.65800  0.21970  Biso   1.000  H
  O75      1.0000 0.03820  0.67591  0.27014  Biso   1.000  O
  O76      1.0000 0.03777  0.63268  0.31424  Biso   1.000  O
  H76      1.0000 0.01500  0.76600  0.25900  Biso   1.000  H
  C115     1.0000 0.54953  0.14741  0.28554  Biso   1.000  C
  C116     1.0000 0.57995  0.12678  0.26495  Biso   1.000  C
  C117     1.0000 0.59062  0.13740  0.23080  Biso   1.000  C
  H77      1.0000 0.57880  0.15800  0.21970  Biso   1.000  H
  O77      1.0000 0.53820  0.17591  0.27014  Biso   1.000  O
  O78      1.0000 0.53777  0.13268  0.31424  Biso   1.000  O
  H78      1.0000 0.51500  0.26600  0.25900  Biso   1.000  H
  C118     1.0000 0.54953  0.64741  0.78554  Biso   1.000  C
  C119     1.0000 0.57995  0.62678  0.76495  Biso   1.000  C
  C120     1.0000 0.59062  0.63740  0.73080  Biso   1.000  C
  H79      1.0000 0.57880  0.65800  0.71970  Biso   1.000  H
  O79      1.0000 0.53820  0.67591  0.77014  Biso   1.000  O
  O80      1.0000 0.53777  0.63268  0.81424  Biso   1.000  O
  H80      1.0000 0.51500  0.76600  0.75900  Biso   1.000  H
  C121     1.0000 0.95047  0.85259  0.78554  Biso   1.000  C
  C122     1.0000 0.92005  0.87322  0.76495  Biso   1.000  C
  C123     1.0000 0.90938  0.86260  0.73080  Biso   1.000  C
  H81      1.0000 0.92120  0.84200  0.71970  Biso   1.000  H
  O81      1.0000 0.96180  0.82409  0.77014  Biso   1.000  O
  O82      1.0000 0.96223  0.86732  0.81424  Biso   1.000  O
  H82      1.0000 0.98500  0.73400  0.75900  Biso   1.000  H
  C124     1.0000 0.95047  0.35259  0.28554  Biso   1.000  C
  C125     1.0000 0.92005  0.37322  0.26495  Biso   1.000  C
  C126     1.0000 0.90938  0.36260  0.23080  Biso   1.000  C
  H83      1.0000 0.92120  0.34200  0.21970  Biso   1.000  H
  O83      1.0000 0.96180  0.32409  0.27014  Biso   1.000  O
  O84      1.0000 0.96223  0.36732  0.31424  Biso   1.000  O
  H84      1.0000 0.98500  0.23400  0.25900  Biso   1.000  H
  C127     1.0000 0.45047  0.85259  0.28554  Biso   1.000  C
  C128     1.0000 0.42005  0.87322  0.26495  Biso   1.000  C
  C129     1.0000 0.40938  0.86260  0.23080  Biso   1.000  C
  H85      1.0000 0.42120  0.84200  0.21970  Biso   1.000  H
  O85      1.0000 0.46180  0.82409  0.27014  Biso   1.000  O
  O86      1.0000 0.46223  0.86732  0.31424  Biso   1.000  O
  H86      1.0000 0.48500  0.73400  0.25900  Biso   1.000  H
  C130     1.0000 0.45047  0.35259  0.78554  Biso   1.000  C
  C131     1.0000 0.42005  0.37322  0.76495  Biso   1.000  C
  C132     1.0000 0.40938  0.36260  0.73080  Biso   1.000  C
  H87      1.0000 0.42120  0.34200  0.71970  Biso   1.000  H
  O87      1.0000 0.46180  0.32409  0.77014  Biso   1.000  O
  O88      1.0000 0.46223  0.36732  0.81424  Biso   1.000  O
  H88      1.0000 0.48500  0.23400  0.75900  Biso   1.000  H
  C133     1.0000 0.04953  0.85259  0.21446  Biso   1.000  C
  C134     1.0000 0.07995  0.87322  0.23505  Biso   1.000  C
  C135     1.0000 0.09062  0.86260  0.26920  Biso   1.000  C
  H89      1.0000 0.07880  0.84200  0.28030  Biso   1.000  H
  O89      1.0000 0.03820  0.82409  0.22986  Biso   1.000  O
  O90      1.0000 0.03777  0.86732  0.18576  Biso   1.000  O
  H90      1.0000 0.01500  0.73400  0.24100  Biso   1.000  H
  C136     1.0000 0.04953  0.35259  0.71446  Biso   1.000  C
  C137     1.0000 0.07995  0.37322  0.73505  Biso   1.000  C
  C138     1.0000 0.09062  0.36260  0.76920  Biso   1.000  C
  H91      1.0000 0.07880  0.34200  0.78030  Biso   1.000  H
  O91      1.0000 0.03820  0.32409  0.72986  Biso   1.000  O
  O92      1.0000 0.03777  0.36732  0.68576  Biso   1.000  O
  H92      1.0000 0.01500  0.23400  0.74100  Biso   1.000  H
  C139     1.0000 0.54953  0.85259  0.71446  Biso   1.000  C
  C140     1.0000 0.57995  0.87322  0.73505  Biso   1.000  C
  C141     1.0000 0.59062  0.86260  0.76920  Biso   1.000  C
  H93      1.0000 0.57880  0.84200  0.78030  Biso   1.000  H
  O93      1.0000 0.53820  0.82409  0.72986  Biso   1.000  O
  O94      1.0000 0.53777  0.86732  0.68576  Biso   1.000  O
  H94      1.0000 0.51500  0.73400  0.74100  Biso   1.000  H
  C142     1.0000 0.54953  0.35259  0.21446  Biso   1.000  C
  C143     1.0000 0.57995  0.37322  0.23505  Biso   1.000  C
  C144     1.0000 0.59062  0.36260  0.26920  Biso   1.000  C
  H95      1.0000 0.57880  0.34200  0.28030  Biso   1.000  H
  O95      1.0000 0.53820  0.32409  0.22986  Biso   1.000  O
  O96      1.0000 0.53777  0.36732  0.18576  Biso   1.000  O
  H96      1.0000 0.51500  0.23400  0.24100  Biso   1.000  H
  C145     1.0000 0.95047  0.21446  0.85259  Biso   1.000  C
  C146     1.0000 0.92005  0.23505  0.87322  Biso   1.000  C
  C147     1.0000 0.90938  0.26920  0.86260  Biso   1.000  C
  H97      1.0000 0.92120  0.28030  0.84200  Biso   1.000  H
  O97      1.0000 0.96180  0.22986  0.82409  Biso   1.000  O
  O98      1.0000 0.96223  0.18576  0.86732  Biso   1.000  O
  H98      1.0000 0.98500  0.24100  0.73400  Biso   1.000  H
  C148     1.0000 0.95047  0.71446  0.35259  Biso   1.000  C
  C149     1.0000 0.92005  0.73505  0.37322  Biso   1.000  C
  C150     1.0000 0.90938  0.76920  0.36260  Biso   1.000  C
  H99      1.0000 0.92120  0.78030  0.34200  Biso   1.000  H
  O99      1.0000 0.96180  0.72986  0.32409  Biso   1.000  O
  O100     1.0000 0.96223  0.68576  0.36732  Biso   1.000  O
  H100     1.0000 0.98500  0.74100  0.23400  Biso   1.000  H
  C151     1.0000 0.45047  0.21446  0.35259  Biso   1.000  C
  C152     1.0000 0.42005  0.23505  0.37322  Biso   1.000  C
  C153     1.0000 0.40938  0.26920  0.36260  Biso   1.000  C
  H101     1.0000 0.42120  0.28030  0.34200  Biso   1.000  H
  O101     1.0000 0.46180  0.22986  0.32409  Biso   1.000  O
  O102     1.0000 0.46223  0.18576  0.36732  Biso   1.000  O
  H102     1.0000 0.48500  0.24100  0.23400  Biso   1.000  H
  C154     1.0000 0.45047  0.71446  0.85259  Biso   1.000  C
  C155     1.0000 0.42005  0.73505  0.87322  Biso   1.000  C
  C156     1.0000 0.40938  0.76920  0.86260  Biso   1.000  C
  H103     1.0000 0.42120  0.78030  0.84200  Biso   1.000  H
  O103     1.0000 0.46180  0.72986  0.82409  Biso   1.000  O
  O104     1.0000 0.46223  0.68576  0.86732  Biso   1.000  O
  H104     1.0000 0.48500  0.74100  0.73400  Biso   1.000  H
  C157     1.0000 0.04953  0.78554  0.85259  Biso   1.000  C
  C158     1.0000 0.07995  0.76495  0.87322  Biso   1.000  C
  C159     1.0000 0.09062  0.73080  0.86260  Biso   1.000  C
  H105     1.0000 0.07880  0.71970  0.84200  Biso   1.000  H
  O105     1.0000 0.03820  0.77014  0.82409  Biso   1.000  O
  O106     1.0000 0.03777  0.81424  0.86732  Biso   1.000  O
  H106     1.0000 0.01500  0.75900  0.73400  Biso   1.000  H
  C160     1.0000 0.04953  0.28554  0.35259  Biso   1.000  C
  C161     1.0000 0.07995  0.26495  0.37322  Biso   1.000  C
  C162     1.0000 0.09062  0.23080  0.36260  Biso   1.000  C
  H107     1.0000 0.07880  0.21970  0.34200  Biso   1.000  H
  O107     1.0000 0.03820  0.27014  0.32409  Biso   1.000  O
  O108     1.0000 0.03777  0.31424  0.36732  Biso   1.000  O
  H108     1.0000 0.01500  0.25900  0.23400  Biso   1.000  H
  C163     1.0000 0.54953  0.78554  0.35259  Biso   1.000  C
  C164     1.0000 0.57995  0.76495  0.37322  Biso   1.000  C
  C165     1.0000 0.59062  0.73080  0.36260  Biso   1.000  C
  H109     1.0000 0.57880  0.71970  0.34200  Biso   1.000  H
  O109     1.0000 0.53820  0.77014  0.32409  Biso   1.000  O
  O110     1.0000 0.53777  0.81424  0.36732  Biso   1.000  O
  H110     1.0000 0.51500  0.75900  0.23400  Biso   1.000  H
  C166     1.0000 0.54953  0.28554  0.85259  Biso   1.000  C
  C167     1.0000 0.57995  0.26495  0.87322  Biso   1.000  C
  C168     1.0000 0.59062  0.23080  0.86260  Biso   1.000  C
  H111     1.0000 0.57880  0.21970  0.84200  Biso   1.000  H
  O111     1.0000 0.53820  0.27014  0.82409  Biso   1.000  O
  O112     1.0000 0.53777  0.31424  0.86732  Biso   1.000  O
  H112     1.0000 0.51500  0.25900  0.73400  Biso   1.000  H
  C169     1.0000 0.95047  0.78554  0.14741  Biso   1.000  C
  C170     1.0000 0.92005  0.76495  0.12678  Biso   1.000  C
  C171     1.0000 0.90938  0.73080  0.13740  Biso   1.000  C
  H113     1.0000 0.92120  0.71970  0.15800  Biso   1.000  H
  O113     1.0000 0.96180  0.77014  0.17591  Biso   1.000  O
  O114     1.0000 0.96223  0.81424  0.13268  Biso   1.000  O
  H114     1.0000 0.98500  0.75900  0.26600  Biso   1.000  H
  C172     1.0000 0.95047  0.28554  0.64741  Biso   1.000  C
  C173     1.0000 0.92005  0.26495  0.62678  Biso   1.000  C
  C174     1.0000 0.90938  0.23080  0.63740  Biso   1.000  C
  H115     1.0000 0.92120  0.21970  0.65800  Biso   1.000  H
  O115     1.0000 0.96180  0.27014  0.67591  Biso   1.000  O
  O116     1.0000 0.96223  0.31424  0.63268  Biso   1.000  O
  H116     1.0000 0.98500  0.25900  0.76600  Biso   1.000  H
  C175     1.0000 0.45047  0.78554  0.64741  Biso   1.000  C
  C176     1.0000 0.42005  0.76495  0.62678  Biso   1.000  C
  C177     1.0000 0.40938  0.73080  0.63740  Biso   1.000  C
  H117     1.0000 0.42120  0.71970  0.65800  Biso   1.000  H
  O117     1.0000 0.46180  0.77014  0.67591  Biso   1.000  O
  O118     1.0000 0.46223  0.81424  0.63268  Biso   1.000  O
  H118     1.0000 0.48500  0.75900  0.76600  Biso   1.000  H
  C178     1.0000 0.45047  0.28554  0.14741  Biso   1.000  C
  C179     1.0000 0.42005  0.26495  0.12678  Biso   1.000  C
  C180     1.0000 0.40938  0.23080  0.13740  Biso   1.000  C
  H119     1.0000 0.42120  0.21970  0.15800  Biso   1.000  H
  O119     1.0000 0.46180  0.27014  0.17591  Biso   1.000  O
  O120     1.0000 0.46223  0.31424  0.13268  Biso   1.000  O
  H120     1.0000 0.48500  0.25900  0.26600  Biso   1.000  H
  C181     1.0000 0.04953  0.21446  0.14741  Biso   1.000  C
  C182     1.0000 0.07995  0.23505  0.12678  Biso   1.000  C
  C183     1.0000 0.09062  0.26920  0.13740  Biso   1.000  C
  H121     1.0000 0.07880  0.28030  0.15800  Biso   1.000  H
  O121     1.0000 0.03820  0.22986  0.17591  Biso   1.000  O
  O122     1.0000 0.03777  0.18576  0.13268  Biso   1.000  O
  H122     1.0000 0.01500  0.24100  0.26600  Biso   1.000  H
  C184     1.0000 0.04953  0.71446  0.64741  Biso   1.000  C
  C185     1.0000 0.07995  0.73505  0.62678  Biso   1.000  C
  C186     1.0000 0.09062  0.76920  0.63740  Biso   1.000  C
  H123     1.0000 0.07880  0.78030  0.65800  Biso   1.000  H
  O123     1.0000 0.03820  0.72986  0.67591  Biso   1.000  O
  O124     1.0000 0.03777  0.68576  0.63268  Biso   1.000  O
  H124     1.0000 0.01500  0.74100  0.76600  Biso   1.000  H
  C187     1.0000 0.54953  0.21446  0.64741  Biso   1.000  C
  C188     1.0000 0.57995  0.23505  0.62678  Biso   1.000  C
  C189     1.0000 0.59062  0.26920  0.63740  Biso   1.000  C
  H125     1.0000 0.57880  0.28030  0.65800  Biso   1.000  H
  O125     1.0000 0.53820  0.22986  0.67591  Biso   1.000  O
  O126     1.0000 0.53777  0.18576  0.63268  Biso   1.000  O
  H126     1.0000 0.51500  0.24100  0.76600  Biso   1.000  H
  C190     1.0000 0.54953  0.71446  0.14741  Biso   1.000  C
  C191     1.0000 0.57995  0.73505  0.12678  Biso   1.000  C
  C192     1.0000 0.59062  0.76920  0.13740  Biso   1.000  C
  H127     1.0000 0.57880  0.78030  0.15800  Biso   1.000  H
  O127     1.0000 0.53820  0.72986  0.17591  Biso   1.000  O
  O128     1.0000 0.53777  0.68576  0.13268  Biso   1.000  O
  H128     1.0000 0.51500  0.74100  0.26600  Biso   1.000  H
  C193     1.0000 0.21446  0.14741  0.04953  Biso   1.000  C
  C194     1.0000 0.23505  0.12678  0.07995  Biso   1.000  C
  C195     1.0000 0.26920  0.13740  0.09062  Biso   1.000  C
  H129     1.0000 0.28030  0.15800  0.07880  Biso   1.000  H
  O129     1.0000 0.22986  0.17591  0.03820  Biso   1.000  O
  O130     1.0000 0.18576  0.13268  0.03777  Biso   1.000  O
  H130     1.0000 0.24100  0.26600  0.01500  Biso   1.000  H
  C196     1.0000 0.21446  0.64741  0.54953  Biso   1.000  C
  C197     1.0000 0.23505  0.62678  0.57995  Biso   1.000  C
  C198     1.0000 0.26920  0.63740  0.59062  Biso   1.000  C
  H131     1.0000 0.28030  0.65800  0.57880  Biso   1.000  H
  O131     1.0000 0.22986  0.67591  0.53820  Biso   1.000  O
  O132     1.0000 0.18576  0.63268  0.53777  Biso   1.000  O
  H132     1.0000 0.24100  0.76600  0.51500  Biso   1.000  H
  C199     1.0000 0.71446  0.14741  0.54953  Biso   1.000  C
  C200     1.0000 0.73505  0.12678  0.57995  Biso   1.000  C
  C201     1.0000 0.76920  0.13740  0.59062  Biso   1.000  C
  H133     1.0000 0.78030  0.15800  0.57880  Biso   1.000  H
  O133     1.0000 0.72986  0.17591  0.53820  Biso   1.000  O
  O134     1.0000 0.68576  0.13268  0.53777  Biso   1.000  O
  H134     1.0000 0.74100  0.26600  0.51500  Biso   1.000  H
  C202     1.0000 0.71446  0.64741  0.04953  Biso   1.000  C
  C203     1.0000 0.73505  0.62678  0.07995  Biso   1.000  C
  C204     1.0000 0.76920  0.63740  0.09062  Biso   1.000  C
  H135     1.0000 0.78030  0.65800  0.07880  Biso   1.000  H
  O135     1.0000 0.72986  0.67591  0.03820  Biso   1.000  O
  O136     1.0000 0.68576  0.63268  0.03777  Biso   1.000  O
  H136     1.0000 0.74100  0.76600  0.01500  Biso   1.000  H
  C205     1.0000 0.78554  0.14741  0.95047  Biso   1.000  C
  C206     1.0000 0.76495  0.12678  0.92005  Biso   1.000  C
  C207     1.0000 0.73080  0.13740  0.90938  Biso   1.000  C
  H137     1.0000 0.71970  0.15800  0.92120  Biso   1.000  H
  O137     1.0000 0.77014  0.17591  0.96180  Biso   1.000  O
  O138     1.0000 0.81424  0.13268  0.96223  Biso   1.000  O
  H138     1.0000 0.75900  0.26600  0.98500  Biso   1.000  H
  C208     1.0000 0.78554  0.64741  0.45047  Biso   1.000  C
  C209     1.0000 0.76495  0.62678  0.42005  Biso   1.000  C
  C210     1.0000 0.73080  0.63740  0.40938  Biso   1.000  C
  H139     1.0000 0.71970  0.65800  0.42120  Biso   1.000  H
  O139     1.0000 0.77014  0.67591  0.46180  Biso   1.000  O
  O140     1.0000 0.81424  0.63268  0.46223  Biso   1.000  O
  H140     1.0000 0.75900  0.76600  0.48500  Biso   1.000  H
  C211     1.0000 0.28554  0.14741  0.45047  Biso   1.000  C
  C212     1.0000 0.26495  0.12678  0.42005  Biso   1.000  C
  C213     1.0000 0.23080  0.13740  0.40938  Biso   1.000  C
  H141     1.0000 0.21970  0.15800  0.42120  Biso   1.000  H
  O141     1.0000 0.27014  0.17591  0.46180  Biso   1.000  O
  O142     1.0000 0.31424  0.13268  0.46223  Biso   1.000  O
  H142     1.0000 0.25900  0.26600  0.48500  Biso   1.000  H
  C214     1.0000 0.28554  0.64741  0.95047  Biso   1.000  C
  C215     1.0000 0.26495  0.62678  0.92005  Biso   1.000  C
  C216     1.0000 0.23080  0.63740  0.90938  Biso   1.000  C
  H143     1.0000 0.21970  0.65800  0.92120  Biso   1.000  H
  O143     1.0000 0.27014  0.67591  0.96180  Biso   1.000  O
  O144     1.0000 0.31424  0.63268  0.96223  Biso   1.000  O
  H144     1.0000 0.25900  0.76600  0.98500  Biso   1.000  H
  C217     1.0000 0.78554  0.85259  0.04953  Biso   1.000  C
  C218     1.0000 0.76495  0.87322  0.07995  Biso   1.000  C
  C219     1.0000 0.73080  0.86260  0.09062  Biso   1.000  C
  H145     1.0000 0.71970  0.84200  0.07880  Biso   1.000  H
  O145     1.0000 0.77014  0.82409  0.03820  Biso   1.000  O
  O146     1.0000 0.81424  0.86732  0.03777  Biso   1.000  O
  H146     1.0000 0.75900  0.73400  0.01500  Biso   1.000  H
  C220     1.0000 0.78554  0.35259  0.54953  Biso   1.000  C
  C221     1.0000 0.76495  0.37322  0.57995  Biso   1.000  C
  C222     1.0000 0.73080  0.36260  0.59062  Biso   1.000  C
  H147     1.0000 0.71970  0.34200  0.57880  Biso   1.000  H
  O147     1.0000 0.77014  0.32409  0.53820  Biso   1.000  O
  O148     1.0000 0.81424  0.36732  0.53777  Biso   1.000  O
  H148     1.0000 0.75900  0.23400  0.51500  Biso   1.000  H
  C223     1.0000 0.28554  0.85259  0.54953  Biso   1.000  C
  C224     1.0000 0.26495  0.87322  0.57995  Biso   1.000  C
  C225     1.0000 0.23080  0.86260  0.59062  Biso   1.000  C
  H149     1.0000 0.21970  0.84200  0.57880  Biso   1.000  H
  O149     1.0000 0.27014  0.82409  0.53820  Biso   1.000  O
  O150     1.0000 0.31424  0.86732  0.53777  Biso   1.000  O
  H150     1.0000 0.25900  0.73400  0.51500  Biso   1.000  H
  C226     1.0000 0.28554  0.35259  0.04953  Biso   1.000  C
  C227     1.0000 0.26495  0.37322  0.07995  Biso   1.000  C
  C228     1.0000 0.23080  0.36260  0.09062  Biso   1.000  C
  H151     1.0000 0.21970  0.34200  0.07880  Biso   1.000  H
  O151     1.0000 0.27014  0.32409  0.03820  Biso   1.000  O
  O152     1.0000 0.31424  0.36732  0.03777  Biso   1.000  O
  H152     1.0000 0.25900  0.23400  0.01500  Biso   1.000  H
  C229     1.0000 0.21446  0.85259  0.95047  Biso   1.000  C
  C230     1.0000 0.23505  0.87322  0.92005  Biso   1.000  C
  C231     1.0000 0.26920  0.86260  0.90938  Biso   1.000  C
  H153     1.0000 0.28030  0.84200  0.92120  Biso   1.000  H
  O153     1.0000 0.22986  0.82409  0.96180  Biso   1.000  O
  O154     1.0000 0.18576  0.86732  0.96223  Biso   1.000  O
  H154     1.0000 0.24100  0.73400  0.98500  Biso   1.000  H
  C232     1.0000 0.21446  0.35259  0.45047  Biso   1.000  C
  C233     1.0000 0.23505  0.37322  0.42005  Biso   1.000  C
  C234     1.0000 0.26920  0.36260  0.40938  Biso   1.000  C
  H155     1.0000 0.28030  0.34200  0.42120  Biso   1.000  H
  O155     1.0000 0.22986  0.32409  0.46180  Biso   1.000  O
  O156     1.0000 0.18576  0.36732  0.46223  Biso   1.000  O
  H156     1.0000 0.24100  0.23400  0.48500  Biso   1.000  H
  C235     1.0000 0.71446  0.85259  0.45047  Biso   1.000  C
  C236     1.0000 0.73505  0.87322  0.42005  Biso   1.000  C
  C237     1.0000 0.76920  0.86260  0.40938  Biso   1.000  C
  H157     1.0000 0.78030  0.84200  0.42120  Biso   1.000  H
  O157     1.0000 0.72986  0.82409  0.46180  Biso   1.000  O
  O158     1.0000 0.68576  0.86732  0.46223  Biso   1.000  O
  H158     1.0000 0.74100  0.73400  0.48500  Biso   1.000  H
  C238     1.0000 0.71446  0.35259  0.95047  Biso   1.000  C
  C239     1.0000 0.73505  0.37322  0.92005  Biso   1.000  C
  C240     1.0000 0.76920  0.36260  0.90938  Biso   1.000  C
  H159     1.0000 0.78030  0.34200  0.92120  Biso   1.000  H
  O159     1.0000 0.72986  0.32409  0.96180  Biso   1.000  O
  O160     1.0000 0.68576  0.36732  0.96223  Biso   1.000  O
  H160     1.0000 0.74100  0.23400  0.98500  Biso   1.000  H
  C241     1.0000 0.14741  0.95047  0.78554  Biso   1.000  C
  C242     1.0000 0.12678  0.92005  0.76495  Biso   1.000  C
  C243     1.0000 0.13740  0.90938  0.73080  Biso   1.000  C
  H161     1.0000 0.15800  0.92120  0.71970  Biso   1.000  H
  O161     1.0000 0.17591  0.96180  0.77014  Biso   1.000  O
  O162     1.0000 0.13268  0.96223  0.81424  Biso   1.000  O
  H162     1.0000 0.26600  0.98500  0.75900  Biso   1.000  H
  C244     1.0000 0.14741  0.45047  0.28554  Biso   1.000  C
  C245     1.0000 0.12678  0.42005  0.26495  Biso   1.000  C
  C246     1.0000 0.13740  0.40938  0.23080  Biso   1.000  C
  H163     1.0000 0.15800  0.42120  0.21970  Biso   1.000  H
  O163     1.0000 0.17591  0.46180  0.27014  Biso   1.000  O
  O164     1.0000 0.13268  0.46223  0.31424  Biso   1.000  O
  H164     1.0000 0.26600  0.48500  0.25900  Biso   1.000  H
  C247     1.0000 0.64741  0.95047  0.28554  Biso   1.000  C
  C248     1.0000 0.62678  0.92005  0.26495  Biso   1.000  C
  C249     1.0000 0.63740  0.90938  0.23080  Biso   1.000  C
  H165     1.0000 0.65800  0.92120  0.21970  Biso   1.000  H
  O165     1.0000 0.67591  0.96180  0.27014  Biso   1.000  O
  O166     1.0000 0.63268  0.96223  0.31424  Biso   1.000  O
  H166     1.0000 0.76600  0.98500  0.25900  Biso   1.000  H
  C250     1.0000 0.64741  0.45047  0.78554  Biso   1.000  C
  C251     1.0000 0.62678  0.42005  0.76495  Biso   1.000  C
  C252     1.0000 0.63740  0.40938  0.73080  Biso   1.000  C
  H167     1.0000 0.65800  0.42120  0.71970  Biso   1.000  H
  O167     1.0000 0.67591  0.46180  0.77014  Biso   1.000  O
  O168     1.0000 0.63268  0.46223  0.81424  Biso   1.000  O
  H168     1.0000 0.76600  0.48500  0.75900  Biso   1.000  H
  C253     1.0000 0.14741  0.04953  0.21446  Biso   1.000  C
  C254     1.0000 0.12678  0.07995  0.23505  Biso   1.000  C
  C255     1.0000 0.13740  0.09062  0.26920  Biso   1.000  C
  H169     1.0000 0.15800  0.07880  0.28030  Biso   1.000  H
  O169     1.0000 0.17591  0.03820  0.22986  Biso   1.000  O
  O170     1.0000 0.13268  0.03777  0.18576  Biso   1.000  O
  H170     1.0000 0.26600  0.01500  0.24100  Biso   1.000  H
  C256     1.0000 0.14741  0.54953  0.71446  Biso   1.000  C
  C257     1.0000 0.12678  0.57995  0.73505  Biso   1.000  C
  C258     1.0000 0.13740  0.59062  0.76920  Biso   1.000  C
  H171     1.0000 0.15800  0.57880  0.78030  Biso   1.000  H
  O171     1.0000 0.17591  0.53820  0.72986  Biso   1.000  O
  O172     1.0000 0.13268  0.53777  0.68576  Biso   1.000  O
  H172     1.0000 0.26600  0.51500  0.74100  Biso   1.000  H
  C259     1.0000 0.64741  0.04953  0.71446  Biso   1.000  C
  C260     1.0000 0.62678  0.07995  0.73505  Biso   1.000  C
  C261     1.0000 0.63740  0.09062  0.76920  Biso   1.000  C
  H173     1.0000 0.65800  0.07880  0.78030  Biso   1.000  H
  O173     1.0000 0.67591  0.03820  0.72986  Biso   1.000  O
  O174     1.0000 0.63268  0.03777  0.68576  Biso   1.000  O
  H174     1.0000 0.76600  0.01500  0.74100  Biso   1.000  H
  C262     1.0000 0.64741  0.54953  0.21446  Biso   1.000  C
  C263     1.0000 0.62678  0.57995  0.23505  Biso   1.000  C
  C264     1.0000 0.63740  0.59062  0.26920  Biso   1.000  C
  H175     1.0000 0.65800  0.57880  0.28030  Biso   1.000  H
  O175     1.0000 0.67591  0.53820  0.22986  Biso   1.000  O
  O176     1.0000 0.63268  0.53777  0.18576  Biso   1.000  O
  H176     1.0000 0.76600  0.51500  0.24100  Biso   1.000  H
  C265     1.0000 0.85259  0.95047  0.21446  Biso   1.000  C
  C266     1.0000 0.87322  0.92005  0.23505  Biso   1.000  C
  C267     1.0000 0.86260  0.90938  0.26920  Biso   1.000  C
  H177     1.0000 0.84200  0.92120  0.28030  Biso   1.000  H
  O177     1.0000 0.82409  0.96180  0.22986  Biso   1.000  O
  O178     1.0000 0.86732  0.96223  0.18576  Biso   1.000  O
  H178     1.0000 0.73400  0.98500  0.24100  Biso   1.000  H
  C268     1.0000 0.85259  0.45047  0.71446  Biso   1.000  C
  C269     1.0000 0.87322  0.42005  0.73505  Biso   1.000  C
  C270     1.0000 0.86260  0.40938  0.76920  Biso   1.000  C
  H179     1.0000 0.84200  0.42120  0.78030  Biso   1.000  H
  O179     1.0000 0.82409  0.46180  0.72986  Biso   1.000  O
  O180     1.0000 0.86732  0.46223  0.68576  Biso   1.000  O
  H180     1.0000 0.73400  0.48500  0.74100  Biso   1.000  H
  C271     1.0000 0.35259  0.95047  0.71446  Biso   1.000  C
  C272     1.0000 0.37322  0.92005  0.73505  Biso   1.000  C
  C273     1.0000 0.36260  0.90938  0.76920  Biso   1.000  C
  H181     1.0000 0.34200  0.92120  0.78030  Biso   1.000  H
  O181     1.0000 0.32409  0.96180  0.72986  Biso   1.000  O
  O182     1.0000 0.36732  0.96223  0.68576  Biso   1.000  O
  H182     1.0000 0.23400  0.98500  0.74100  Biso   1.000  H
  C274     1.0000 0.35259  0.45047  0.21446  Biso   1.000  C
  C275     1.0000 0.37322  0.42005  0.23505  Biso   1.000  C
  C276     1.0000 0.36260  0.40938  0.26920  Biso   1.000  C
  H183     1.0000 0.34200  0.42120  0.28030  Biso   1.000  H
  O183     1.0000 0.32409  0.46180  0.22986  Biso   1.000  O
  O184     1.0000 0.36732  0.46223  0.18576  Biso   1.000  O
  H184     1.0000 0.23400  0.48500  0.24100  Biso   1.000  H
  C277     1.0000 0.85259  0.04953  0.78554  Biso   1.000  C
  C278     1.0000 0.87322  0.07995  0.76495  Biso   1.000  C
  C279     1.0000 0.86260  0.09062  0.73080  Biso   1.000  C
  H185     1.0000 0.84200  0.07880  0.71970  Biso   1.000  H
  O185     1.0000 0.82409  0.03820  0.77014  Biso   1.000  O
  O186     1.0000 0.86732  0.03777  0.81424  Biso   1.000  O
  H186     1.0000 0.73400  0.01500  0.75900  Biso   1.000  H
  C280     1.0000 0.85259  0.54953  0.28554  Biso   1.000  C
  C281     1.0000 0.87322  0.57995  0.26495  Biso   1.000  C
  C282     1.0000 0.86260  0.59062  0.23080  Biso   1.000  C
  H187     1.0000 0.84200  0.57880  0.21970  Biso   1.000  H
  O187     1.0000 0.82409  0.53820  0.27014  Biso   1.000  O
  O188     1.0000 0.86732  0.53777  0.31424  Biso   1.000  O
  H188     1.0000 0.73400  0.51500  0.25900  Biso   1.000  H
  C283     1.0000 0.35259  0.04953  0.28554  Biso   1.000  C
  C284     1.0000 0.37322  0.07995  0.26495  Biso   1.000  C
  C285     1.0000 0.36260  0.09062  0.23080  Biso   1.000  C
  H189     1.0000 0.34200  0.07880  0.21970  Biso   1.000  H
  O189     1.0000 0.32409  0.03820  0.27014  Biso   1.000  O
  O190     1.0000 0.36732  0.03777  0.31424  Biso   1.000  O
  H190     1.0000 0.23400  0.01500  0.25900  Biso   1.000  H
  C286     1.0000 0.35259  0.54953  0.78554  Biso   1.000  C
  C287     1.0000 0.37322  0.57995  0.76495  Biso   1.000  C
  C288     1.0000 0.36260  0.59062  0.73080  Biso   1.000  C
  H191     1.0000 0.34200  0.57880  0.71970  Biso   1.000  H
  O191     1.0000 0.32409  0.53820  0.77014  Biso   1.000  O
  O192     1.0000 0.36732  0.53777  0.81424  Biso   1.000  O
  H192     1.0000 0.23400  0.51500  0.75900  Biso   1.000  H
  C289     1.0000 0.78554  0.04953  0.85259  Biso   1.000  C
  C290     1.0000 0.76495  0.07995  0.87322  Biso   1.000  C
  C291     1.0000 0.73080  0.09062  0.86260  Biso   1.000  C
  H193     1.0000 0.71970  0.07880  0.84200  Biso   1.000  H
  O193     1.0000 0.77014  0.03820  0.82409  Biso   1.000  O
  O194     1.0000 0.81424  0.03777  0.86732  Biso   1.000  O
  H194     1.0000 0.75900  0.01500  0.73400  Biso   1.000  H
  C292     1.0000 0.78554  0.54953  0.35259  Biso   1.000  C
  C293     1.0000 0.76495  0.57995  0.37322  Biso   1.000  C
  C294     1.0000 0.73080  0.59062  0.36260  Biso   1.000  C
  H195     1.0000 0.71970  0.57880  0.34200  Biso   1.000  H
  O195     1.0000 0.77014  0.53820  0.32409  Biso   1.000  O
  O196     1.0000 0.81424  0.53777  0.36732  Biso   1.000  O
  H196     1.0000 0.75900  0.51500  0.23400  Biso   1.000  H
  C295     1.0000 0.28554  0.04953  0.35259  Biso   1.000  C
  C296     1.0000 0.26495  0.07995  0.37322  Biso   1.000  C
  C297     1.0000 0.23080  0.09062  0.36260  Biso   1.000  C
  H197     1.0000 0.21970  0.07880  0.34200  Biso   1.000  H
  O197     1.0000 0.27014  0.03820  0.32409  Biso   1.000  O
  O198     1.0000 0.31424  0.03777  0.36732  Biso   1.000  O
  H198     1.0000 0.25900  0.01500  0.23400  Biso   1.000  H
  C298     1.0000 0.28554  0.54953  0.85259  Biso   1.000  C
  C299     1.0000 0.26495  0.57995  0.87322  Biso   1.000  C
  C300     1.0000 0.23080  0.59062  0.86260  Biso   1.000  C
  H199     1.0000 0.21970  0.57880  0.84200  Biso   1.000  H
  O199     1.0000 0.27014  0.53820  0.82409  Biso   1.000  O
  O200     1.0000 0.31424  0.53777  0.86732  Biso   1.000  O
  H200     1.0000 0.25900  0.51500  0.73400  Biso   1.000  H
  C301     1.0000 0.21446  0.95047  0.85259  Biso   1.000  C
  C302     1.0000 0.23505  0.92005  0.87322  Biso   1.000  C
  C303     1.0000 0.26920  0.90938  0.86260  Biso   1.000  C
  H201     1.0000 0.28030  0.92120  0.84200  Biso   1.000  H
  O201     1.0000 0.22986  0.96180  0.82409  Biso   1.000  O
  O202     1.0000 0.18576  0.96223  0.86732  Biso   1.000  O
  H202     1.0000 0.24100  0.98500  0.73400  Biso   1.000  H
  C304     1.0000 0.21446  0.45047  0.35259  Biso   1.000  C
  C305     1.0000 0.23505  0.42005  0.37322  Biso   1.000  C
  C306     1.0000 0.26920  0.40938  0.36260  Biso   1.000  C
  H203     1.0000 0.28030  0.42120  0.34200  Biso   1.000  H
  O203     1.0000 0.22986  0.46180  0.32409  Biso   1.000  O
  O204     1.0000 0.18576  0.46223  0.36732  Biso   1.000  O
  H204     1.0000 0.24100  0.48500  0.23400  Biso   1.000  H
  C307     1.0000 0.71446  0.95047  0.35259  Biso   1.000  C
  C308     1.0000 0.73505  0.92005  0.37322  Biso   1.000  C
  C309     1.0000 0.76920  0.90938  0.36260  Biso   1.000  C
  H205     1.0000 0.78030  0.92120  0.34200  Biso   1.000  H
  O205     1.0000 0.72986  0.96180  0.32409  Biso   1.000  O
  O206     1.0000 0.68576  0.96223  0.36732  Biso   1.000  O
  H206     1.0000 0.74100  0.98500  0.23400  Biso   1.000  H
  C310     1.0000 0.71446  0.45047  0.85259  Biso   1.000  C
  C311     1.0000 0.73505  0.42005  0.87322  Biso   1.000  C
  C312     1.0000 0.76920  0.40938  0.86260  Biso   1.000  C
  H207     1.0000 0.78030  0.42120  0.84200  Biso   1.000  H
  O207     1.0000 0.72986  0.46180  0.82409  Biso   1.000  O
  O208     1.0000 0.68576  0.46223  0.86732  Biso   1.000  O
  H208     1.0000 0.74100  0.48500  0.73400  Biso   1.000  H
  C313     1.0000 0.21446  0.04953  0.14741  Biso   1.000  C
  C314     1.0000 0.23505  0.07995  0.12678  Biso   1.000  C
  C315     1.0000 0.26920  0.09062  0.13740  Biso   1.000  C
  H209     1.0000 0.28030  0.07880  0.15800  Biso   1.000  H
  O209     1.0000 0.22986  0.03820  0.17591  Biso   1.000  O
  O210     1.0000 0.18576  0.03777  0.13268  Biso   1.000  O
  H210     1.0000 0.24100  0.01500  0.26600  Biso   1.000  H
  C316     1.0000 0.21446  0.54953  0.64741  Biso   1.000  C
  C317     1.0000 0.23505  0.57995  0.62678  Biso   1.000  C
  C318     1.0000 0.26920  0.59062  0.63740  Biso   1.000  C
  H211     1.0000 0.28030  0.57880  0.65800  Biso   1.000  H
  O211     1.0000 0.22986  0.53820  0.67591  Biso   1.000  O
  O212     1.0000 0.18576  0.53777  0.63268  Biso   1.000  O
  H212     1.0000 0.24100  0.51500  0.76600  Biso   1.000  H
  C319     1.0000 0.71446  0.04953  0.64741  Biso   1.000  C
  C320     1.0000 0.73505  0.07995  0.62678  Biso   1.000  C
  C321     1.0000 0.76920  0.09062  0.63740  Biso   1.000  C
  H213     1.0000 0.78030  0.07880  0.65800  Biso   1.000  H
  O213     1.0000 0.72986  0.03820  0.67591  Biso   1.000  O
  O214     1.0000 0.68576  0.03777  0.63268  Biso   1.000  O
  H214     1.0000 0.74100  0.01500  0.76600  Biso   1.000  H
  C322     1.0000 0.71446  0.54953  0.14741  Biso   1.000  C
  C323     1.0000 0.73505  0.57995  0.12678  Biso   1.000  C
  C324     1.0000 0.76920  0.59062  0.13740  Biso   1.000  C
  H215     1.0000 0.78030  0.57880  0.15800  Biso   1.000  H
  O215     1.0000 0.72986  0.53820  0.17591  Biso   1.000  O
  O216     1.0000 0.68576  0.53777  0.13268  Biso   1.000  O
  H216     1.0000 0.74100  0.51500  0.26600  Biso   1.000  H
  C325     1.0000 0.78554  0.95047  0.14741  Biso   1.000  C
  C326     1.0000 0.76495  0.92005  0.12678  Biso   1.000  C
  C327     1.0000 0.73080  0.90938  0.13740  Biso   1.000  C
  H217     1.0000 0.71970  0.92120  0.15800  Biso   1.000  H
  O217     1.0000 0.77014  0.96180  0.17591  Biso   1.000  O
  O218     1.0000 0.81424  0.96223  0.13268  Biso   1.000  O
  H218     1.0000 0.75900  0.98500  0.26600  Biso   1.000  H
  C328     1.0000 0.78554  0.45047  0.64741  Biso   1.000  C
  C329     1.0000 0.76495  0.42005  0.62678  Biso   1.000  C
  C330     1.0000 0.73080  0.40938  0.63740  Biso   1.000  C
  H219     1.0000 0.71970  0.42120  0.65800  Biso   1.000  H
  O219     1.0000 0.77014  0.46180  0.67591  Biso   1.000  O
  O220     1.0000 0.81424  0.46223  0.63268  Biso   1.000  O
  H220     1.0000 0.75900  0.48500  0.76600  Biso   1.000  H
  C331     1.0000 0.28554  0.95047  0.64741  Biso   1.000  C
  C332     1.0000 0.26495  0.92005  0.62678  Biso   1.000  C
  C333     1.0000 0.23080  0.90938  0.63740  Biso   1.000  C
  H221     1.0000 0.21970  0.92120  0.65800  Biso   1.000  H
  O221     1.0000 0.27014  0.96180  0.67591  Biso   1.000  O
  O222     1.0000 0.31424  0.96223  0.63268  Biso   1.000  O
  H222     1.0000 0.25900  0.98500  0.76600  Biso   1.000  H
  C334     1.0000 0.28554  0.45047  0.14741  Biso   1.000  C
  C335     1.0000 0.26495  0.42005  0.12678  Biso   1.000  C
  C336     1.0000 0.23080  0.40938  0.13740  Biso   1.000  C
  H223     1.0000 0.21970  0.42120  0.15800  Biso   1.000  H
  O223     1.0000 0.27014  0.46180  0.17591  Biso   1.000  O
  O224     1.0000 0.31424  0.46223  0.13268  Biso   1.000  O
  H224     1.0000 0.25900  0.48500  0.26600  Biso   1.000  H
  C337     1.0000 0.85259  0.78554  0.04953  Biso   1.000  C
  C338     1.0000 0.87322  0.76495  0.07995  Biso   1.000  C
  C339     1.0000 0.86260  0.73080  0.09062  Biso   1.000  C
  H225     1.0000 0.84200  0.71970  0.07880  Biso   1.000  H
  O225     1.0000 0.82409  0.77014  0.03820  Biso   1.000  O
  O226     1.0000 0.86732  0.81424  0.03777  Biso   1.000  O
  H226     1.0000 0.73400  0.75900  0.01500  Biso   1.000  H
  C340     1.0000 0.85259  0.28554  0.54953  Biso   1.000  C
  C341     1.0000 0.87322  0.26495  0.57995  Biso   1.000  C
  C342     1.0000 0.86260  0.23080  0.59062  Biso   1.000  C
  H227     1.0000 0.84200  0.21970  0.57880  Biso   1.000  H
  O227     1.0000 0.82409  0.27014  0.53820  Biso   1.000  O
  O228     1.0000 0.86732  0.31424  0.53777  Biso   1.000  O
  H228     1.0000 0.73400  0.25900  0.51500  Biso   1.000  H
  C343     1.0000 0.35259  0.78554  0.54953  Biso   1.000  C
  C344     1.0000 0.37322  0.76495  0.57995  Biso   1.000  C
  C345     1.0000 0.36260  0.73080  0.59062  Biso   1.000  C
  H229     1.0000 0.34200  0.71970  0.57880  Biso   1.000  H
  O229     1.0000 0.32409  0.77014  0.53820  Biso   1.000  O
  O230     1.0000 0.36732  0.81424  0.53777  Biso   1.000  O
  H230     1.0000 0.23400  0.75900  0.51500  Biso   1.000  H
  C346     1.0000 0.35259  0.28554  0.04953  Biso   1.000  C
  C347     1.0000 0.37322  0.26495  0.07995  Biso   1.000  C
  C348     1.0000 0.36260  0.23080  0.09062  Biso   1.000  C
  H231     1.0000 0.34200  0.21970  0.07880  Biso   1.000  H
  O231     1.0000 0.32409  0.27014  0.03820  Biso   1.000  O
  O232     1.0000 0.36732  0.31424  0.03777  Biso   1.000  O
  H232     1.0000 0.23400  0.25900  0.01500  Biso   1.000  H
  C349     1.0000 0.85259  0.21446  0.95047  Biso   1.000  C
  C350     1.0000 0.87322  0.23505  0.92005  Biso   1.000  C
  C351     1.0000 0.86260  0.26920  0.90938  Biso   1.000  C
  H233     1.0000 0.84200  0.28030  0.92120  Biso   1.000  H
  O233     1.0000 0.82409  0.22986  0.96180  Biso   1.000  O
  O234     1.0000 0.86732  0.18576  0.96223  Biso   1.000  O
  H234     1.0000 0.73400  0.24100  0.98500  Biso   1.000  H
  C352     1.0000 0.85259  0.71446  0.45047  Biso   1.000  C
  C353     1.0000 0.87322  0.73505  0.42005  Biso   1.000  C
  C354     1.0000 0.86260  0.76920  0.40938  Biso   1.000  C
  H235     1.0000 0.84200  0.78030  0.42120  Biso   1.000  H
  O235     1.0000 0.82409  0.72986  0.46180  Biso   1.000  O
  O236     1.0000 0.86732  0.68576  0.46223  Biso   1.000  O
  H236     1.0000 0.73400  0.74100  0.48500  Biso   1.000  H
  C355     1.0000 0.35259  0.21446  0.45047  Biso   1.000  C
  C356     1.0000 0.37322  0.23505  0.42005  Biso   1.000  C
  C357     1.0000 0.36260  0.26920  0.40938  Biso   1.000  C
  H237     1.0000 0.34200  0.28030  0.42120  Biso   1.000  H
  O237     1.0000 0.32409  0.22986  0.46180  Biso   1.000  O
  O238     1.0000 0.36732  0.18576  0.46223  Biso   1.000  O
  H238     1.0000 0.23400  0.24100  0.48500  Biso   1.000  H
  C358     1.0000 0.35259  0.71446  0.95047  Biso   1.000  C
  C359     1.0000 0.37322  0.73505  0.92005  Biso   1.000  C
  C360     1.0000 0.36260  0.76920  0.90938  Biso   1.000  C
  H239     1.0000 0.34200  0.78030  0.92120  Biso   1.000  H
  O239     1.0000 0.32409  0.72986  0.96180  Biso   1.000  O
  O240     1.0000 0.36732  0.68576  0.96223  Biso   1.000  O
  H240     1.0000 0.23400  0.74100  0.98500  Biso   1.000  H
  C361     1.0000 0.14741  0.21446  0.04953  Biso   1.000  C
  C362     1.0000 0.12678  0.23505  0.07995  Biso   1.000  C
  C363     1.0000 0.13740  0.26920  0.09062  Biso   1.000  C
  H241     1.0000 0.15800  0.28030  0.07880  Biso   1.000  H
  O241     1.0000 0.17591  0.22986  0.03820  Biso   1.000  O
  O242     1.0000 0.13268  0.18576  0.03777  Biso   1.000  O
  H242     1.0000 0.26600  0.24100  0.01500  Biso   1.000  H
  C364     1.0000 0.14741  0.71446  0.54953  Biso   1.000  C
  C365     1.0000 0.12678  0.73505  0.57995  Biso   1.000  C
  C366     1.0000 0.13740  0.76920  0.59062  Biso   1.000  C
  H243     1.0000 0.15800  0.78030  0.57880  Biso   1.000  H
  O243     1.0000 0.17591  0.72986  0.53820  Biso   1.000  O
  O244     1.0000 0.13268  0.68576  0.53777  Biso   1.000  O
  H244     1.0000 0.26600  0.74100  0.51500  Biso   1.000  H
  C367     1.0000 0.64741  0.21446  0.54953  Biso   1.000  C
  C368     1.0000 0.62678  0.23505  0.57995  Biso   1.000  C
  C369     1.0000 0.63740  0.26920  0.59062  Biso   1.000  C
  H245     1.0000 0.65800  0.28030  0.57880  Biso   1.000  H
  O245     1.0000 0.67591  0.22986  0.53820  Biso   1.000  O
  O246     1.0000 0.63268  0.18576  0.53777  Biso   1.000  O
  H246     1.0000 0.76600  0.24100  0.51500  Biso   1.000  H
  C370     1.0000 0.64741  0.71446  0.04953  Biso   1.000  C
  C371     1.0000 0.62678  0.73505  0.07995  Biso   1.000  C
  C372     1.0000 0.63740  0.76920  0.09062  Biso   1.000  C
  H247     1.0000 0.65800  0.78030  0.07880  Biso   1.000  H
  O247     1.0000 0.67591  0.72986  0.03820  Biso   1.000  O
  O248     1.0000 0.63268  0.68576  0.03777  Biso   1.000  O
  H248     1.0000 0.76600  0.74100  0.01500  Biso   1.000  H
  C373     1.0000 0.14741  0.78554  0.95047  Biso   1.000  C
  C374     1.0000 0.12678  0.76495  0.92005  Biso   1.000  C
  C375     1.0000 0.13740  0.73080  0.90938  Biso   1.000  C
  H249     1.0000 0.15800  0.71970  0.92120  Biso   1.000  H
  O249     1.0000 0.17591  0.77014  0.96180  Biso   1.000  O
  O250     1.0000 0.13268  0.81424  0.96223  Biso   1.000  O
  H250     1.0000 0.26600  0.75900  0.98500  Biso   1.000  H
  C376     1.0000 0.14741  0.28554  0.45047  Biso   1.000  C
  C377     1.0000 0.12678  0.26495  0.42005  Biso   1.000  C
  C378     1.0000 0.13740  0.23080  0.40938  Biso   1.000  C
  H251     1.0000 0.15800  0.21970  0.42120  Biso   1.000  H
  O251     1.0000 0.17591  0.27014  0.46180  Biso   1.000  O
  O252     1.0000 0.13268  0.31424  0.46223  Biso   1.000  O
  H252     1.0000 0.26600  0.25900  0.48500  Biso   1.000  H
  C379     1.0000 0.64741  0.78554  0.45047  Biso   1.000  C
  C380     1.0000 0.62678  0.76495  0.42005  Biso   1.000  C
  C381     1.0000 0.63740  0.73080  0.40938  Biso   1.000  C
  H253     1.0000 0.65800  0.71970  0.42120  Biso   1.000  H
  O253     1.0000 0.67591  0.77014  0.46180  Biso   1.000  O
  O254     1.0000 0.63268  0.81424  0.46223  Biso   1.000  O
  H254     1.0000 0.76600  0.75900  0.48500  Biso   1.000  H
  C382     1.0000 0.64741  0.28554  0.95047  Biso   1.000  C
  C383     1.0000 0.62678  0.26495  0.92005  Biso   1.000  C
  C384     1.0000 0.63740  0.23080  0.90938  Biso   1.000  C
  H255     1.0000 0.65800  0.21970  0.92120  Biso   1.000  H
  O255     1.0000 0.67591  0.27014  0.96180  Biso   1.000  O
  O256     1.0000 0.63268  0.31424  0.96223  Biso   1.000  O
  H256     1.0000 0.76600  0.25900  0.98500  Biso   1.000  H
  C385     1.0000 0.04953  0.85259  0.78554  Biso   1.000  C
  C386     1.0000 0.07995  0.87322  0.76495  Biso   1.000  C
  C387     1.0000 0.09062  0.86260  0.73080  Biso   1.000  C
  H257     1.0000 0.07880  0.84200  0.71970  Biso   1.000  H
  O257     1.0000 0.03820  0.82409  0.77014  Biso   1.000  O
  O258     1.0000 0.03777  0.86732  0.81424  Biso   1.000  O
  H258     1.0000 0.01500  0.73400  0.75900  Biso   1.000  H
  C388     1.0000 0.04953  0.35259  0.28554  Biso   1.000  C
  C389     1.0000 0.07995  0.37322  0.26495  Biso   1.000  C
  C390     1.0000 0.09062  0.36260  0.23080  Biso   1.000  C
  H259     1.0000 0.07880  0.34200  0.21970  Biso   1.000  H
  O259     1.0000 0.03820  0.32409  0.27014  Biso   1.000  O
  O260     1.0000 0.03777  0.36732  0.31424  Biso   1.000  O
  H260     1.0000 0.01500  0.23400  0.25900  Biso   1.000  H
  C391     1.0000 0.54953  0.85259  0.28554  Biso   1.000  C
  C392     1.0000 0.57995  0.87322  0.26495  Biso   1.000  C
  C393     1.0000 0.59062  0.86260  0.23080  Biso   1.000  C
  H261     1.0000 0.57880  0.84200  0.21970  Biso   1.000  H
  O261     1.0000 0.53820  0.82409  0.27014  Biso   1.000  O
  O262     1.0000 0.53777  0.86732  0.31424  Biso   1.000  O
  H262     1.0000 0.51500  0.73400  0.25900  Biso   1.000  H
  C394     1.0000 0.54953  0.35259  0.78554  Biso   1.000  C
  C395     1.0000 0.57995  0.37322  0.76495  Biso   1.000  C
  C396     1.0000 0.59062  0.36260  0.73080  Biso   1.000  C
  H263     1.0000 0.57880  0.34200  0.71970  Biso   1.000  H
  O263     1.0000 0.53820  0.32409  0.77014  Biso   1.000  O
  O264     1.0000 0.53777  0.36732  0.81424  Biso   1.000  O
  H264     1.0000 0.51500  0.23400  0.75900  Biso   1.000  H
  C397     1.0000 0.95047  0.85259  0.21446  Biso   1.000  C
  C398     1.0000 0.92005  0.87322  0.23505  Biso   1.000  C
  C399     1.0000 0.90938  0.86260  0.26920  Biso   1.000  C
  H265     1.0000 0.92120  0.84200  0.28030  Biso   1.000  H
  O265     1.0000 0.96180  0.82409  0.22986  Biso   1.000  O
  O266     1.0000 0.96223  0.86732  0.18576  Biso   1.000  O
  H266     1.0000 0.98500  0.73400  0.24100  Biso   1.000  H
  C400     1.0000 0.95047  0.35259  0.71446  Biso   1.000  C
  C401     1.0000 0.92005  0.37322  0.73505  Biso   1.000  C
  C402     1.0000 0.90938  0.36260  0.76920  Biso   1.000  C
  H267     1.0000 0.92120  0.34200  0.78030  Biso   1.000  H
  O267     1.0000 0.96180  0.32409  0.72986  Biso   1.000  O
  O268     1.0000 0.96223  0.36732  0.68576  Biso   1.000  O
  H268     1.0000 0.98500  0.23400  0.74100  Biso   1.000  H
  C403     1.0000 0.45047  0.85259  0.71446  Biso   1.000  C
  C404     1.0000 0.42005  0.87322  0.73505  Biso   1.000  C
  C405     1.0000 0.40938  0.86260  0.76920  Biso   1.000  C
  H269     1.0000 0.42120  0.84200  0.78030  Biso   1.000  H
  O269     1.0000 0.46180  0.82409  0.72986  Biso   1.000  O
  O270     1.0000 0.46223  0.86732  0.68576  Biso   1.000  O
  H270     1.0000 0.48500  0.73400  0.74100  Biso   1.000  H
  C406     1.0000 0.45047  0.35259  0.21446  Biso   1.000  C
  C407     1.0000 0.42005  0.37322  0.23505  Biso   1.000  C
  C408     1.0000 0.40938  0.36260  0.26920  Biso   1.000  C
  H271     1.0000 0.42120  0.34200  0.28030  Biso   1.000  H
  O271     1.0000 0.46180  0.32409  0.22986  Biso   1.000  O
  O272     1.0000 0.46223  0.36732  0.18576  Biso   1.000  O
  H272     1.0000 0.48500  0.23400  0.24100  Biso   1.000  H
  C409     1.0000 0.04953  0.14741  0.21446  Biso   1.000  C
  C410     1.0000 0.07995  0.12678  0.23505  Biso   1.000  C
  C411     1.0000 0.09062  0.13740  0.26920  Biso   1.000  C
  H273     1.0000 0.07880  0.15800  0.28030  Biso   1.000  H
  O273     1.0000 0.03820  0.17591  0.22986  Biso   1.000  O
  O274     1.0000 0.03777  0.13268  0.18576  Biso   1.000  O
  H274     1.0000 0.01500  0.26600  0.24100  Biso   1.000  H
  C412     1.0000 0.04953  0.64741  0.71446  Biso   1.000  C
  C413     1.0000 0.07995  0.62678  0.73505  Biso   1.000  C
  C414     1.0000 0.09062  0.63740  0.76920  Biso   1.000  C
  H275     1.0000 0.07880  0.65800  0.78030  Biso   1.000  H
  O275     1.0000 0.03820  0.67591  0.72986  Biso   1.000  O
  O276     1.0000 0.03777  0.63268  0.68576  Biso   1.000  O
  H276     1.0000 0.01500  0.76600  0.74100  Biso   1.000  H
  C415     1.0000 0.54953  0.14741  0.71446  Biso   1.000  C
  C416     1.0000 0.57995  0.12678  0.73505  Biso   1.000  C
  C417     1.0000 0.59062  0.13740  0.76920  Biso   1.000  C
  H277     1.0000 0.57880  0.15800  0.78030  Biso   1.000  H
  O277     1.0000 0.53820  0.17591  0.72986  Biso   1.000  O
  O278     1.0000 0.53777  0.13268  0.68576  Biso   1.000  O
  H278     1.0000 0.51500  0.26600  0.74100  Biso   1.000  H
  C418     1.0000 0.54953  0.64741  0.21446  Biso   1.000  C
  C419     1.0000 0.57995  0.62678  0.23505  Biso   1.000  C
  C420     1.0000 0.59062  0.63740  0.26920  Biso   1.000  C
  H279     1.0000 0.57880  0.65800  0.28030  Biso   1.000  H
  O279     1.0000 0.53820  0.67591  0.22986  Biso   1.000  O
  O280     1.0000 0.53777  0.63268  0.18576  Biso   1.000  O
  H280     1.0000 0.51500  0.76600  0.24100  Biso   1.000  H
  C421     1.0000 0.95047  0.14741  0.78554  Biso   1.000  C
  C422     1.0000 0.92005  0.12678  0.76495  Biso   1.000  C
  C423     1.0000 0.90938  0.13740  0.73080  Biso   1.000  C
  H281     1.0000 0.92120  0.15800  0.71970  Biso   1.000  H
  O281     1.0000 0.96180  0.17591  0.77014  Biso   1.000  O
  O282     1.0000 0.96223  0.13268  0.81424  Biso   1.000  O
  H282     1.0000 0.98500  0.26600  0.75900  Biso   1.000  H
  C424     1.0000 0.95047  0.64741  0.28554  Biso   1.000  C
  C425     1.0000 0.92005  0.62678  0.26495  Biso   1.000  C
  C426     1.0000 0.90938  0.63740  0.23080  Biso   1.000  C
  H283     1.0000 0.92120  0.65800  0.21970  Biso   1.000  H
  O283     1.0000 0.96180  0.67591  0.27014  Biso   1.000  O
  O284     1.0000 0.96223  0.63268  0.31424  Biso   1.000  O
  H284     1.0000 0.98500  0.76600  0.25900  Biso   1.000  H
  C427     1.0000 0.45047  0.14741  0.28554  Biso   1.000  C
  C428     1.0000 0.42005  0.12678  0.26495  Biso   1.000  C
  C429     1.0000 0.40938  0.13740  0.23080  Biso   1.000  C
  H285     1.0000 0.42120  0.15800  0.21970  Biso   1.000  H
  O285     1.0000 0.46180  0.17591  0.27014  Biso   1.000  O
  O286     1.0000 0.46223  0.13268  0.31424  Biso   1.000  O
  H286     1.0000 0.48500  0.26600  0.25900  Biso   1.000  H
  C430     1.0000 0.45047  0.64741  0.78554  Biso   1.000  C
  C431     1.0000 0.42005  0.62678  0.76495  Biso   1.000  C
  C432     1.0000 0.40938  0.63740  0.73080  Biso   1.000  C
  H287     1.0000 0.42120  0.65800  0.71970  Biso   1.000  H
  O287     1.0000 0.46180  0.67591  0.77014  Biso   1.000  O
  O288     1.0000 0.46223  0.63268  0.81424  Biso   1.000  O
  H288     1.0000 0.48500  0.76600  0.75900  Biso   1.000  H
  C433     1.0000 0.04953  0.78554  0.14741  Biso   1.000  C
  C434     1.0000 0.07995  0.76495  0.12678  Biso   1.000  C
  C435     1.0000 0.09062  0.73080  0.13740  Biso   1.000  C
  H289     1.0000 0.07880  0.71970  0.15800  Biso   1.000  H
  O289     1.0000 0.03820  0.77014  0.17591  Biso   1.000  O
  O290     1.0000 0.03777  0.81424  0.13268  Biso   1.000  O
  H290     1.0000 0.01500  0.75900  0.26600  Biso   1.000  H
  C436     1.0000 0.04953  0.28554  0.64741  Biso   1.000  C
  C437     1.0000 0.07995  0.26495  0.62678  Biso   1.000  C
  C438     1.0000 0.09062  0.23080  0.63740  Biso   1.000  C
  H291     1.0000 0.07880  0.21970  0.65800  Biso   1.000  H
  O291     1.0000 0.03820  0.27014  0.67591  Biso   1.000  O
  O292     1.0000 0.03777  0.31424  0.63268  Biso   1.000  O
  H292     1.0000 0.01500  0.25900  0.76600  Biso   1.000  H
  C439     1.0000 0.54953  0.78554  0.64741  Biso   1.000  C
  C440     1.0000 0.57995  0.76495  0.62678  Biso   1.000  C
  C441     1.0000 0.59062  0.73080  0.63740  Biso   1.000  C
  H293     1.0000 0.57880  0.71970  0.65800  Biso   1.000  H
  O293     1.0000 0.53820  0.77014  0.67591  Biso   1.000  O
  O294     1.0000 0.53777  0.81424  0.63268  Biso   1.000  O
  H294     1.0000 0.51500  0.75900  0.76600  Biso   1.000  H
  C442     1.0000 0.54953  0.28554  0.14741  Biso   1.000  C
  C443     1.0000 0.57995  0.26495  0.12678  Biso   1.000  C
  C444     1.0000 0.59062  0.23080  0.13740  Biso   1.000  C
  H295     1.0000 0.57880  0.21970  0.15800  Biso   1.000  H
  O295     1.0000 0.53820  0.27014  0.17591  Biso   1.000  O
  O296     1.0000 0.53777  0.31424  0.13268  Biso   1.000  O
  H296     1.0000 0.51500  0.25900  0.26600  Biso   1.000  H
  C445     1.0000 0.95047  0.21446  0.14741  Biso   1.000  C
  C446     1.0000 0.92005  0.23505  0.12678  Biso   1.000  C
  C447     1.0000 0.90938  0.26920  0.13740  Biso   1.000  C
  H297     1.0000 0.92120  0.28030  0.15800  Biso   1.000  H
  O297     1.0000 0.96180  0.22986  0.17591  Biso   1.000  O
  O298     1.0000 0.96223  0.18576  0.13268  Biso   1.000  O
  H298     1.0000 0.98500  0.24100  0.26600  Biso   1.000  H
  C448     1.0000 0.95047  0.71446  0.64741  Biso   1.000  C
  C449     1.0000 0.92005  0.73505  0.62678  Biso   1.000  C
  C450     1.0000 0.90938  0.76920  0.63740  Biso   1.000  C
  H299     1.0000 0.92120  0.78030  0.65800  Biso   1.000  H
  O299     1.0000 0.96180  0.72986  0.67591  Biso   1.000  O
  O300     1.0000 0.96223  0.68576  0.63268  Biso   1.000  O
  H300     1.0000 0.98500  0.74100  0.76600  Biso   1.000  H
  C451     1.0000 0.45047  0.21446  0.64741  Biso   1.000  C
  C452     1.0000 0.42005  0.23505  0.62678  Biso   1.000  C
  C453     1.0000 0.40938  0.26920  0.63740  Biso   1.000  C
  H301     1.0000 0.42120  0.28030  0.65800  Biso   1.000  H
  O301     1.0000 0.46180  0.22986  0.67591  Biso   1.000  O
  O302     1.0000 0.46223  0.18576  0.63268  Biso   1.000  O
  H302     1.0000 0.48500  0.24100  0.76600  Biso   1.000  H
  C454     1.0000 0.45047  0.71446  0.14741  Biso   1.000  C
  C455     1.0000 0.42005  0.73505  0.12678  Biso   1.000  C
  C456     1.0000 0.40938  0.76920  0.13740  Biso   1.000  C
  H303     1.0000 0.42120  0.78030  0.15800  Biso   1.000  H
  O303     1.0000 0.46180  0.72986  0.17591  Biso   1.000  O
  O304     1.0000 0.46223  0.68576  0.13268  Biso   1.000  O
  H304     1.0000 0.48500  0.74100  0.26600  Biso   1.000  H
  C457     1.0000 0.04953  0.21446  0.85259  Biso   1.000  C
  C458     1.0000 0.07995  0.23505  0.87322  Biso   1.000  C
  C459     1.0000 0.09062  0.26920  0.86260  Biso   1.000  C
  H305     1.0000 0.07880  0.28030  0.84200  Biso   1.000  H
  O305     1.0000 0.03820  0.22986  0.82409  Biso   1.000  O
  O306     1.0000 0.03777  0.18576  0.86732  Biso   1.000  O
  H306     1.0000 0.01500  0.24100  0.73400  Biso   1.000  H
  C460     1.0000 0.04953  0.71446  0.35259  Biso   1.000  C
  C461     1.0000 0.07995  0.73505  0.37322  Biso   1.000  C
  C462     1.0000 0.09062  0.76920  0.36260  Biso   1.000  C
  H307     1.0000 0.07880  0.78030  0.34200  Biso   1.000  H
  O307     1.0000 0.03820  0.72986  0.32409  Biso   1.000  O
  O308     1.0000 0.03777  0.68576  0.36732  Biso   1.000  O
  H308     1.0000 0.01500  0.74100  0.23400  Biso   1.000  H
  C463     1.0000 0.54953  0.21446  0.35259  Biso   1.000  C
  C464     1.0000 0.57995  0.23505  0.37322  Biso   1.000  C
  C465     1.0000 0.59062  0.26920  0.36260  Biso   1.000  C
  H309     1.0000 0.57880  0.28030  0.34200  Biso   1.000  H
  O309     1.0000 0.53820  0.22986  0.32409  Biso   1.000  O
  O310     1.0000 0.53777  0.18576  0.36732  Biso   1.000  O
  H310     1.0000 0.51500  0.24100  0.23400  Biso   1.000  H
  C466     1.0000 0.54953  0.71446  0.85259  Biso   1.000  C
  C467     1.0000 0.57995  0.73505  0.87322  Biso   1.000  C
  C468     1.0000 0.59062  0.76920  0.86260  Biso   1.000  C
  H311     1.0000 0.57880  0.78030  0.84200  Biso   1.000  H
  O311     1.0000 0.53820  0.72986  0.82409  Biso   1.000  O
  O312     1.0000 0.53777  0.68576  0.86732  Biso   1.000  O
  H312     1.0000 0.51500  0.74100  0.73400  Biso   1.000  H
  C469     1.0000 0.95047  0.78554  0.85259  Biso   1.000  C
  C470     1.0000 0.92005  0.76495  0.87322  Biso   1.000  C
  C471     1.0000 0.90938  0.73080  0.86260  Biso   1.000  C
  H313     1.0000 0.92120  0.71970  0.84200  Biso   1.000  H
  O313     1.0000 0.96180  0.77014  0.82409  Biso   1.000  O
  O314     1.0000 0.96223  0.81424  0.86732  Biso   1.000  O
  H314     1.0000 0.98500  0.75900  0.73400  Biso   1.000  H
  C472     1.0000 0.95047  0.28554  0.35259  Biso   1.000  C
  C473     1.0000 0.92005  0.26495  0.37322  Biso   1.000  C
  C474     1.0000 0.90938  0.23080  0.36260  Biso   1.000  C
  H315     1.0000 0.92120  0.21970  0.34200  Biso   1.000  H
  O315     1.0000 0.96180  0.27014  0.32409  Biso   1.000  O
  O316     1.0000 0.96223  0.31424  0.36732  Biso   1.000  O
  H316     1.0000 0.98500  0.25900  0.23400  Biso   1.000  H
  C475     1.0000 0.45047  0.78554  0.35259  Biso   1.000  C
  C476     1.0000 0.42005  0.76495  0.37322  Biso   1.000  C
  C477     1.0000 0.40938  0.73080  0.36260  Biso   1.000  C
  H317     1.0000 0.42120  0.71970  0.34200  Biso   1.000  H
  O317     1.0000 0.46180  0.77014  0.32409  Biso   1.000  O
  O318     1.0000 0.46223  0.81424  0.36732  Biso   1.000  O
  H318     1.0000 0.48500  0.75900  0.23400  Biso   1.000  H
  C478     1.0000 0.45047  0.28554  0.85259  Biso   1.000  C
  C479     1.0000 0.42005  0.26495  0.87322  Biso   1.000  C
  C480     1.0000 0.40938  0.23080  0.86260  Biso   1.000  C
  H319     1.0000 0.42120  0.21970  0.84200  Biso   1.000  H
  O319     1.0000 0.46180  0.27014  0.82409  Biso   1.000  O
  O320     1.0000 0.46223  0.31424  0.86732  Biso   1.000  O
  H320     1.0000 0.48500  0.25900  0.73400  Biso   1.000  H
  C481     1.0000 0.78554  0.85259  0.95047  Biso   1.000  C
  C482     1.0000 0.76495  0.87322  0.92005  Biso   1.000  C
  C483     1.0000 0.73080  0.86260  0.90938  Biso   1.000  C
  H321     1.0000 0.71970  0.84200  0.92120  Biso   1.000  H
  O321     1.0000 0.77014  0.82409  0.96180  Biso   1.000  O
  O322     1.0000 0.81424  0.86732  0.96223  Biso   1.000  O
  H322     1.0000 0.75900  0.73400  0.98500  Biso   1.000  H
  C484     1.0000 0.78554  0.35259  0.45047  Biso   1.000  C
  C485     1.0000 0.76495  0.37322  0.42005  Biso   1.000  C
  C486     1.0000 0.73080  0.36260  0.40938  Biso   1.000  C
  H323     1.0000 0.71970  0.34200  0.42120  Biso   1.000  H
  O323     1.0000 0.77014  0.32409  0.46180  Biso   1.000  O
  O324     1.0000 0.81424  0.36732  0.46223  Biso   1.000  O
  H324     1.0000 0.75900  0.23400  0.48500  Biso   1.000  H
  C487     1.0000 0.28554  0.85259  0.45047  Biso   1.000  C
  C488     1.0000 0.26495  0.87322  0.42005  Biso   1.000  C
  C489     1.0000 0.23080  0.86260  0.40938  Biso   1.000  C
  H325     1.0000 0.21970  0.84200  0.42120  Biso   1.000  H
  O325     1.0000 0.27014  0.82409  0.46180  Biso   1.000  O
  O326     1.0000 0.31424  0.86732  0.46223  Biso   1.000  O
  H326     1.0000 0.25900  0.73400  0.48500  Biso   1.000  H
  C490     1.0000 0.28554  0.35259  0.95047  Biso   1.000  C
  C491     1.0000 0.26495  0.37322  0.92005  Biso   1.000  C
  C492     1.0000 0.23080  0.36260  0.90938  Biso   1.000  C
  H327     1.0000 0.21970  0.34200  0.92120  Biso   1.000  H
  O327     1.0000 0.27014  0.32409  0.96180  Biso   1.000  O
  O328     1.0000 0.31424  0.36732  0.96223  Biso   1.000  O
  H328     1.0000 0.25900  0.23400  0.98500  Biso   1.000  H
  C493     1.0000 0.21446  0.85259  0.04953  Biso   1.000  C
  C494     1.0000 0.23505  0.87322  0.07995  Biso   1.000  C
  C495     1.0000 0.26920  0.86260  0.09062  Biso   1.000  C
  H329     1.0000 0.28030  0.84200  0.07880  Biso   1.000  H
  O329     1.0000 0.22986  0.82409  0.03820  Biso   1.000  O
  O330     1.0000 0.18576  0.86732  0.03777  Biso   1.000  O
  H330     1.0000 0.24100  0.73400  0.01500  Biso   1.000  H
  C496     1.0000 0.21446  0.35259  0.54953  Biso   1.000  C
  C497     1.0000 0.23505  0.37322  0.57995  Biso   1.000  C
  C498     1.0000 0.26920  0.36260  0.59062  Biso   1.000  C
  H331     1.0000 0.28030  0.34200  0.57880  Biso   1.000  H
  O331     1.0000 0.22986  0.32409  0.53820  Biso   1.000  O
  O332     1.0000 0.18576  0.36732  0.53777  Biso   1.000  O
  H332     1.0000 0.24100  0.23400  0.51500  Biso   1.000  H
  C499     1.0000 0.71446  0.85259  0.54953  Biso   1.000  C
  C500     1.0000 0.73505  0.87322  0.57995  Biso   1.000  C
  C501     1.0000 0.76920  0.86260  0.59062  Biso   1.000  C
  H333     1.0000 0.78030  0.84200  0.57880  Biso   1.000  H
  O333     1.0000 0.72986  0.82409  0.53820  Biso   1.000  O
  O334     1.0000 0.68576  0.86732  0.53777  Biso   1.000  O
  H334     1.0000 0.74100  0.73400  0.51500  Biso   1.000  H
  C502     1.0000 0.71446  0.35259  0.04953  Biso   1.000  C
  C503     1.0000 0.73505  0.37322  0.07995  Biso   1.000  C
  C504     1.0000 0.76920  0.36260  0.09062  Biso   1.000  C
  H335     1.0000 0.78030  0.34200  0.07880  Biso   1.000  H
  O335     1.0000 0.72986  0.32409  0.03820  Biso   1.000  O
  O336     1.0000 0.68576  0.36732  0.03777  Biso   1.000  O
  H336     1.0000 0.74100  0.23400  0.01500  Biso   1.000  H
  C505     1.0000 0.21446  0.14741  0.95047  Biso   1.000  C
  C506     1.0000 0.23505  0.12678  0.92005  Biso   1.000  C
  C507     1.0000 0.26920  0.13740  0.90938  Biso   1.000  C
  H337     1.0000 0.28030  0.15800  0.92120  Biso   1.000  H
  O337     1.0000 0.22986  0.17591  0.96180  Biso   1.000  O
  O338     1.0000 0.18576  0.13268  0.96223  Biso   1.000  O
  H338     1.0000 0.24100  0.26600  0.98500  Biso   1.000  H
  C508     1.0000 0.21446  0.64741  0.45047  Biso   1.000  C
  C509     1.0000 0.23505  0.62678  0.42005  Biso   1.000  C
  C510     1.0000 0.26920  0.63740  0.40938  Biso   1.000  C
  H339     1.0000 0.28030  0.65800  0.42120  Biso   1.000  H
  O339     1.0000 0.22986  0.67591  0.46180  Biso   1.000  O
  O340     1.0000 0.18576  0.63268  0.46223  Biso   1.000  O
  H340     1.0000 0.24100  0.76600  0.48500  Biso   1.000  H
  C511     1.0000 0.71446  0.14741  0.45047  Biso   1.000  C
  C512     1.0000 0.73505  0.12678  0.42005  Biso   1.000  C
  C513     1.0000 0.76920  0.13740  0.40938  Biso   1.000  C
  H341     1.0000 0.78030  0.15800  0.42120  Biso   1.000  H
  O341     1.0000 0.72986  0.17591  0.46180  Biso   1.000  O
  O342     1.0000 0.68576  0.13268  0.46223  Biso   1.000  O
  H342     1.0000 0.74100  0.26600  0.48500  Biso   1.000  H
  C514     1.0000 0.71446  0.64741  0.95047  Biso   1.000  C
  C515     1.0000 0.73505  0.62678  0.92005  Biso   1.000  C
  C516     1.0000 0.76920  0.63740  0.90938  Biso   1.000  C
  H343     1.0000 0.78030  0.65800  0.92120  Biso   1.000  H
  O343     1.0000 0.72986  0.67591  0.96180  Biso   1.000  O
  O344     1.0000 0.68576  0.63268  0.96223  Biso   1.000  O
  H344     1.0000 0.74100  0.76600  0.98500  Biso   1.000  H
  C517     1.0000 0.78554  0.14741  0.04953  Biso   1.000  C
  C518     1.0000 0.76495  0.12678  0.07995  Biso   1.000  C
  C519     1.0000 0.73080  0.13740  0.09062  Biso   1.000  C
  H345     1.0000 0.71970  0.15800  0.07880  Biso   1.000  H
  O345     1.0000 0.77014  0.17591  0.03820  Biso   1.000  O
  O346     1.0000 0.81424  0.13268  0.03777  Biso   1.000  O
  H346     1.0000 0.75900  0.26600  0.01500  Biso   1.000  H
  C520     1.0000 0.78554  0.64741  0.54953  Biso   1.000  C
  C521     1.0000 0.76495  0.62678  0.57995  Biso   1.000  C
  C522     1.0000 0.73080  0.63740  0.59062  Biso   1.000  C
  H347     1.0000 0.71970  0.65800  0.57880  Biso   1.000  H
  O347     1.0000 0.77014  0.67591  0.53820  Biso   1.000  O
  O348     1.0000 0.81424  0.63268  0.53777  Biso   1.000  O
  H348     1.0000 0.75900  0.76600  0.51500  Biso   1.000  H
  C523     1.0000 0.28554  0.14741  0.54953  Biso   1.000  C
  C524     1.0000 0.26495  0.12678  0.57995  Biso   1.000  C
  C525     1.0000 0.23080  0.13740  0.59062  Biso   1.000  C
  H349     1.0000 0.21970  0.15800  0.57880  Biso   1.000  H
  O349     1.0000 0.27014  0.17591  0.53820  Biso   1.000  O
  O350     1.0000 0.31424  0.13268  0.53777  Biso   1.000  O
  H350     1.0000 0.25900  0.26600  0.51500  Biso   1.000  H
  C526     1.0000 0.28554  0.64741  0.04953  Biso   1.000  C
  C527     1.0000 0.26495  0.62678  0.07995  Biso   1.000  C
  C528     1.0000 0.23080  0.63740  0.09062  Biso   1.000  C
  H351     1.0000 0.21970  0.65800  0.07880  Biso   1.000  H
  O351     1.0000 0.27014  0.67591  0.03820  Biso   1.000  O
  O352     1.0000 0.31424  0.63268  0.03777  Biso   1.000  O
  H352     1.0000 0.25900  0.76600  0.01500  Biso   1.000  H
  C529     1.0000 0.85259  0.04953  0.21446  Biso   1.000  C
  C530     1.0000 0.87322  0.07995  0.23505  Biso   1.000  C
  C531     1.0000 0.86260  0.09062  0.26920  Biso   1.000  C
  H353     1.0000 0.84200  0.07880  0.28030  Biso   1.000  H
  O353     1.0000 0.82409  0.03820  0.22986  Biso   1.000  O
  O354     1.0000 0.86732  0.03777  0.18576  Biso   1.000  O
  H354     1.0000 0.73400  0.01500  0.24100  Biso   1.000  H
  C532     1.0000 0.85259  0.54953  0.71446  Biso   1.000  C
  C533     1.0000 0.87322  0.57995  0.73505  Biso   1.000  C
  C534     1.0000 0.86260  0.59062  0.76920  Biso   1.000  C
  H355     1.0000 0.84200  0.57880  0.78030  Biso   1.000  H
  O355     1.0000 0.82409  0.53820  0.72986  Biso   1.000  O
  O356     1.0000 0.86732  0.53777  0.68576  Biso   1.000  O
  H356     1.0000 0.73400  0.51500  0.74100  Biso   1.000  H
  C535     1.0000 0.35259  0.04953  0.71446  Biso   1.000  C
  C536     1.0000 0.37322  0.07995  0.73505  Biso   1.000  C
  C537     1.0000 0.36260  0.09062  0.76920  Biso   1.000  C
  H357     1.0000 0.34200  0.07880  0.78030  Biso   1.000  H
  O357     1.0000 0.32409  0.03820  0.72986  Biso   1.000  O
  O358     1.0000 0.36732  0.03777  0.68576  Biso   1.000  O
  H358     1.0000 0.23400  0.01500  0.74100  Biso   1.000  H
  C538     1.0000 0.35259  0.54953  0.21446  Biso   1.000  C
  C539     1.0000 0.37322  0.57995  0.23505  Biso   1.000  C
  C540     1.0000 0.36260  0.59062  0.26920  Biso   1.000  C
  H359     1.0000 0.34200  0.57880  0.28030  Biso   1.000  H
  O359     1.0000 0.32409  0.53820  0.22986  Biso   1.000  O
  O360     1.0000 0.36732  0.53777  0.18576  Biso   1.000  O
  H360     1.0000 0.23400  0.51500  0.24100  Biso   1.000  H
  C541     1.0000 0.85259  0.95047  0.78554  Biso   1.000  C
  C542     1.0000 0.87322  0.92005  0.76495  Biso   1.000  C
  C543     1.0000 0.86260  0.90938  0.73080  Biso   1.000  C
  H361     1.0000 0.84200  0.92120  0.71970  Biso   1.000  H
  O361     1.0000 0.82409  0.96180  0.77014  Biso   1.000  O
  O362     1.0000 0.86732  0.96223  0.81424  Biso   1.000  O
  H362     1.0000 0.73400  0.98500  0.75900  Biso   1.000  H
  C544     1.0000 0.85259  0.45047  0.28554  Biso   1.000  C
  C545     1.0000 0.87322  0.42005  0.26495  Biso   1.000  C
  C546     1.0000 0.86260  0.40938  0.23080  Biso   1.000  C
  H363     1.0000 0.84200  0.42120  0.21970  Biso   1.000  H
  O363     1.0000 0.82409  0.46180  0.27014  Biso   1.000  O
  O364     1.0000 0.86732  0.46223  0.31424  Biso   1.000  O
  H364     1.0000 0.73400  0.48500  0.25900  Biso   1.000  H
  C547     1.0000 0.35259  0.95047  0.28554  Biso   1.000  C
  C548     1.0000 0.37322  0.92005  0.26495  Biso   1.000  C
  C549     1.0000 0.36260  0.90938  0.23080  Biso   1.000  C
  H365     1.0000 0.34200  0.92120  0.21970  Biso   1.000  H
  O365     1.0000 0.32409  0.96180  0.27014  Biso   1.000  O
  O366     1.0000 0.36732  0.96223  0.31424  Biso   1.000  O
  H366     1.0000 0.23400  0.98500  0.25900  Biso   1.000  H
  C550     1.0000 0.35259  0.45047  0.78554  Biso   1.000  C
  C551     1.0000 0.37322  0.42005  0.76495  Biso   1.000  C
  C552     1.0000 0.36260  0.40938  0.73080  Biso   1.000  C
  H367     1.0000 0.34200  0.42120  0.71970  Biso   1.000  H
  O367     1.0000 0.32409  0.46180  0.77014  Biso   1.000  O
  O368     1.0000 0.36732  0.46223  0.81424  Biso   1.000  O
  H368     1.0000 0.23400  0.48500  0.75900  Biso   1.000  H
  C553     1.0000 0.14741  0.04953  0.78554  Biso   1.000  C
  C554     1.0000 0.12678  0.07995  0.76495  Biso   1.000  C
  C555     1.0000 0.13740  0.09062  0.73080  Biso   1.000  C
  H369     1.0000 0.15800  0.07880  0.71970  Biso   1.000  H
  O369     1.0000 0.17591  0.03820  0.77014  Biso   1.000  O
  O370     1.0000 0.13268  0.03777  0.81424  Biso   1.000  O
  H370     1.0000 0.26600  0.01500  0.75900  Biso   1.000  H
  C556     1.0000 0.14741  0.54953  0.28554  Biso   1.000  C
  C557     1.0000 0.12678  0.57995  0.26495  Biso   1.000  C
  C558     1.0000 0.13740  0.59062  0.23080  Biso   1.000  C
  H371     1.0000 0.15800  0.57880  0.21970  Biso   1.000  H
  O371     1.0000 0.17591  0.53820  0.27014  Biso   1.000  O
  O372     1.0000 0.13268  0.53777  0.31424  Biso   1.000  O
  H372     1.0000 0.26600  0.51500  0.25900  Biso   1.000  H
  C559     1.0000 0.64741  0.04953  0.28554  Biso   1.000  C
  C560     1.0000 0.62678  0.07995  0.26495  Biso   1.000  C
  C561     1.0000 0.63740  0.09062  0.23080  Biso   1.000  C
  H373     1.0000 0.65800  0.07880  0.21970  Biso   1.000  H
  O373     1.0000 0.67591  0.03820  0.27014  Biso   1.000  O
  O374     1.0000 0.63268  0.03777  0.31424  Biso   1.000  O
  H374     1.0000 0.76600  0.01500  0.25900  Biso   1.000  H
  C562     1.0000 0.64741  0.54953  0.78554  Biso   1.000  C
  C563     1.0000 0.62678  0.57995  0.76495  Biso   1.000  C
  C564     1.0000 0.63740  0.59062  0.73080  Biso   1.000  C
  H375     1.0000 0.65800  0.57880  0.71970  Biso   1.000  H
  O375     1.0000 0.67591  0.53820  0.77014  Biso   1.000  O
  O376     1.0000 0.63268  0.53777  0.81424  Biso   1.000  O
  H376     1.0000 0.76600  0.51500  0.75900  Biso   1.000  H
  C565     1.0000 0.14741  0.95047  0.21446  Biso   1.000  C
  C566     1.0000 0.12678  0.92005  0.23505  Biso   1.000  C
  C567     1.0000 0.13740  0.90938  0.26920  Biso   1.000  C
  H377     1.0000 0.15800  0.92120  0.28030  Biso   1.000  H
  O377     1.0000 0.17591  0.96180  0.22986  Biso   1.000  O
  O378     1.0000 0.13268  0.96223  0.18576  Biso   1.000  O
  H378     1.0000 0.26600  0.98500  0.24100  Biso   1.000  H
  C568     1.0000 0.14741  0.45047  0.71446  Biso   1.000  C
  C569     1.0000 0.12678  0.42005  0.73505  Biso   1.000  C
  C570     1.0000 0.13740  0.40938  0.76920  Biso   1.000  C
  H379     1.0000 0.15800  0.42120  0.78030  Biso   1.000  H
  O379     1.0000 0.17591  0.46180  0.72986  Biso   1.000  O
  O380     1.0000 0.13268  0.46223  0.68576  Biso   1.000  O
  H380     1.0000 0.26600  0.48500  0.74100  Biso   1.000  H
  C571     1.0000 0.64741  0.95047  0.71446  Biso   1.000  C
  C572     1.0000 0.62678  0.92005  0.73505  Biso   1.000  C
  C573     1.0000 0.63740  0.90938  0.76920  Biso   1.000  C
  H381     1.0000 0.65800  0.92120  0.78030  Biso   1.000  H
  O381     1.0000 0.67591  0.96180  0.72986  Biso   1.000  O
  O382     1.0000 0.63268  0.96223  0.68576  Biso   1.000  O
  H382     1.0000 0.76600  0.98500  0.74100  Biso   1.000  H
  C574     1.0000 0.64741  0.45047  0.21446  Biso   1.000  C
  C575     1.0000 0.62678  0.42005  0.23505  Biso   1.000  C
  C576     1.0000 0.63740  0.40938  0.26920  Biso   1.000  C
  H383     1.0000 0.65800  0.42120  0.28030  Biso   1.000  H
  O383     1.0000 0.67591  0.46180  0.22986  Biso   1.000  O
  O384     1.0000 0.63268  0.46223  0.18576  Biso   1.000  O
  H384     1.0000 0.76600  0.48500  0.24100  Biso   1.000  H
  Cu1      1.0000 0.20628  0.00000  0.20628  Biso   1.000  Cu
  Cu2      1.0000 0.15505  0.00000  0.15505  Biso   1.000  Cu
  Cu3      1.0000 0.20628  0.50000  0.70628  Biso   1.000  Cu
  Cu4      1.0000 0.15505  0.50000  0.65505  Biso   1.000  Cu
  Cu5      1.0000 0.70628  0.00000  0.70628  Biso   1.000  Cu
  Cu6      1.0000 0.65505  0.00000  0.65505  Biso   1.000  Cu
  Cu7      1.0000 0.70628  0.50000  0.20628  Biso   1.000  Cu
  Cu8      1.0000 0.65505  0.50000  0.15505  Biso   1.000  Cu
  Cu9      1.0000 0.79372  0.00000  0.20628  Biso   1.000  Cu
  Cu10     1.0000 0.84495  0.00000  0.15505  Biso   1.000  Cu
  Cu11     1.0000 0.79372  0.50000  0.70628  Biso   1.000  Cu
  Cu12     1.0000 0.84495  0.50000  0.65505  Biso   1.000  Cu
  Cu13     1.0000 0.29372  0.00000  0.70628  Biso   1.000  Cu
  Cu14     1.0000 0.34495  0.00000  0.65505  Biso   1.000  Cu
  Cu15     1.0000 0.29372  0.50000  0.20628  Biso   1.000  Cu
  Cu16     1.0000 0.34495  0.50000  0.15505  Biso   1.000  Cu
  Cu17     1.0000 0.79372  0.00000  0.79372  Biso   1.000  Cu
  Cu18     1.0000 0.84495  0.00000  0.84495  Biso   1.000  Cu
  Cu19     1.0000 0.79372  0.50000  0.29372  Biso   1.000  Cu
  Cu20     1.0000 0.84495  0.50000  0.34495  Biso   1.000  Cu
  Cu21     1.0000 0.29372  0.00000  0.29372  Biso   1.000  Cu
  Cu22     1.0000 0.34495  0.00000  0.34495  Biso   1.000  Cu
  Cu23     1.0000 0.29372  0.50000  0.79372  Biso   1.000  Cu
  Cu24     1.0000 0.34495  0.50000  0.84495  Biso   1.000  Cu
  Cu25     1.0000 0.20628  0.00000  0.79372  Biso   1.000  Cu
  Cu26     1.0000 0.15505  0.00000  0.84495  Biso   1.000  Cu
  Cu27     1.0000 0.20628  0.50000  0.29372  Biso   1.000  Cu
  Cu28     1.0000 0.15505  0.50000  0.34495  Biso   1.000  Cu
  Cu29     1.0000 0.70628  0.00000  0.29372  Biso   1.000  Cu
  Cu30     1.0000 0.65505  0.00000  0.34495  Biso   1.000  Cu
  Cu31     1.0000 0.70628  0.50000  0.79372  Biso   1.000  Cu
  Cu32     1.0000 0.65505  0.50000  0.84495  Biso   1.000  Cu
  Cu33     1.0000 0.20628  0.20628  0.00000  Biso   1.000  Cu
  Cu34     1.0000 0.15505  0.15505  0.00000  Biso   1.000  Cu
  Cu35     1.0000 0.20628  0.70628  0.50000  Biso   1.000  Cu
  Cu36     1.0000 0.15505  0.65505  0.50000  Biso   1.000  Cu
  Cu37     1.0000 0.70628  0.20628  0.50000  Biso   1.000  Cu
  Cu38     1.0000 0.65505  0.15505  0.50000  Biso   1.000  Cu
  Cu39     1.0000 0.70628  0.70628  0.00000  Biso   1.000  Cu
  Cu40     1.0000 0.65505  0.65505  0.00000  Biso   1.000  Cu
  Cu41     1.0000 0.20628  0.79372  0.00000  Biso   1.000  Cu
  Cu42     1.0000 0.15505  0.84495  0.00000  Biso   1.000  Cu
  Cu43     1.0000 0.20628  0.29372  0.50000  Biso   1.000  Cu
  Cu44     1.0000 0.15505  0.34495  0.50000  Biso   1.000  Cu
  Cu45     1.0000 0.70628  0.79372  0.50000  Biso   1.000  Cu
  Cu46     1.0000 0.65505  0.84495  0.50000  Biso   1.000  Cu
  Cu47     1.0000 0.70628  0.29372  0.00000  Biso   1.000  Cu
  Cu48     1.0000 0.65505  0.34495  0.00000  Biso   1.000  Cu
  Cu49     1.0000 0.79372  0.79372  0.00000  Biso   1.000  Cu
  Cu50     1.0000 0.84495  0.84495  0.00000  Biso   1.000  Cu
  Cu51     1.0000 0.79372  0.29372  0.50000  Biso   1.000  Cu
  Cu52     1.0000 0.84495  0.34495  0.50000  Biso   1.000  Cu
  Cu53     1.0000 0.29372  0.79372  0.50000  Biso   1.000  Cu
  Cu54     1.0000 0.34495  0.84495  0.50000  Biso   1.000  Cu
  Cu55     1.0000 0.29372  0.29372  0.00000  Biso   1.000  Cu
  Cu56     1.0000 0.34495  0.34495  0.00000  Biso   1.000  Cu
  Cu57     1.0000 0.79372  0.20628  0.00000  Biso   1.000  Cu
  Cu58     1.0000 0.84495  0.15505  0.00000  Biso   1.000  Cu
  Cu59     1.0000 0.79372  0.70628  0.50000  Biso   1.000  Cu
  Cu60     1.0000 0.84495  0.65505  0.50000  Biso   1.000  Cu
  Cu61     1.0000 0.29372  0.20628  0.50000  Biso   1.000  Cu
  Cu62     1.0000 0.34495  0.15505  0.50000  Biso   1.000  Cu
  Cu63     1.0000 0.29372  0.70628  0.00000  Biso   1.000  Cu
  Cu64     1.0000 0.34495  0.65505  0.00000  Biso   1.000  Cu
  Cu65     1.0000 0.00000  0.20628  0.20628  Biso   1.000  Cu
  Cu66     1.0000 0.00000  0.15505  0.15505  Biso   1.000  Cu
  Cu67     1.0000 0.00000  0.70628  0.70628  Biso   1.000  Cu
  Cu68     1.0000 0.00000  0.65505  0.65505  Biso   1.000  Cu
  Cu69     1.0000 0.50000  0.20628  0.70628  Biso   1.000  Cu
  Cu70     1.0000 0.50000  0.15505  0.65505  Biso   1.000  Cu
  Cu71     1.0000 0.50000  0.70628  0.20628  Biso   1.000  Cu
  Cu72     1.0000 0.50000  0.65505  0.15505  Biso   1.000  Cu
  Cu73     1.0000 0.00000  0.20628  0.79372  Biso   1.000  Cu
  Cu74     1.0000 0.00000  0.15505  0.84495  Biso   1.000  Cu
  Cu75     1.0000 0.00000  0.70628  0.29372  Biso   1.000  Cu
  Cu76     1.0000 0.00000  0.65505  0.34495  Biso   1.000  Cu
  Cu77     1.0000 0.50000  0.20628  0.29372  Biso   1.000  Cu
  Cu78     1.0000 0.50000  0.15505  0.34495  Biso   1.000  Cu
  Cu79     1.0000 0.50000  0.70628  0.79372  Biso   1.000  Cu
  Cu80     1.0000 0.50000  0.65505  0.84495  Biso   1.000  Cu
  Cu81     1.0000 0.00000  0.79372  0.79372  Biso   1.000  Cu
  Cu82     1.0000 0.00000  0.84495  0.84495  Biso   1.000  Cu
  Cu83     1.0000 0.00000  0.29372  0.29372  Biso   1.000  Cu
  Cu84     1.0000 0.00000  0.34495  0.34495  Biso   1.000  Cu
  Cu85     1.0000 0.50000  0.79372  0.29372  Biso   1.000  Cu
  Cu86     1.0000 0.50000  0.84495  0.34495  Biso   1.000  Cu
  Cu87     1.0000 0.50000  0.29372  0.79372  Biso   1.000  Cu
  Cu88     1.0000 0.50000  0.34495  0.84495  Biso   1.000  Cu
  Cu89     1.0000 0.00000  0.79372  0.20628  Biso   1.000  Cu
  Cu90     1.0000 0.00000  0.84495  0.15505  Biso   1.000  Cu
  Cu91     1.0000 0.00000  0.29372  0.70628  Biso   1.000  Cu
  Cu92     1.0000 0.00000  0.34495  0.65505  Biso   1.000  Cu
  Cu93     1.0000 0.50000  0.79372  0.70628  Biso   1.000  Cu
  Cu94     1.0000 0.50000  0.84495  0.65505  Biso   1.000  Cu
  Cu95     1.0000 0.50000  0.29372  0.20628  Biso   1.000  Cu
  Cu96     1.0000 0.50000  0.34495  0.15505  Biso   1.000  Cu
  C577     1.0000 0.21850  0.90317  0.09683  Biso   1.000  C
  H385     1.0000 0.19560  0.91220  0.08780  Biso   1.000  H
  C578     1.0000 0.28940  0.88113  0.11887  Biso   1.000  C
  C579     1.0000 0.32550  0.86990  0.13010  Biso   1.000  C
  C580     1.0000 0.21850  0.40317  0.59683  Biso   1.000  C
  H386     1.0000 0.19560  0.41220  0.58780  Biso   1.000  H
  C581     1.0000 0.28940  0.38113  0.61887  Biso   1.000  C
  C582     1.0000 0.32550  0.36990  0.63010  Biso   1.000  C
  C583     1.0000 0.71850  0.90317  0.59683  Biso   1.000  C
  H387     1.0000 0.69560  0.91220  0.58780  Biso   1.000  H
  C584     1.0000 0.78940  0.88113  0.61887  Biso   1.000  C
  C585     1.0000 0.82550  0.86990  0.63010  Biso   1.000  C
  C586     1.0000 0.71850  0.40317  0.09683  Biso   1.000  C
  H388     1.0000 0.69560  0.41220  0.08780  Biso   1.000  H
  C587     1.0000 0.78940  0.38113  0.11887  Biso   1.000  C
  C588     1.0000 0.82550  0.36990  0.13010  Biso   1.000  C
  C589     1.0000 0.78150  0.09683  0.09683  Biso   1.000  C
  H389     1.0000 0.80440  0.08780  0.08780  Biso   1.000  H
  C590     1.0000 0.71060  0.11887  0.11887  Biso   1.000  C
  C591     1.0000 0.67450  0.13010  0.13010  Biso   1.000  C
  C592     1.0000 0.78150  0.59683  0.59683  Biso   1.000  C
  H390     1.0000 0.80440  0.58780  0.58780  Biso   1.000  H
  C593     1.0000 0.71060  0.61887  0.61887  Biso   1.000  C
  C594     1.0000 0.67450  0.63010  0.63010  Biso   1.000  C
  C595     1.0000 0.28150  0.09683  0.59683  Biso   1.000  C
  H391     1.0000 0.30440  0.08780  0.58780  Biso   1.000  H
  C596     1.0000 0.21060  0.11887  0.61887  Biso   1.000  C
  C597     1.0000 0.17450  0.13010  0.63010  Biso   1.000  C
  C598     1.0000 0.28150  0.59683  0.09683  Biso   1.000  C
  H392     1.0000 0.30440  0.58780  0.08780  Biso   1.000  H
  C599     1.0000 0.21060  0.61887  0.11887  Biso   1.000  C
  C600     1.0000 0.17450  0.63010  0.13010  Biso   1.000  C
  C601     1.0000 0.78150  0.90317  0.90317  Biso   1.000  C
  H393     1.0000 0.80440  0.91220  0.91220  Biso   1.000  H
  C602     1.0000 0.71060  0.88113  0.88113  Biso   1.000  C
  C603     1.0000 0.67450  0.86990  0.86990  Biso   1.000  C
  C604     1.0000 0.78150  0.40317  0.40317  Biso   1.000  C
  H394     1.0000 0.80440  0.41220  0.41220  Biso   1.000  H
  C605     1.0000 0.71060  0.38113  0.38113  Biso   1.000  C
  C606     1.0000 0.67450  0.36990  0.36990  Biso   1.000  C
  C607     1.0000 0.28150  0.90317  0.40317  Biso   1.000  C
  H395     1.0000 0.30440  0.91220  0.41220  Biso   1.000  H
  C608     1.0000 0.21060  0.88113  0.38113  Biso   1.000  C
  C609     1.0000 0.17450  0.86990  0.36990  Biso   1.000  C
  C610     1.0000 0.28150  0.40317  0.90317  Biso   1.000  C
  H396     1.0000 0.30440  0.41220  0.91220  Biso   1.000  H
  C611     1.0000 0.21060  0.38113  0.88113  Biso   1.000  C
  C612     1.0000 0.17450  0.36990  0.86990  Biso   1.000  C
  C613     1.0000 0.21850  0.09683  0.90317  Biso   1.000  C
  H397     1.0000 0.19560  0.08780  0.91220  Biso   1.000  H
  C614     1.0000 0.28940  0.11887  0.88113  Biso   1.000  C
  C615     1.0000 0.32550  0.13010  0.86990  Biso   1.000  C
  C616     1.0000 0.21850  0.59683  0.40317  Biso   1.000  C
  H398     1.0000 0.19560  0.58780  0.41220  Biso   1.000  H
  C617     1.0000 0.28940  0.61887  0.38113  Biso   1.000  C
  C618     1.0000 0.32550  0.63010  0.36990  Biso   1.000  C
  C619     1.0000 0.71850  0.09683  0.40317  Biso   1.000  C
  H399     1.0000 0.69560  0.08780  0.41220  Biso   1.000  H
  C620     1.0000 0.78940  0.11887  0.38113  Biso   1.000  C
  C621     1.0000 0.82550  0.13010  0.36990  Biso   1.000  C
  C622     1.0000 0.71850  0.59683  0.90317  Biso   1.000  C
  H400     1.0000 0.69560  0.58780  0.91220  Biso   1.000  H
  C623     1.0000 0.78940  0.61887  0.88113  Biso   1.000  C
  C624     1.0000 0.82550  0.63010  0.86990  Biso   1.000  C
  C625     1.0000 0.09683  0.21850  0.90317  Biso   1.000  C
  H401     1.0000 0.08780  0.19560  0.91220  Biso   1.000  H
  C626     1.0000 0.11887  0.28940  0.88113  Biso   1.000  C
  C627     1.0000 0.13010  0.32550  0.86990  Biso   1.000  C
  C628     1.0000 0.09683  0.71850  0.40317  Biso   1.000  C
  H402     1.0000 0.08780  0.69560  0.41220  Biso   1.000  H
  C629     1.0000 0.11887  0.78940  0.38113  Biso   1.000  C
  C630     1.0000 0.13010  0.82550  0.36990  Biso   1.000  C
  C631     1.0000 0.59683  0.21850  0.40317  Biso   1.000  C
  H403     1.0000 0.58780  0.19560  0.41220  Biso   1.000  H
  C632     1.0000 0.61887  0.28940  0.38113  Biso   1.000  C
  C633     1.0000 0.63010  0.32550  0.36990  Biso   1.000  C
  C634     1.0000 0.59683  0.71850  0.90317  Biso   1.000  C
  H404     1.0000 0.58780  0.69560  0.91220  Biso   1.000  H
  C635     1.0000 0.61887  0.78940  0.88113  Biso   1.000  C
  C636     1.0000 0.63010  0.82550  0.86990  Biso   1.000  C
  C637     1.0000 0.09683  0.78150  0.09683  Biso   1.000  C
  H405     1.0000 0.08780  0.80440  0.08780  Biso   1.000  H
  C638     1.0000 0.11887  0.71060  0.11887  Biso   1.000  C
  C639     1.0000 0.13010  0.67450  0.13010  Biso   1.000  C
  C640     1.0000 0.09683  0.28150  0.59683  Biso   1.000  C
  H406     1.0000 0.08780  0.30440  0.58780  Biso   1.000  H
  C641     1.0000 0.11887  0.21060  0.61887  Biso   1.000  C
  C642     1.0000 0.13010  0.17450  0.63010  Biso   1.000  C
  C643     1.0000 0.59683  0.78150  0.59683  Biso   1.000  C
  H407     1.0000 0.58780  0.80440  0.58780  Biso   1.000  H
  C644     1.0000 0.61887  0.71060  0.61887  Biso   1.000  C
  C645     1.0000 0.63010  0.67450  0.63010  Biso   1.000  C
  C646     1.0000 0.59683  0.28150  0.09683  Biso   1.000  C
  H408     1.0000 0.58780  0.30440  0.08780  Biso   1.000  H
  C647     1.0000 0.61887  0.21060  0.11887  Biso   1.000  C
  C648     1.0000 0.63010  0.17450  0.13010  Biso   1.000  C
  C649     1.0000 0.90317  0.78150  0.90317  Biso   1.000  C
  H409     1.0000 0.91220  0.80440  0.91220  Biso   1.000  H
  C650     1.0000 0.88113  0.71060  0.88113  Biso   1.000  C
  C651     1.0000 0.86990  0.67450  0.86990  Biso   1.000  C
  C652     1.0000 0.90317  0.28150  0.40317  Biso   1.000  C
  H410     1.0000 0.91220  0.30440  0.41220  Biso   1.000  H
  C653     1.0000 0.88113  0.21060  0.38113  Biso   1.000  C
  C654     1.0000 0.86990  0.17450  0.36990  Biso   1.000  C
  C655     1.0000 0.40317  0.78150  0.40317  Biso   1.000  C
  H411     1.0000 0.41220  0.80440  0.41220  Biso   1.000  H
  C656     1.0000 0.38113  0.71060  0.38113  Biso   1.000  C
  C657     1.0000 0.36990  0.67450  0.36990  Biso   1.000  C
  C658     1.0000 0.40317  0.28150  0.90317  Biso   1.000  C
  H412     1.0000 0.41220  0.30440  0.91220  Biso   1.000  H
  C659     1.0000 0.38113  0.21060  0.88113  Biso   1.000  C
  C660     1.0000 0.36990  0.17450  0.86990  Biso   1.000  C
  C661     1.0000 0.90317  0.21850  0.09683  Biso   1.000  C
  H413     1.0000 0.91220  0.19560  0.08780  Biso   1.000  H
  C662     1.0000 0.88113  0.28940  0.11887  Biso   1.000  C
  C663     1.0000 0.86990  0.32550  0.13010  Biso   1.000  C
  C664     1.0000 0.90317  0.71850  0.59683  Biso   1.000  C
  H414     1.0000 0.91220  0.69560  0.58780  Biso   1.000  H
  C665     1.0000 0.88113  0.78940  0.61887  Biso   1.000  C
  C666     1.0000 0.86990  0.82550  0.63010  Biso   1.000  C
  C667     1.0000 0.40317  0.21850  0.59683  Biso   1.000  C
  H415     1.0000 0.41220  0.19560  0.58780  Biso   1.000  H
  C668     1.0000 0.38113  0.28940  0.61887  Biso   1.000  C
  C669     1.0000 0.36990  0.32550  0.63010  Biso   1.000  C
  C670     1.0000 0.40317  0.71850  0.09683  Biso   1.000  C
  H416     1.0000 0.41220  0.69560  0.08780  Biso   1.000  H
  C671     1.0000 0.38113  0.78940  0.11887  Biso   1.000  C
  C672     1.0000 0.36990  0.82550  0.13010  Biso   1.000  C
  C673     1.0000 0.90317  0.09683  0.21850  Biso   1.000  C
  H417     1.0000 0.91220  0.08780  0.19560  Biso   1.000  H
  C674     1.0000 0.88113  0.11887  0.28940  Biso   1.000  C
  C675     1.0000 0.86990  0.13010  0.32550  Biso   1.000  C
  C676     1.0000 0.90317  0.59683  0.71850  Biso   1.000  C
  H418     1.0000 0.91220  0.58780  0.69560  Biso   1.000  H
  C677     1.0000 0.88113  0.61887  0.78940  Biso   1.000  C
  C678     1.0000 0.86990  0.63010  0.82550  Biso   1.000  C
  C679     1.0000 0.40317  0.09683  0.71850  Biso   1.000  C
  H419     1.0000 0.41220  0.08780  0.69560  Biso   1.000  H
  C680     1.0000 0.38113  0.11887  0.78940  Biso   1.000  C
  C681     1.0000 0.36990  0.13010  0.82550  Biso   1.000  C
  C682     1.0000 0.40317  0.59683  0.21850  Biso   1.000  C
  H420     1.0000 0.41220  0.58780  0.19560  Biso   1.000  H
  C683     1.0000 0.38113  0.61887  0.28940  Biso   1.000  C
  C684     1.0000 0.36990  0.63010  0.32550  Biso   1.000  C
  C685     1.0000 0.09683  0.09683  0.78150  Biso   1.000  C
  H421     1.0000 0.08780  0.08780  0.80440  Biso   1.000  H
  C686     1.0000 0.11887  0.11887  0.71060  Biso   1.000  C
  C687     1.0000 0.13010  0.13010  0.67450  Biso   1.000  C
  C688     1.0000 0.09683  0.59683  0.28150  Biso   1.000  C
  H422     1.0000 0.08780  0.58780  0.30440  Biso   1.000  H
  C689     1.0000 0.11887  0.61887  0.21060  Biso   1.000  C
  C690     1.0000 0.13010  0.63010  0.17450  Biso   1.000  C
  C691     1.0000 0.59683  0.09683  0.28150  Biso   1.000  C
  H423     1.0000 0.58780  0.08780  0.30440  Biso   1.000  H
  C692     1.0000 0.61887  0.11887  0.21060  Biso   1.000  C
  C693     1.0000 0.63010  0.13010  0.17450  Biso   1.000  C
  C694     1.0000 0.59683  0.59683  0.78150  Biso   1.000  C
  H424     1.0000 0.58780  0.58780  0.80440  Biso   1.000  H
  C695     1.0000 0.61887  0.61887  0.71060  Biso   1.000  C
  C696     1.0000 0.63010  0.63010  0.67450  Biso   1.000  C
  C697     1.0000 0.90317  0.90317  0.78150  Biso   1.000  C
  H425     1.0000 0.91220  0.91220  0.80440  Biso   1.000  H
  C698     1.0000 0.88113  0.88113  0.71060  Biso   1.000  C
  C699     1.0000 0.86990  0.86990  0.67450  Biso   1.000  C
  C700     1.0000 0.90317  0.40317  0.28150  Biso   1.000  C
  H426     1.0000 0.91220  0.41220  0.30440  Biso   1.000  H
  C701     1.0000 0.88113  0.38113  0.21060  Biso   1.000  C
  C702     1.0000 0.86990  0.36990  0.17450  Biso   1.000  C
  C703     1.0000 0.40317  0.90317  0.28150  Biso   1.000  C
  H427     1.0000 0.41220  0.91220  0.30440  Biso   1.000  H
  C704     1.0000 0.38113  0.88113  0.21060  Biso   1.000  C
  C705     1.0000 0.36990  0.86990  0.17450  Biso   1.000  C
  C706     1.0000 0.40317  0.40317  0.78150  Biso   1.000  C
  H428     1.0000 0.41220  0.41220  0.80440  Biso   1.000  H
  C707     1.0000 0.38113  0.38113  0.71060  Biso   1.000  C
  C708     1.0000 0.36990  0.36990  0.67450  Biso   1.000  C
  C709     1.0000 0.09683  0.90317  0.21850  Biso   1.000  C
  H429     1.0000 0.08780  0.91220  0.19560  Biso   1.000  H
  C710     1.0000 0.11887  0.88113  0.28940  Biso   1.000  C
  C711     1.0000 0.13010  0.86990  0.32550  Biso   1.000  C
  C712     1.0000 0.09683  0.40317  0.71850  Biso   1.000  C
  H430     1.0000 0.08780  0.41220  0.69560  Biso   1.000  H
  C713     1.0000 0.11887  0.38113  0.78940  Biso   1.000  C
  C714     1.0000 0.13010  0.36990  0.82550  Biso   1.000  C
  C715     1.0000 0.59683  0.90317  0.71850  Biso   1.000  C
  H431     1.0000 0.58780  0.91220  0.69560  Biso   1.000  H
  C716     1.0000 0.61887  0.88113  0.78940  Biso   1.000  C
  C717     1.0000 0.63010  0.86990  0.82550  Biso   1.000  C
  C718     1.0000 0.59683  0.40317  0.21850  Biso   1.000  C
  H432     1.0000 0.58780  0.41220  0.19560  Biso   1.000  H
  C719     1.0000 0.61887  0.38113  0.28940  Biso   1.000  C
  C720     1.0000 0.63010  0.36990  0.32550  Biso   1.000  C
  C721     1.0000 0.90317  0.21850  0.90317  Biso   1.000  C
  H433     1.0000 0.91220  0.19560  0.91220  Biso   1.000  H
  C722     1.0000 0.88113  0.28940  0.88113  Biso   1.000  C
  C723     1.0000 0.86990  0.32550  0.86990  Biso   1.000  C
  C724     1.0000 0.90317  0.71850  0.40317  Biso   1.000  C
  H434     1.0000 0.91220  0.69560  0.41220  Biso   1.000  H
  C725     1.0000 0.88113  0.78940  0.38113  Biso   1.000  C
  C726     1.0000 0.86990  0.82550  0.36990  Biso   1.000  C
  C727     1.0000 0.40317  0.21850  0.40317  Biso   1.000  C
  H435     1.0000 0.41220  0.19560  0.41220  Biso   1.000  H
  C728     1.0000 0.38113  0.28940  0.38113  Biso   1.000  C
  C729     1.0000 0.36990  0.32550  0.36990  Biso   1.000  C
  C730     1.0000 0.40317  0.71850  0.90317  Biso   1.000  C
  H436     1.0000 0.41220  0.69560  0.91220  Biso   1.000  H
  C731     1.0000 0.38113  0.78940  0.88113  Biso   1.000  C
  C732     1.0000 0.36990  0.82550  0.86990  Biso   1.000  C
  C733     1.0000 0.09683  0.78150  0.90317  Biso   1.000  C
  H437     1.0000 0.08780  0.80440  0.91220  Biso   1.000  H
  C734     1.0000 0.11887  0.71060  0.88113  Biso   1.000  C
  C735     1.0000 0.13010  0.67450  0.86990  Biso   1.000  C
  C736     1.0000 0.09683  0.28150  0.40317  Biso   1.000  C
  H438     1.0000 0.08780  0.30440  0.41220  Biso   1.000  H
  C737     1.0000 0.11887  0.21060  0.38113  Biso   1.000  C
  C738     1.0000 0.13010  0.17450  0.36990  Biso   1.000  C
  C739     1.0000 0.59683  0.78150  0.40317  Biso   1.000  C
  H439     1.0000 0.58780  0.80440  0.41220  Biso   1.000  H
  C740     1.0000 0.61887  0.71060  0.38113  Biso   1.000  C
  C741     1.0000 0.63010  0.67450  0.36990  Biso   1.000  C
  C742     1.0000 0.59683  0.28150  0.90317  Biso   1.000  C
  H440     1.0000 0.58780  0.30440  0.91220  Biso   1.000  H
  C743     1.0000 0.61887  0.21060  0.88113  Biso   1.000  C
  C744     1.0000 0.63010  0.17450  0.86990  Biso   1.000  C
  C745     1.0000 0.90317  0.78150  0.09683  Biso   1.000  C
  H441     1.0000 0.91220  0.80440  0.08780  Biso   1.000  H
  C746     1.0000 0.88113  0.71060  0.11887  Biso   1.000  C
  C747     1.0000 0.86990  0.67450  0.13010  Biso   1.000  C
  C748     1.0000 0.90317  0.28150  0.59683  Biso   1.000  C
  H442     1.0000 0.91220  0.30440  0.58780  Biso   1.000  H
  C749     1.0000 0.88113  0.21060  0.61887  Biso   1.000  C
  C750     1.0000 0.86990  0.17450  0.63010  Biso   1.000  C
  C751     1.0000 0.40317  0.78150  0.59683  Biso   1.000  C
  H443     1.0000 0.41220  0.80440  0.58780  Biso   1.000  H
  C752     1.0000 0.38113  0.71060  0.61887  Biso   1.000  C
  C753     1.0000 0.36990  0.67450  0.63010  Biso   1.000  C
  C754     1.0000 0.40317  0.28150  0.09683  Biso   1.000  C
  H444     1.0000 0.41220  0.30440  0.08780  Biso   1.000  H
  C755     1.0000 0.38113  0.21060  0.11887  Biso   1.000  C
  C756     1.0000 0.36990  0.17450  0.13010  Biso   1.000  C
  C757     1.0000 0.09683  0.21850  0.09683  Biso   1.000  C
  H445     1.0000 0.08780  0.19560  0.08780  Biso   1.000  H
  C758     1.0000 0.11887  0.28940  0.11887  Biso   1.000  C
  C759     1.0000 0.13010  0.32550  0.13010  Biso   1.000  C
  C760     1.0000 0.09683  0.71850  0.59683  Biso   1.000  C
  H446     1.0000 0.08780  0.69560  0.58780  Biso   1.000  H
  C761     1.0000 0.11887  0.78940  0.61887  Biso   1.000  C
  C762     1.0000 0.13010  0.82550  0.63010  Biso   1.000  C
  C763     1.0000 0.59683  0.21850  0.59683  Biso   1.000  C
  H447     1.0000 0.58780  0.19560  0.58780  Biso   1.000  H
  C764     1.0000 0.61887  0.28940  0.61887  Biso   1.000  C
  C765     1.0000 0.63010  0.32550  0.63010  Biso   1.000  C
  C766     1.0000 0.59683  0.71850  0.09683  Biso   1.000  C
  H448     1.0000 0.58780  0.69560  0.08780  Biso   1.000  H
  C767     1.0000 0.61887  0.78940  0.11887  Biso   1.000  C
  C768     1.0000 0.63010  0.82550  0.13010  Biso   1.000  C
  C769     1.0000 0.21850  0.09683  0.09683  Biso   1.000  C
  H449     1.0000 0.19560  0.08780  0.08780  Biso   1.000  H
  C770     1.0000 0.28940  0.11887  0.11887  Biso   1.000  C
  C771     1.0000 0.32550  0.13010  0.13010  Biso   1.000  C
  C772     1.0000 0.21850  0.59683  0.59683  Biso   1.000  C
  H450     1.0000 0.19560  0.58780  0.58780  Biso   1.000  H
  C773     1.0000 0.28940  0.61887  0.61887  Biso   1.000  C
  C774     1.0000 0.32550  0.63010  0.63010  Biso   1.000  C
  C775     1.0000 0.71850  0.09683  0.59683  Biso   1.000  C
  H451     1.0000 0.69560  0.08780  0.58780  Biso   1.000  H
  C776     1.0000 0.78940  0.11887  0.61887  Biso   1.000  C
  C777     1.0000 0.82550  0.13010  0.63010  Biso   1.000  C
  C778     1.0000 0.71850  0.59683  0.09683  Biso   1.000  C
  H452     1.0000 0.69560  0.58780  0.08780  Biso   1.000  H
  C779     1.0000 0.78940  0.61887  0.11887  Biso   1.000  C
  C780     1.0000 0.82550  0.63010  0.13010  Biso   1.000  C
  C781     1.0000 0.78150  0.09683  0.90317  Biso   1.000  C
  H453     1.0000 0.80440  0.08780  0.91220  Biso   1.000  H
  C782     1.0000 0.71060  0.11887  0.88113  Biso   1.000  C
  C783     1.0000 0.67450  0.13010  0.86990  Biso   1.000  C
  C784     1.0000 0.78150  0.59683  0.40317  Biso   1.000  C
  H454     1.0000 0.80440  0.58780  0.41220  Biso   1.000  H
  C785     1.0000 0.71060  0.61887  0.38113  Biso   1.000  C
  C786     1.0000 0.67450  0.63010  0.36990  Biso   1.000  C
  C787     1.0000 0.28150  0.09683  0.40317  Biso   1.000  C
  H455     1.0000 0.30440  0.08780  0.41220  Biso   1.000  H
  C788     1.0000 0.21060  0.11887  0.38113  Biso   1.000  C
  C789     1.0000 0.17450  0.13010  0.36990  Biso   1.000  C
  C790     1.0000 0.28150  0.59683  0.90317  Biso   1.000  C
  H456     1.0000 0.30440  0.58780  0.91220  Biso   1.000  H
  C791     1.0000 0.21060  0.61887  0.88113  Biso   1.000  C
  C792     1.0000 0.17450  0.63010  0.86990  Biso   1.000  C
  C793     1.0000 0.78150  0.90317  0.09683  Biso   1.000  C
  H457     1.0000 0.80440  0.91220  0.08780  Biso   1.000  H
  C794     1.0000 0.71060  0.88113  0.11887  Biso   1.000  C
  C795     1.0000 0.67450  0.86990  0.13010  Biso   1.000  C
  C796     1.0000 0.78150  0.40317  0.59683  Biso   1.000  C
  H458     1.0000 0.80440  0.41220  0.58780  Biso   1.000  H
  C797     1.0000 0.71060  0.38113  0.61887  Biso   1.000  C
  C798     1.0000 0.67450  0.36990  0.63010  Biso   1.000  C
  C799     1.0000 0.28150  0.90317  0.59683  Biso   1.000  C
  H459     1.0000 0.30440  0.91220  0.58780  Biso   1.000  H
  C800     1.0000 0.21060  0.88113  0.61887  Biso   1.000  C
  C801     1.0000 0.17450  0.86990  0.63010  Biso   1.000  C
  C802     1.0000 0.28150  0.40317  0.09683  Biso   1.000  C
  H460     1.0000 0.30440  0.41220  0.08780  Biso   1.000  H
  C803     1.0000 0.21060  0.38113  0.11887  Biso   1.000  C
  C804     1.0000 0.17450  0.36990  0.13010  Biso   1.000  C
  C805     1.0000 0.21850  0.90317  0.90317  Biso   1.000  C
  H461     1.0000 0.19560  0.91220  0.91220  Biso   1.000  H
  C806     1.0000 0.28940  0.88113  0.88113  Biso   1.000  C
  C807     1.0000 0.32550  0.86990  0.86990  Biso   1.000  C
  C808     1.0000 0.21850  0.40317  0.40317  Biso   1.000  C
  H462     1.0000 0.19560  0.41220  0.41220  Biso   1.000  H
  C809     1.0000 0.28940  0.38113  0.38113  Biso   1.000  C
  C810     1.0000 0.32550  0.36990  0.36990  Biso   1.000  C
  C811     1.0000 0.71850  0.90317  0.40317  Biso   1.000  C
  H463     1.0000 0.69560  0.91220  0.41220  Biso   1.000  H
  C812     1.0000 0.78940  0.88113  0.38113  Biso   1.000  C
  C813     1.0000 0.82550  0.86990  0.36990  Biso   1.000  C
  C814     1.0000 0.71850  0.40317  0.90317  Biso   1.000  C
  H464     1.0000 0.69560  0.41220  0.91220  Biso   1.000  H
  C815     1.0000 0.78940  0.38113  0.88113  Biso   1.000  C
  C816     1.0000 0.82550  0.36990  0.86990  Biso   1.000  C
  C817     1.0000 0.09683  0.90317  0.78150  Biso   1.000  C
  H465     1.0000 0.08780  0.91220  0.80440  Biso   1.000  H
  C818     1.0000 0.11887  0.88113  0.71060  Biso   1.000  C
  C819     1.0000 0.13010  0.86990  0.67450  Biso   1.000  C
  C820     1.0000 0.09683  0.40317  0.28150  Biso   1.000  C
  H466     1.0000 0.08780  0.41220  0.30440  Biso   1.000  H
  C821     1.0000 0.11887  0.38113  0.21060  Biso   1.000  C
  C822     1.0000 0.13010  0.36990  0.17450  Biso   1.000  C
  C823     1.0000 0.59683  0.90317  0.28150  Biso   1.000  C
  H467     1.0000 0.58780  0.91220  0.30440  Biso   1.000  H
  C824     1.0000 0.61887  0.88113  0.21060  Biso   1.000  C
  C825     1.0000 0.63010  0.86990  0.17450  Biso   1.000  C
  C826     1.0000 0.59683  0.40317  0.78150  Biso   1.000  C
  H468     1.0000 0.58780  0.41220  0.80440  Biso   1.000  H
  C827     1.0000 0.61887  0.38113  0.71060  Biso   1.000  C
  C828     1.0000 0.63010  0.36990  0.67450  Biso   1.000  C
  C829     1.0000 0.09683  0.09683  0.21850  Biso   1.000  C
  H469     1.0000 0.08780  0.08780  0.19560  Biso   1.000  H
  C830     1.0000 0.11887  0.11887  0.28940  Biso   1.000  C
  C831     1.0000 0.13010  0.13010  0.32550  Biso   1.000  C
  C832     1.0000 0.09683  0.59683  0.71850  Biso   1.000  C
  H470     1.0000 0.08780  0.58780  0.69560  Biso   1.000  H
  C833     1.0000 0.11887  0.61887  0.78940  Biso   1.000  C
  C834     1.0000 0.13010  0.63010  0.82550  Biso   1.000  C
  C835     1.0000 0.59683  0.09683  0.71850  Biso   1.000  C
  H471     1.0000 0.58780  0.08780  0.69560  Biso   1.000  H
  C836     1.0000 0.61887  0.11887  0.78940  Biso   1.000  C
  C837     1.0000 0.63010  0.13010  0.82550  Biso   1.000  C
  C838     1.0000 0.59683  0.59683  0.21850  Biso   1.000  C
  H472     1.0000 0.58780  0.58780  0.19560  Biso   1.000  H
  C839     1.0000 0.61887  0.61887  0.28940  Biso   1.000  C
  C840     1.0000 0.63010  0.63010  0.32550  Biso   1.000  C
  C841     1.0000 0.90317  0.90317  0.21850  Biso   1.000  C
  H473     1.0000 0.91220  0.91220  0.19560  Biso   1.000  H
  C842     1.0000 0.88113  0.88113  0.28940  Biso   1.000  C
  C843     1.0000 0.86990  0.86990  0.32550  Biso   1.000  C
  C844     1.0000 0.90317  0.40317  0.71850  Biso   1.000  C
  H474     1.0000 0.91220  0.41220  0.69560  Biso   1.000  H
  C845     1.0000 0.88113  0.38113  0.78940  Biso   1.000  C
  C846     1.0000 0.86990  0.36990  0.82550  Biso   1.000  C
  C847     1.0000 0.40317  0.90317  0.71850  Biso   1.000  C
  H475     1.0000 0.41220  0.91220  0.69560  Biso   1.000  H
  C848     1.0000 0.38113  0.88113  0.78940  Biso   1.000  C
  C849     1.0000 0.36990  0.86990  0.82550  Biso   1.000  C
  C850     1.0000 0.40317  0.40317  0.21850  Biso   1.000  C
  H476     1.0000 0.41220  0.41220  0.19560  Biso   1.000  H
  C851     1.0000 0.38113  0.38113  0.28940  Biso   1.000  C
  C852     1.0000 0.36990  0.36990  0.32550  Biso   1.000  C
  C853     1.0000 0.90317  0.09683  0.78150  Biso   1.000  C
  H477     1.0000 0.91220  0.08780  0.80440  Biso   1.000  H
  C854     1.0000 0.88113  0.11887  0.71060  Biso   1.000  C
  C855     1.0000 0.86990  0.13010  0.67450  Biso   1.000  C
  C856     1.0000 0.90317  0.59683  0.28150  Biso   1.000  C
  H478     1.0000 0.91220  0.58780  0.30440  Biso   1.000  H
  C857     1.0000 0.88113  0.61887  0.21060  Biso   1.000  C
  C858     1.0000 0.86990  0.63010  0.17450  Biso   1.000  C
  C859     1.0000 0.40317  0.09683  0.28150  Biso   1.000  C
  H479     1.0000 0.41220  0.08780  0.30440  Biso   1.000  H
  C860     1.0000 0.38113  0.11887  0.21060  Biso   1.000  C
  C861     1.0000 0.36990  0.13010  0.17450  Biso   1.000  C
  C862     1.0000 0.40317  0.59683  0.78150  Biso   1.000  C
  H480     1.0000 0.41220  0.58780  0.80440  Biso   1.000  H
  C863     1.0000 0.38113  0.61887  0.71060  Biso   1.000  C
  C864     1.0000 0.36990  0.63010  0.67450  Biso   1.000  C
  C865     1.0000 0.34160  0.88560  0.15840  Biso   1.000  C
  H481     1.0000 0.33260  0.90860  0.16740  Biso   1.000  H
  C866     1.0000 0.34160  0.38560  0.65840  Biso   1.000  C
  H482     1.0000 0.33260  0.40860  0.66740  Biso   1.000  H
  C867     1.0000 0.65840  0.11440  0.15840  Biso   1.000  C
  H483     1.0000 0.66740  0.09140  0.16740  Biso   1.000  H
  C868     1.0000 0.65840  0.61440  0.65840  Biso   1.000  C
  H484     1.0000 0.66740  0.59140  0.66740  Biso   1.000  H
  C869     1.0000 0.15840  0.61440  0.15840  Biso   1.000  C
  H485     1.0000 0.16740  0.59140  0.16740  Biso   1.000  H
  C870     1.0000 0.65840  0.88560  0.84160  Biso   1.000  C
  H486     1.0000 0.66740  0.90860  0.83260  Biso   1.000  H
  C871     1.0000 0.65840  0.38560  0.34160  Biso   1.000  C
  H487     1.0000 0.66740  0.40860  0.33260  Biso   1.000  H
  C872     1.0000 0.15840  0.88560  0.34160  Biso   1.000  C
  H488     1.0000 0.16740  0.90860  0.33260  Biso   1.000  H
  C873     1.0000 0.34160  0.11440  0.84160  Biso   1.000  C
  H489     1.0000 0.33260  0.09140  0.83260  Biso   1.000  H
  C874     1.0000 0.34160  0.61440  0.34160  Biso   1.000  C
  H490     1.0000 0.33260  0.59140  0.33260  Biso   1.000  H
  C875     1.0000 0.15840  0.34160  0.88560  Biso   1.000  C
  H491     1.0000 0.16740  0.33260  0.90860  Biso   1.000  H
  C876     1.0000 0.15840  0.84160  0.38560  Biso   1.000  C
  H492     1.0000 0.16740  0.83260  0.40860  Biso   1.000  H
  C877     1.0000 0.15840  0.65840  0.11440  Biso   1.000  C
  H493     1.0000 0.16740  0.66740  0.09140  Biso   1.000  H
  C878     1.0000 0.15840  0.15840  0.61440  Biso   1.000  C
  H494     1.0000 0.16740  0.16740  0.59140  Biso   1.000  H
  C879     1.0000 0.84160  0.65840  0.88560  Biso   1.000  C
  H495     1.0000 0.83260  0.66740  0.90860  Biso   1.000  H
  C880     1.0000 0.84160  0.15840  0.38560  Biso   1.000  C
  H496     1.0000 0.83260  0.16740  0.40860  Biso   1.000  H
  C881     1.0000 0.34160  0.15840  0.88560  Biso   1.000  C
  H497     1.0000 0.33260  0.16740  0.90860  Biso   1.000  H
  C882     1.0000 0.84160  0.34160  0.11440  Biso   1.000  C
  H498     1.0000 0.83260  0.33260  0.09140  Biso   1.000  H
  C883     1.0000 0.84160  0.84160  0.61440  Biso   1.000  C
  H499     1.0000 0.83260  0.83260  0.59140  Biso   1.000  H
  C884     1.0000 0.34160  0.34160  0.61440  Biso   1.000  C
  H500     1.0000 0.33260  0.33260  0.59140  Biso   1.000  H
  C885     1.0000 0.88560  0.15840  0.34160  Biso   1.000  C
  H501     1.0000 0.90860  0.16740  0.33260  Biso   1.000  H
  C886     1.0000 0.38560  0.15840  0.84160  Biso   1.000  C
  H502     1.0000 0.40860  0.16740  0.83260  Biso   1.000  H
  C887     1.0000 0.11440  0.15840  0.65840  Biso   1.000  C
  H503     1.0000 0.09140  0.16740  0.66740  Biso   1.000  H
  C888     1.0000 0.61440  0.15840  0.15840  Biso   1.000  C
  H504     1.0000 0.59140  0.16740  0.16740  Biso   1.000  H
  C889     1.0000 0.88560  0.84160  0.65840  Biso   1.000  C
  H505     1.0000 0.90860  0.83260  0.66740  Biso   1.000  H
  C890     1.0000 0.88560  0.34160  0.15840  Biso   1.000  C
  H506     1.0000 0.90860  0.33260  0.16740  Biso   1.000  H
  C891     1.0000 0.38560  0.84160  0.15840  Biso   1.000  C
  H507     1.0000 0.40860  0.83260  0.16740  Biso   1.000  H
  C892     1.0000 0.11440  0.84160  0.34160  Biso   1.000  C
  H508     1.0000 0.09140  0.83260  0.33260  Biso   1.000  H
  C893     1.0000 0.61440  0.84160  0.84160  Biso   1.000  C
  H509     1.0000 0.59140  0.83260  0.83260  Biso   1.000  H
  C894     1.0000 0.61440  0.34160  0.34160  Biso   1.000  C
  H510     1.0000 0.59140  0.33260  0.33260  Biso   1.000  H
  C895     1.0000 0.88560  0.34160  0.84160  Biso   1.000  C
  H511     1.0000 0.90860  0.33260  0.83260  Biso   1.000  H
  C896     1.0000 0.38560  0.34160  0.34160  Biso   1.000  C
  H512     1.0000 0.40860  0.33260  0.33260  Biso   1.000  H
  C897     1.0000 0.11440  0.65840  0.84160  Biso   1.000  C
  H513     1.0000 0.09140  0.66740  0.83260  Biso   1.000  H
  C898     1.0000 0.11440  0.15840  0.34160  Biso   1.000  C
  H514     1.0000 0.09140  0.16740  0.33260  Biso   1.000  H
  C899     1.0000 0.61440  0.65840  0.34160  Biso   1.000  C
  H515     1.0000 0.59140  0.66740  0.33260  Biso   1.000  H
  C900     1.0000 0.88560  0.65840  0.15840  Biso   1.000  C
  H516     1.0000 0.90860  0.66740  0.16740  Biso   1.000  H
  C901     1.0000 0.38560  0.65840  0.65840  Biso   1.000  C
  H517     1.0000 0.40860  0.66740  0.66740  Biso   1.000  H
  C902     1.0000 0.38560  0.15840  0.15840  Biso   1.000  C
  H518     1.0000 0.40860  0.16740  0.16740  Biso   1.000  H
  C903     1.0000 0.11440  0.34160  0.15840  Biso   1.000  C
  H519     1.0000 0.09140  0.33260  0.16740  Biso   1.000  H
  C904     1.0000 0.61440  0.34160  0.65840  Biso   1.000  C
  H520     1.0000 0.59140  0.33260  0.66740  Biso   1.000  H
  C905     1.0000 0.34160  0.15840  0.11440  Biso   1.000  C
  H521     1.0000 0.33260  0.16740  0.09140  Biso   1.000  H
  C906     1.0000 0.34160  0.65840  0.61440  Biso   1.000  C
  H522     1.0000 0.33260  0.66740  0.59140  Biso   1.000  H
  C907     1.0000 0.65840  0.15840  0.88560  Biso   1.000  C
  H523     1.0000 0.66740  0.16740  0.90860  Biso   1.000  H
  C908     1.0000 0.65840  0.65840  0.38560  Biso   1.000  C
  H524     1.0000 0.66740  0.66740  0.40860  Biso   1.000  H
  C909     1.0000 0.15840  0.15840  0.38560  Biso   1.000  C
  H525     1.0000 0.16740  0.16740  0.40860  Biso   1.000  H
  C910     1.0000 0.65840  0.84160  0.11440  Biso   1.000  C
  H526     1.0000 0.66740  0.83260  0.09140  Biso   1.000  H
  C911     1.0000 0.65840  0.34160  0.61440  Biso   1.000  C
  H527     1.0000 0.66740  0.33260  0.59140  Biso   1.000  H
  C912     1.0000 0.15840  0.34160  0.11440  Biso   1.000  C
  H528     1.0000 0.16740  0.33260  0.09140  Biso   1.000  H
  C913     1.0000 0.34160  0.84160  0.88560  Biso   1.000  C
  H529     1.0000 0.33260  0.83260  0.90860  Biso   1.000  H
  C914     1.0000 0.34160  0.34160  0.38560  Biso   1.000  C
  H530     1.0000 0.33260  0.33260  0.40860  Biso   1.000  H
  C915     1.0000 0.15840  0.88560  0.65840  Biso   1.000  C
  H531     1.0000 0.16740  0.90860  0.66740  Biso   1.000  H
  C916     1.0000 0.15840  0.38560  0.15840  Biso   1.000  C
  H532     1.0000 0.16740  0.40860  0.16740  Biso   1.000  H
  C917     1.0000 0.15840  0.11440  0.34160  Biso   1.000  C
  H533     1.0000 0.16740  0.09140  0.33260  Biso   1.000  H
  C918     1.0000 0.15840  0.61440  0.84160  Biso   1.000  C
  H534     1.0000 0.16740  0.59140  0.83260  Biso   1.000  H
  C919     1.0000 0.84160  0.88560  0.34160  Biso   1.000  C
  H535     1.0000 0.83260  0.90860  0.33260  Biso   1.000  H
  C920     1.0000 0.84160  0.38560  0.84160  Biso   1.000  C
  H536     1.0000 0.83260  0.40860  0.83260  Biso   1.000  H
  C921     1.0000 0.34160  0.38560  0.34160  Biso   1.000  C
  H537     1.0000 0.33260  0.40860  0.33260  Biso   1.000  H
  C922     1.0000 0.84160  0.11440  0.65840  Biso   1.000  C
  H538     1.0000 0.83260  0.09140  0.66740  Biso   1.000  H
  C923     1.0000 0.84160  0.61440  0.15840  Biso   1.000  C
  H539     1.0000 0.83260  0.59140  0.16740  Biso   1.000  H
  C924     1.0000 0.34160  0.11440  0.15840  Biso   1.000  C
  H540     1.0000 0.33260  0.09140  0.16740  Biso   1.000  H
  C925     1.0000 0.65840  0.11440  0.84160  Biso   1.000  C
  H541     1.0000 0.66740  0.09140  0.83260  Biso   1.000  H
  C926     1.0000 0.65840  0.61440  0.34160  Biso   1.000  C
  H542     1.0000 0.66740  0.59140  0.33260  Biso   1.000  H
  C927     1.0000 0.34160  0.88560  0.84160  Biso   1.000  C
  H543     1.0000 0.33260  0.90860  0.83260  Biso   1.000  H
  C928     1.0000 0.34160  0.61440  0.65840  Biso   1.000  C
  H544     1.0000 0.33260  0.59140  0.66740  Biso   1.000  H
  C929     1.0000 0.65840  0.88560  0.15840  Biso   1.000  C
  H545     1.0000 0.66740  0.90860  0.16740  Biso   1.000  H
  C930     1.0000 0.65840  0.38560  0.65840  Biso   1.000  C
  H546     1.0000 0.66740  0.40860  0.66740  Biso   1.000  H
  C931     1.0000 0.84160  0.65840  0.11440  Biso   1.000  C
  H547     1.0000 0.83260  0.66740  0.09140  Biso   1.000  H
  C932     1.0000 0.84160  0.15840  0.61440  Biso   1.000  C
  H548     1.0000 0.83260  0.16740  0.59140  Biso   1.000  H
  C933     1.0000 0.84160  0.34160  0.88560  Biso   1.000  C
  H549     1.0000 0.83260  0.33260  0.90860  Biso   1.000  H
  C934     1.0000 0.84160  0.84160  0.38560  Biso   1.000  C
  H550     1.0000 0.83260  0.83260  0.40860  Biso   1.000  H
  C935     1.0000 0.15840  0.84160  0.61440  Biso   1.000  C
  H551     1.0000 0.16740  0.83260  0.59140  Biso   1.000  H
  C936     1.0000 0.15840  0.65840  0.88560  Biso   1.000  C
  H552     1.0000 0.16740  0.66740  0.90860  Biso   1.000  H
  C937     1.0000 0.11440  0.84160  0.65840  Biso   1.000  C
  H553     1.0000 0.09140  0.83260  0.66740  Biso   1.000  H
  C938     1.0000 0.61440  0.84160  0.15840  Biso   1.000  C
  H554     1.0000 0.59140  0.83260  0.16740  Biso   1.000  H
  C939     1.0000 0.88560  0.84160  0.34160  Biso   1.000  C
  H555     1.0000 0.90860  0.83260  0.33260  Biso   1.000  H
  C940     1.0000 0.38560  0.84160  0.84160  Biso   1.000  C
  H556     1.0000 0.40860  0.83260  0.83260  Biso   1.000  H
  C941     1.0000 0.61440  0.15840  0.84160  Biso   1.000  C
  H557     1.0000 0.59140  0.16740  0.83260  Biso   1.000  H
  C942     1.0000 0.88560  0.15840  0.65840  Biso   1.000  C
  H558     1.0000 0.90860  0.16740  0.66740  Biso   1.000  H
  C943     1.0000 0.11440  0.65840  0.15840  Biso   1.000  C
  H559     1.0000 0.09140  0.66740  0.16740  Biso   1.000  H
  C944     1.0000 0.61440  0.65840  0.65840  Biso   1.000  C
  H560     1.0000 0.59140  0.66740  0.66740  Biso   1.000  H
  C945     1.0000 0.38560  0.34160  0.65840  Biso   1.000  C
  H561     1.0000 0.40860  0.33260  0.66740  Biso   1.000  H
  C946     1.0000 0.11440  0.34160  0.84160  Biso   1.000  C
  H562     1.0000 0.09140  0.33260  0.83260  Biso   1.000  H
  C947     1.0000 0.88560  0.65840  0.84160  Biso   1.000  C
  H563     1.0000 0.90860  0.66740  0.83260  Biso   1.000  H
  C948     1.0000 0.38560  0.65840  0.34160  Biso   1.000  C
  H564     1.0000 0.40860  0.66740  0.33260  Biso   1.000  H
  C949     1.0000 0.65840  0.84160  0.88560  Biso   1.000  C
  H565     1.0000 0.66740  0.83260  0.90860  Biso   1.000  H
  C950     1.0000 0.65840  0.34160  0.38560  Biso   1.000  C
  H566     1.0000 0.66740  0.33260  0.40860  Biso   1.000  H
  C951     1.0000 0.34160  0.84160  0.11440  Biso   1.000  C
  H567     1.0000 0.33260  0.83260  0.09140  Biso   1.000  H
  C952     1.0000 0.34160  0.65840  0.38560  Biso   1.000  C
  H568     1.0000 0.33260  0.66740  0.40860  Biso   1.000  H
  C953     1.0000 0.65840  0.15840  0.11440  Biso   1.000  C
  H569     1.0000 0.66740  0.16740  0.09140  Biso   1.000  H
  C954     1.0000 0.65840  0.65840  0.61440  Biso   1.000  C
  H570     1.0000 0.66740  0.66740  0.59140  Biso   1.000  H
  C955     1.0000 0.84160  0.11440  0.34160  Biso   1.000  C
  H571     1.0000 0.83260  0.09140  0.33260  Biso   1.000  H
  C956     1.0000 0.84160  0.61440  0.84160  Biso   1.000  C
  H572     1.0000 0.83260  0.59140  0.83260  Biso   1.000  H
  C957     1.0000 0.84160  0.88560  0.65840  Biso   1.000  C
  H573     1.0000 0.83260  0.90860  0.66740  Biso   1.000  H
  C958     1.0000 0.84160  0.38560  0.15840  Biso   1.000  C
  H574     1.0000 0.83260  0.40860  0.16740  Biso   1.000  H
  C959     1.0000 0.15840  0.11440  0.65840  Biso   1.000  C
  H575     1.0000 0.16740  0.09140  0.66740  Biso   1.000  H
  C960     1.0000 0.15840  0.38560  0.84160  Biso   1.000  C
  H576     1.0000 0.16740  0.40860  0.83260  Biso   1.000  H
  O385     1.0000 0.25000  0.00000  0.25000  Biso   1.000  O
  O386     1.0000 0.25000  0.50000  0.75000  Biso   1.000  O
  O387     1.0000 0.75000  0.00000  0.25000  Biso   1.000  O
  O388     1.0000 0.75000  0.50000  0.75000  Biso   1.000  O
  O389     1.0000 0.25000  0.50000  0.25000  Biso   1.000  O
  O390     1.0000 0.75000  0.00000  0.75000  Biso   1.000  O
  O391     1.0000 0.75000  0.50000  0.25000  Biso   1.000  O
  O392     1.0000 0.25000  0.00000  0.75000  Biso   1.000  O
  O393     1.0000 0.25000  0.25000  0.00000  Biso   1.000  O
  O394     1.0000 0.25000  0.75000  0.50000  Biso   1.000  O
  O395     1.0000 0.25000  0.75000  0.00000  Biso   1.000  O
  O396     1.0000 0.25000  0.25000  0.50000  Biso   1.000  O
  O397     1.0000 0.75000  0.75000  0.00000  Biso   1.000  O
  O398     1.0000 0.75000  0.25000  0.50000  Biso   1.000  O
  O399     1.0000 0.75000  0.25000  0.00000  Biso   1.000  O
  O400     1.0000 0.75000  0.75000  0.50000  Biso   1.000  O
  O401     1.0000 0.00000  0.25000  0.25000  Biso   1.000  O
  O402     1.0000 0.50000  0.25000  0.75000  Biso   1.000  O
  O403     1.0000 0.00000  0.25000  0.75000  Biso   1.000  O
  O404     1.0000 0.50000  0.25000  0.25000  Biso   1.000  O
  O405     1.0000 0.00000  0.75000  0.75000  Biso   1.000  O
  O406     1.0000 0.50000  0.75000  0.25000  Biso   1.000  O
  O407     1.0000 0.00000  0.75000  0.25000  Biso   1.000  O
  O408     1.0000 0.50000  0.75000  0.75000  Biso   1.000  O
