data_image0
_cell_length_a       19.3064
_cell_length_b       17.452
_cell_length_c       24.0043
_cell_angle_alpha    90
_cell_angle_beta     90
_cell_angle_gamma    90

_symmetry_space_group_name_H-M    "P 1"
_symmetry_int_tables_number       1

loop_
  _symmetry_equiv_pos_as_xyz
  'x, y, z'

loop_
  _atom_site_label
  _atom_site_occupancy
  _atom_site_fract_x
  _atom_site_fract_y
  _atom_site_fract_z
  _atom_site_thermal_displace_type
  _atom_site_B_iso_or_equiv
  _atom_site_type_symbol
  C1       1.0000 0.52090  0.66270  0.32860  Biso   1.000  C
  H1       1.0000 0.53300  0.64640  0.36610  Biso   1.000  H
  C2       1.0000 0.53760  0.61350  0.28510  Biso   1.000  C
  H2       1.0000 0.55400  0.56200  0.29180  Biso   1.000  H
  C3       1.0000 0.53520  0.63940  0.23040  Biso   1.000  C
  H3       1.0000 0.54140  0.60460  0.19950  Biso   1.000  H
  C4       1.0000 0.51590  0.71460  0.21910  Biso   1.000  C
  H4       1.0000 0.50560  0.73100  0.18160  Biso   1.000  H
  C5       1.0000 0.63740  0.72220  0.57090  Biso   1.000  C
  C6       1.0000 0.69120  0.78220  0.57050  Biso   1.000  C
  C7       1.0000 0.75930  0.75860  0.56820  Biso   1.000  C
  H5       1.0000 0.76860  0.70630  0.56790  Biso   1.000  H
  C8       1.0000 0.67890  0.86160  0.56980  Biso   1.000  C
  C9       1.0000 0.60680  0.89660  0.55460  Biso   1.000  C
  H6       1.0000 0.56930  0.86570  0.54530  Biso   1.000  H
  C10      1.0000 0.60120  0.97710  0.55550  Biso   1.000  C
  H7       1.0000 0.55730  0.99850  0.55900  Biso   1.000  H
  C11      1.0000 0.81500  0.80970  0.56630  Biso   1.000  C
  H8       1.0000 0.86020  0.79160  0.56410  Biso   1.000  H
  C12      1.0000 0.73520  0.91520  0.56970  Biso   1.000  C
  C13      1.0000 0.71920  0.99980  0.55450  Biso   1.000  C
  H9       1.0000 0.75570  0.03320  0.54750  Biso   1.000  H
  C14      1.0000 0.65610  0.02480  0.55140  Biso   1.000  C
  H10      1.0000 0.64840  0.07700  0.54630  Biso   1.000  H
  C15      1.0000 0.80220  0.88670  0.56770  Biso   1.000  C
  C16      1.0000 0.86470  0.93940  0.56840  Biso   1.000  C
  O1       1.0000 0.65400  0.65860  0.59080  Biso   1.000  O
  O2       1.0000 0.57910  0.73790  0.55290  Biso   1.000  O
  O3       1.0000 0.91070  0.93040  0.53360  Biso   1.000  O
  O4       1.0000 0.86550  0.98880  0.60650  Biso   1.000  O
  O5       1.0000 0.44460  0.89570  0.17920  Biso   1.000  O
  Zn1      1.0000 0.58104  0.58078  0.60036  Biso   1.000  Zn
  C17      1.0000 0.61330  0.89180  0.58350  Biso   1.000  C
  H11      1.0000 0.57470  0.85990  0.58290  Biso   1.000  H
  C18      1.0000 0.60560  0.96350  0.59710  Biso   1.000  C
  H12      1.0000 0.56360  0.97920  0.61220  Biso   1.000  H
  C19      1.0000 0.72100  0.99330  0.58160  Biso   1.000  C
  H13      1.0000 0.75760  0.02790  0.58340  Biso   1.000  H
  C20      1.0000 0.65780  0.01790  0.59010  Biso   1.000  C
  H14      1.0000 0.64800  0.07000  0.59130  Biso   1.000  H
  C21      1.0000 0.02090  0.16270  0.32860  Biso   1.000  C
  H15      1.0000 0.03300  0.14640  0.36610  Biso   1.000  H
  C22      1.0000 0.03760  0.11350  0.28510  Biso   1.000  C
  H16      1.0000 0.05400  0.06200  0.29180  Biso   1.000  H
  C23      1.0000 0.03520  0.13940  0.23040  Biso   1.000  C
  H17      1.0000 0.04140  0.10460  0.19950  Biso   1.000  H
  C24      1.0000 0.01590  0.21460  0.21910  Biso   1.000  C
  H18      1.0000 0.00560  0.23100  0.18160  Biso   1.000  H
  C25      1.0000 0.13740  0.22220  0.57090  Biso   1.000  C
  C26      1.0000 0.19120  0.28220  0.57050  Biso   1.000  C
  C27      1.0000 0.25930  0.25860  0.56820  Biso   1.000  C
  H19      1.0000 0.26860  0.20630  0.56790  Biso   1.000  H
  C28      1.0000 0.17890  0.36160  0.56980  Biso   1.000  C
  C29      1.0000 0.10680  0.39660  0.55460  Biso   1.000  C
  H20      1.0000 0.06930  0.36570  0.54530  Biso   1.000  H
  C30      1.0000 0.10120  0.47710  0.55550  Biso   1.000  C
  H21      1.0000 0.05730  0.49850  0.55900  Biso   1.000  H
  C31      1.0000 0.31500  0.30970  0.56630  Biso   1.000  C
  H22      1.0000 0.36020  0.29160  0.56410  Biso   1.000  H
  C32      1.0000 0.23520  0.41520  0.56970  Biso   1.000  C
  C33      1.0000 0.21920  0.49980  0.55450  Biso   1.000  C
  H23      1.0000 0.25570  0.53320  0.54750  Biso   1.000  H
  C34      1.0000 0.15610  0.52480  0.55140  Biso   1.000  C
  H24      1.0000 0.14840  0.57700  0.54630  Biso   1.000  H
  C35      1.0000 0.30220  0.38670  0.56770  Biso   1.000  C
  C36      1.0000 0.36470  0.43940  0.56840  Biso   1.000  C
  O6       1.0000 0.15400  0.15860  0.59080  Biso   1.000  O
  O7       1.0000 0.07910  0.23790  0.55290  Biso   1.000  O
  O8       1.0000 0.41070  0.43040  0.53360  Biso   1.000  O
  O9       1.0000 0.36550  0.48880  0.60650  Biso   1.000  O
  O10      1.0000 0.94460  0.39570  0.17920  Biso   1.000  O
  Zn2      1.0000 0.08104  0.08078  0.60036  Biso   1.000  Zn
  C37      1.0000 0.11330  0.39180  0.58350  Biso   1.000  C
  H25      1.0000 0.07470  0.35990  0.58290  Biso   1.000  H
  C38      1.0000 0.10560  0.46350  0.59710  Biso   1.000  C
  H26      1.0000 0.06360  0.47920  0.61220  Biso   1.000  H
  C39      1.0000 0.22100  0.49330  0.58160  Biso   1.000  C
  H27      1.0000 0.25760  0.52790  0.58340  Biso   1.000  H
  C40      1.0000 0.15780  0.51790  0.59010  Biso   1.000  C
  H28      1.0000 0.14800  0.57000  0.59130  Biso   1.000  H
  C41      1.0000 0.47910  0.83730  0.82860  Biso   1.000  C
  H29      1.0000 0.46700  0.85360  0.86610  Biso   1.000  H
  C42      1.0000 0.46240  0.88650  0.78510  Biso   1.000  C
  H30      1.0000 0.44600  0.93800  0.79180  Biso   1.000  H
  C43      1.0000 0.46480  0.86060  0.73040  Biso   1.000  C
  H31      1.0000 0.45860  0.89540  0.69950  Biso   1.000  H
  C44      1.0000 0.48410  0.78540  0.71910  Biso   1.000  C
  H32      1.0000 0.49440  0.76900  0.68160  Biso   1.000  H
  C45      1.0000 0.36260  0.77780  0.07090  Biso   1.000  C
  C46      1.0000 0.30880  0.71780  0.07050  Biso   1.000  C
  C47      1.0000 0.24070  0.74140  0.06820  Biso   1.000  C
  H33      1.0000 0.23140  0.79370  0.06790  Biso   1.000  H
  C48      1.0000 0.32110  0.63840  0.06980  Biso   1.000  C
  C49      1.0000 0.39320  0.60340  0.05460  Biso   1.000  C
  H34      1.0000 0.43070  0.63430  0.04530  Biso   1.000  H
  C50      1.0000 0.39880  0.52290  0.05550  Biso   1.000  C
  H35      1.0000 0.44270  0.50150  0.05900  Biso   1.000  H
  C51      1.0000 0.18500  0.69030  0.06630  Biso   1.000  C
  H36      1.0000 0.13980  0.70840  0.06410  Biso   1.000  H
  C52      1.0000 0.26480  0.58480  0.06970  Biso   1.000  C
  C53      1.0000 0.28080  0.50020  0.05450  Biso   1.000  C
  H37      1.0000 0.24430  0.46680  0.04750  Biso   1.000  H
  C54      1.0000 0.34390  0.47520  0.05140  Biso   1.000  C
  H38      1.0000 0.35160  0.42300  0.04630  Biso   1.000  H
  C55      1.0000 0.19780  0.61330  0.06770  Biso   1.000  C
  C56      1.0000 0.13530  0.56060  0.06840  Biso   1.000  C
  O11      1.0000 0.34600  0.84140  0.09080  Biso   1.000  O
  O12      1.0000 0.42090  0.76210  0.05290  Biso   1.000  O
  O13      1.0000 0.08930  0.56960  0.03360  Biso   1.000  O
  O14      1.0000 0.13450  0.51120  0.10650  Biso   1.000  O
  O15      1.0000 0.55540  0.60430  0.67920  Biso   1.000  O
  Zn3      1.0000 0.41896  0.91922  0.10036  Biso   1.000  Zn
  C57      1.0000 0.38670  0.60820  0.08350  Biso   1.000  C
  H39      1.0000 0.42530  0.64010  0.08290  Biso   1.000  H
  C58      1.0000 0.39440  0.53650  0.09710  Biso   1.000  C
  H40      1.0000 0.43640  0.52080  0.11220  Biso   1.000  H
  C59      1.0000 0.27900  0.50670  0.08160  Biso   1.000  C
  H41      1.0000 0.24240  0.47210  0.08340  Biso   1.000  H
  C60      1.0000 0.34220  0.48210  0.09010  Biso   1.000  C
  H42      1.0000 0.35200  0.43000  0.09130  Biso   1.000  H
  C61      1.0000 0.97910  0.33730  0.82860  Biso   1.000  C
  H43      1.0000 0.96700  0.35360  0.86610  Biso   1.000  H
  C62      1.0000 0.96240  0.38650  0.78510  Biso   1.000  C
  H44      1.0000 0.94600  0.43800  0.79180  Biso   1.000  H
  C63      1.0000 0.96480  0.36060  0.73040  Biso   1.000  C
  H45      1.0000 0.95860  0.39540  0.69950  Biso   1.000  H
  C64      1.0000 0.98410  0.28540  0.71910  Biso   1.000  C
  H46      1.0000 0.99440  0.26900  0.68160  Biso   1.000  H
  C65      1.0000 0.86260  0.27780  0.07090  Biso   1.000  C
  C66      1.0000 0.80880  0.21780  0.07050  Biso   1.000  C
  C67      1.0000 0.74070  0.24140  0.06820  Biso   1.000  C
  H47      1.0000 0.73140  0.29370  0.06790  Biso   1.000  H
  C68      1.0000 0.82110  0.13840  0.06980  Biso   1.000  C
  C69      1.0000 0.89320  0.10340  0.05460  Biso   1.000  C
  H48      1.0000 0.93070  0.13430  0.04530  Biso   1.000  H
  C70      1.0000 0.89880  0.02290  0.05550  Biso   1.000  C
  H49      1.0000 0.94270  0.00150  0.05900  Biso   1.000  H
  C71      1.0000 0.68500  0.19030  0.06630  Biso   1.000  C
  H50      1.0000 0.63980  0.20840  0.06410  Biso   1.000  H
  C72      1.0000 0.76480  0.08480  0.06970  Biso   1.000  C
  C73      1.0000 0.78080  0.00020  0.05450  Biso   1.000  C
  H51      1.0000 0.74430  0.96680  0.04750  Biso   1.000  H
  C74      1.0000 0.84390  0.97520  0.05140  Biso   1.000  C
  H52      1.0000 0.85160  0.92300  0.04630  Biso   1.000  H
  C75      1.0000 0.69780  0.11330  0.06770  Biso   1.000  C
  C76      1.0000 0.63530  0.06060  0.06840  Biso   1.000  C
  O16      1.0000 0.84600  0.34140  0.09080  Biso   1.000  O
  O17      1.0000 0.92090  0.26210  0.05290  Biso   1.000  O
  O18      1.0000 0.58930  0.06960  0.03360  Biso   1.000  O
  O19      1.0000 0.63450  0.01120  0.10650  Biso   1.000  O
  O20      1.0000 0.05540  0.10430  0.67920  Biso   1.000  O
  Zn4      1.0000 0.91896  0.41922  0.10036  Biso   1.000  Zn
  C77      1.0000 0.88670  0.10820  0.08350  Biso   1.000  C
  H53      1.0000 0.92530  0.14010  0.08290  Biso   1.000  H
  C78      1.0000 0.89440  0.03650  0.09710  Biso   1.000  C
  H54      1.0000 0.93640  0.02080  0.11220  Biso   1.000  H
  C79      1.0000 0.77900  0.00670  0.08160  Biso   1.000  C
  H55      1.0000 0.74240  0.97210  0.08340  Biso   1.000  H
  C80      1.0000 0.84220  0.98210  0.09010  Biso   1.000  C
  H56      1.0000 0.85200  0.93000  0.09130  Biso   1.000  H
  C81      1.0000 0.47910  0.16270  0.17140  Biso   1.000  C
  H57      1.0000 0.46700  0.14640  0.13390  Biso   1.000  H
  C82      1.0000 0.46240  0.11350  0.21490  Biso   1.000  C
  H58      1.0000 0.44600  0.06200  0.20820  Biso   1.000  H
  C83      1.0000 0.46480  0.13940  0.26960  Biso   1.000  C
  H59      1.0000 0.45860  0.10460  0.30050  Biso   1.000  H
  C84      1.0000 0.48410  0.21460  0.28090  Biso   1.000  C
  H60      1.0000 0.49440  0.23100  0.31840  Biso   1.000  H
  C85      1.0000 0.36260  0.22220  0.92910  Biso   1.000  C
  C86      1.0000 0.30880  0.28220  0.92950  Biso   1.000  C
  C87      1.0000 0.24070  0.25860  0.93180  Biso   1.000  C
  H61      1.0000 0.23140  0.20630  0.93210  Biso   1.000  H
  C88      1.0000 0.32110  0.36160  0.93020  Biso   1.000  C
  C89      1.0000 0.39320  0.39660  0.94540  Biso   1.000  C
  H62      1.0000 0.43070  0.36570  0.95470  Biso   1.000  H
  C90      1.0000 0.39880  0.47710  0.94450  Biso   1.000  C
  H63      1.0000 0.44270  0.49850  0.94100  Biso   1.000  H
  C91      1.0000 0.18500  0.30970  0.93370  Biso   1.000  C
  H64      1.0000 0.13980  0.29160  0.93590  Biso   1.000  H
  C92      1.0000 0.26480  0.41520  0.93030  Biso   1.000  C
  C93      1.0000 0.28080  0.49980  0.94550  Biso   1.000  C
  H65      1.0000 0.24430  0.53320  0.95250  Biso   1.000  H
  C94      1.0000 0.34390  0.52480  0.94860  Biso   1.000  C
  H66      1.0000 0.35160  0.57700  0.95370  Biso   1.000  H
  C95      1.0000 0.19780  0.38670  0.93230  Biso   1.000  C
  C96      1.0000 0.13530  0.43940  0.93160  Biso   1.000  C
  O21      1.0000 0.34600  0.15860  0.90920  Biso   1.000  O
  O22      1.0000 0.42090  0.23790  0.94710  Biso   1.000  O
  O23      1.0000 0.08930  0.43040  0.96640  Biso   1.000  O
  O24      1.0000 0.13450  0.48880  0.89350  Biso   1.000  O
  O25      1.0000 0.55540  0.39570  0.32080  Biso   1.000  O
  Zn5      1.0000 0.41896  0.08078  0.89964  Biso   1.000  Zn
  C97      1.0000 0.38670  0.39180  0.91650  Biso   1.000  C
  H67      1.0000 0.42530  0.35990  0.91710  Biso   1.000  H
  C98      1.0000 0.39440  0.46350  0.90290  Biso   1.000  C
  H68      1.0000 0.43640  0.47920  0.88780  Biso   1.000  H
  C99      1.0000 0.27900  0.49330  0.91840  Biso   1.000  C
  H69      1.0000 0.24240  0.52790  0.91660  Biso   1.000  H
  C100     1.0000 0.34220  0.51790  0.90990  Biso   1.000  C
  H70      1.0000 0.35200  0.57000  0.90870  Biso   1.000  H
  C101     1.0000 0.97910  0.66270  0.17140  Biso   1.000  C
  H71      1.0000 0.96700  0.64640  0.13390  Biso   1.000  H
  C102     1.0000 0.96240  0.61350  0.21490  Biso   1.000  C
  H72      1.0000 0.94600  0.56200  0.20820  Biso   1.000  H
  C103     1.0000 0.96480  0.63940  0.26960  Biso   1.000  C
  H73      1.0000 0.95860  0.60460  0.30050  Biso   1.000  H
  C104     1.0000 0.98410  0.71460  0.28090  Biso   1.000  C
  H74      1.0000 0.99440  0.73100  0.31840  Biso   1.000  H
  C105     1.0000 0.86260  0.72220  0.92910  Biso   1.000  C
  C106     1.0000 0.80880  0.78220  0.92950  Biso   1.000  C
  C107     1.0000 0.74070  0.75860  0.93180  Biso   1.000  C
  H75      1.0000 0.73140  0.70630  0.93210  Biso   1.000  H
  C108     1.0000 0.82110  0.86160  0.93020  Biso   1.000  C
  C109     1.0000 0.89320  0.89660  0.94540  Biso   1.000  C
  H76      1.0000 0.93070  0.86570  0.95470  Biso   1.000  H
  C110     1.0000 0.89880  0.97710  0.94450  Biso   1.000  C
  H77      1.0000 0.94270  0.99850  0.94100  Biso   1.000  H
  C111     1.0000 0.68500  0.80970  0.93370  Biso   1.000  C
  H78      1.0000 0.63980  0.79160  0.93590  Biso   1.000  H
  C112     1.0000 0.76480  0.91520  0.93030  Biso   1.000  C
  C113     1.0000 0.78080  0.99980  0.94550  Biso   1.000  C
  H79      1.0000 0.74430  0.03320  0.95250  Biso   1.000  H
  C114     1.0000 0.84390  0.02480  0.94860  Biso   1.000  C
  H80      1.0000 0.85160  0.07700  0.95370  Biso   1.000  H
  C115     1.0000 0.69780  0.88670  0.93230  Biso   1.000  C
  C116     1.0000 0.63530  0.93940  0.93160  Biso   1.000  C
  O26      1.0000 0.84600  0.65860  0.90920  Biso   1.000  O
  O27      1.0000 0.92090  0.73790  0.94710  Biso   1.000  O
  O28      1.0000 0.58930  0.93040  0.96640  Biso   1.000  O
  O29      1.0000 0.63450  0.98880  0.89350  Biso   1.000  O
  O30      1.0000 0.05540  0.89570  0.32080  Biso   1.000  O
  Zn6      1.0000 0.91896  0.58078  0.89964  Biso   1.000  Zn
  C117     1.0000 0.88670  0.89180  0.91650  Biso   1.000  C
  H81      1.0000 0.92530  0.85990  0.91710  Biso   1.000  H
  C118     1.0000 0.89440  0.96350  0.90290  Biso   1.000  C
  H82      1.0000 0.93640  0.97920  0.88780  Biso   1.000  H
  C119     1.0000 0.77900  0.99330  0.91840  Biso   1.000  C
  H83      1.0000 0.74240  0.02790  0.91660  Biso   1.000  H
  C120     1.0000 0.84220  0.01790  0.90990  Biso   1.000  C
  H84      1.0000 0.85200  0.07000  0.90870  Biso   1.000  H
  C121     1.0000 0.52090  0.33730  0.67140  Biso   1.000  C
  H85      1.0000 0.53300  0.35360  0.63390  Biso   1.000  H
  C122     1.0000 0.53760  0.38650  0.71490  Biso   1.000  C
  H86      1.0000 0.55400  0.43800  0.70820  Biso   1.000  H
  C123     1.0000 0.53520  0.36060  0.76960  Biso   1.000  C
  H87      1.0000 0.54140  0.39540  0.80050  Biso   1.000  H
  C124     1.0000 0.51590  0.28540  0.78090  Biso   1.000  C
  H88      1.0000 0.50560  0.26900  0.81840  Biso   1.000  H
  C125     1.0000 0.63740  0.27780  0.42910  Biso   1.000  C
  C126     1.0000 0.69120  0.21780  0.42950  Biso   1.000  C
  C127     1.0000 0.75930  0.24140  0.43180  Biso   1.000  C
  H89      1.0000 0.76860  0.29370  0.43210  Biso   1.000  H
  C128     1.0000 0.67890  0.13840  0.43020  Biso   1.000  C
  C129     1.0000 0.60680  0.10340  0.44540  Biso   1.000  C
  H90      1.0000 0.56930  0.13430  0.45470  Biso   1.000  H
  C130     1.0000 0.60120  0.02290  0.44450  Biso   1.000  C
  H91      1.0000 0.55730  0.00150  0.44100  Biso   1.000  H
  C131     1.0000 0.81500  0.19030  0.43370  Biso   1.000  C
  H92      1.0000 0.86020  0.20840  0.43590  Biso   1.000  H
  C132     1.0000 0.73520  0.08480  0.43030  Biso   1.000  C
  C133     1.0000 0.71920  0.00020  0.44550  Biso   1.000  C
  H93      1.0000 0.75570  0.96680  0.45250  Biso   1.000  H
  C134     1.0000 0.65610  0.97520  0.44860  Biso   1.000  C
  H94      1.0000 0.64840  0.92300  0.45370  Biso   1.000  H
  C135     1.0000 0.80220  0.11330  0.43230  Biso   1.000  C
  C136     1.0000 0.86470  0.06060  0.43160  Biso   1.000  C
  O31      1.0000 0.65400  0.34140  0.40920  Biso   1.000  O
  O32      1.0000 0.57910  0.26210  0.44710  Biso   1.000  O
  O33      1.0000 0.91070  0.06960  0.46640  Biso   1.000  O
  O34      1.0000 0.86550  0.01120  0.39350  Biso   1.000  O
  O35      1.0000 0.44460  0.10430  0.82080  Biso   1.000  O
  Zn7      1.0000 0.58104  0.41922  0.39964  Biso   1.000  Zn
  C137     1.0000 0.61330  0.10820  0.41650  Biso   1.000  C
  H95      1.0000 0.57470  0.14010  0.41710  Biso   1.000  H
  C138     1.0000 0.60560  0.03650  0.40290  Biso   1.000  C
  H96      1.0000 0.56360  0.02080  0.38780  Biso   1.000  H
  C139     1.0000 0.72100  0.00670  0.41840  Biso   1.000  C
  H97      1.0000 0.75760  0.97210  0.41660  Biso   1.000  H
  C140     1.0000 0.65780  0.98210  0.40990  Biso   1.000  C
  H98      1.0000 0.64800  0.93000  0.40870  Biso   1.000  H
  C141     1.0000 0.02090  0.83730  0.67140  Biso   1.000  C
  H99      1.0000 0.03300  0.85360  0.63390  Biso   1.000  H
  C142     1.0000 0.03760  0.88650  0.71490  Biso   1.000  C
  H100     1.0000 0.05400  0.93800  0.70820  Biso   1.000  H
  C143     1.0000 0.03520  0.86060  0.76960  Biso   1.000  C
  H101     1.0000 0.04140  0.89540  0.80050  Biso   1.000  H
  C144     1.0000 0.01590  0.78540  0.78090  Biso   1.000  C
  H102     1.0000 0.00560  0.76900  0.81840  Biso   1.000  H
  C145     1.0000 0.13740  0.77780  0.42910  Biso   1.000  C
  C146     1.0000 0.19120  0.71780  0.42950  Biso   1.000  C
  C147     1.0000 0.25930  0.74140  0.43180  Biso   1.000  C
  H103     1.0000 0.26860  0.79370  0.43210  Biso   1.000  H
  C148     1.0000 0.17890  0.63840  0.43020  Biso   1.000  C
  C149     1.0000 0.10680  0.60340  0.44540  Biso   1.000  C
  H104     1.0000 0.06930  0.63430  0.45470  Biso   1.000  H
  C150     1.0000 0.10120  0.52290  0.44450  Biso   1.000  C
  H105     1.0000 0.05730  0.50150  0.44100  Biso   1.000  H
  C151     1.0000 0.31500  0.69030  0.43370  Biso   1.000  C
  H106     1.0000 0.36020  0.70840  0.43590  Biso   1.000  H
  C152     1.0000 0.23520  0.58480  0.43030  Biso   1.000  C
  C153     1.0000 0.21920  0.50020  0.44550  Biso   1.000  C
  H107     1.0000 0.25570  0.46680  0.45250  Biso   1.000  H
  C154     1.0000 0.15610  0.47520  0.44860  Biso   1.000  C
  H108     1.0000 0.14840  0.42300  0.45370  Biso   1.000  H
  C155     1.0000 0.30220  0.61330  0.43230  Biso   1.000  C
  C156     1.0000 0.36470  0.56060  0.43160  Biso   1.000  C
  O36      1.0000 0.15400  0.84140  0.40920  Biso   1.000  O
  O37      1.0000 0.07910  0.76210  0.44710  Biso   1.000  O
  O38      1.0000 0.41070  0.56960  0.46640  Biso   1.000  O
  O39      1.0000 0.36550  0.51120  0.39350  Biso   1.000  O
  O40      1.0000 0.94460  0.60430  0.82080  Biso   1.000  O
  Zn8      1.0000 0.08104  0.91922  0.39964  Biso   1.000  Zn
  C157     1.0000 0.11330  0.60820  0.41650  Biso   1.000  C
  H109     1.0000 0.07470  0.64010  0.41710  Biso   1.000  H
  C158     1.0000 0.10560  0.53650  0.40290  Biso   1.000  C
  H110     1.0000 0.06360  0.52080  0.38780  Biso   1.000  H
  C159     1.0000 0.22100  0.50670  0.41840  Biso   1.000  C
  H111     1.0000 0.25760  0.47210  0.41660  Biso   1.000  H
  C160     1.0000 0.15780  0.48210  0.40990  Biso   1.000  C
  H112     1.0000 0.14800  0.43000  0.40870  Biso   1.000  H
  C161     1.0000 0.47910  0.33730  0.67140  Biso   1.000  C
  H113     1.0000 0.46700  0.35360  0.63390  Biso   1.000  H
  C162     1.0000 0.46240  0.38650  0.71490  Biso   1.000  C
  H114     1.0000 0.44600  0.43800  0.70820  Biso   1.000  H
  C163     1.0000 0.46480  0.36060  0.76960  Biso   1.000  C
  H115     1.0000 0.45860  0.39540  0.80050  Biso   1.000  H
  C164     1.0000 0.48410  0.28540  0.78090  Biso   1.000  C
  H116     1.0000 0.49440  0.26900  0.81840  Biso   1.000  H
  C165     1.0000 0.36260  0.27780  0.42910  Biso   1.000  C
  C166     1.0000 0.30880  0.21780  0.42950  Biso   1.000  C
  C167     1.0000 0.24070  0.24140  0.43180  Biso   1.000  C
  H117     1.0000 0.23140  0.29370  0.43210  Biso   1.000  H
  C168     1.0000 0.32110  0.13840  0.43020  Biso   1.000  C
  C169     1.0000 0.39320  0.10340  0.44540  Biso   1.000  C
  H118     1.0000 0.43070  0.13430  0.45470  Biso   1.000  H
  C170     1.0000 0.39880  0.02290  0.44450  Biso   1.000  C
  H119     1.0000 0.44270  0.00150  0.44100  Biso   1.000  H
  C171     1.0000 0.18500  0.19030  0.43370  Biso   1.000  C
  H120     1.0000 0.13980  0.20840  0.43590  Biso   1.000  H
  C172     1.0000 0.26480  0.08480  0.43030  Biso   1.000  C
  C173     1.0000 0.28080  0.00020  0.44550  Biso   1.000  C
  H121     1.0000 0.24430  0.96680  0.45250  Biso   1.000  H
  C174     1.0000 0.34390  0.97520  0.44860  Biso   1.000  C
  H122     1.0000 0.35160  0.92300  0.45370  Biso   1.000  H
  C175     1.0000 0.19780  0.11330  0.43230  Biso   1.000  C
  C176     1.0000 0.13530  0.06060  0.43160  Biso   1.000  C
  O41      1.0000 0.34600  0.34140  0.40920  Biso   1.000  O
  O42      1.0000 0.42090  0.26210  0.44710  Biso   1.000  O
  O43      1.0000 0.08930  0.06960  0.46640  Biso   1.000  O
  O44      1.0000 0.13450  0.01120  0.39350  Biso   1.000  O
  O45      1.0000 0.55540  0.10430  0.82080  Biso   1.000  O
  Zn9      1.0000 0.41896  0.41922  0.39964  Biso   1.000  Zn
  C177     1.0000 0.38670  0.10820  0.41650  Biso   1.000  C
  H123     1.0000 0.42530  0.14010  0.41710  Biso   1.000  H
  C178     1.0000 0.39440  0.03650  0.40290  Biso   1.000  C
  H124     1.0000 0.43640  0.02080  0.38780  Biso   1.000  H
  C179     1.0000 0.27900  0.00670  0.41840  Biso   1.000  C
  H125     1.0000 0.24240  0.97210  0.41660  Biso   1.000  H
  C180     1.0000 0.34220  0.98210  0.40990  Biso   1.000  C
  H126     1.0000 0.35200  0.93000  0.40870  Biso   1.000  H
  C181     1.0000 0.97910  0.83730  0.67140  Biso   1.000  C
  H127     1.0000 0.96700  0.85360  0.63390  Biso   1.000  H
  C182     1.0000 0.96240  0.88650  0.71490  Biso   1.000  C
  H128     1.0000 0.94600  0.93800  0.70820  Biso   1.000  H
  C183     1.0000 0.96480  0.86060  0.76960  Biso   1.000  C
  H129     1.0000 0.95860  0.89540  0.80050  Biso   1.000  H
  C184     1.0000 0.98410  0.78540  0.78090  Biso   1.000  C
  H130     1.0000 0.99440  0.76900  0.81840  Biso   1.000  H
  C185     1.0000 0.86260  0.77780  0.42910  Biso   1.000  C
  C186     1.0000 0.80880  0.71780  0.42950  Biso   1.000  C
  C187     1.0000 0.74070  0.74140  0.43180  Biso   1.000  C
  H131     1.0000 0.73140  0.79370  0.43210  Biso   1.000  H
  C188     1.0000 0.82110  0.63840  0.43020  Biso   1.000  C
  C189     1.0000 0.89320  0.60340  0.44540  Biso   1.000  C
  H132     1.0000 0.93070  0.63430  0.45470  Biso   1.000  H
  C190     1.0000 0.89880  0.52290  0.44450  Biso   1.000  C
  H133     1.0000 0.94270  0.50150  0.44100  Biso   1.000  H
  C191     1.0000 0.68500  0.69030  0.43370  Biso   1.000  C
  H134     1.0000 0.63980  0.70840  0.43590  Biso   1.000  H
  C192     1.0000 0.76480  0.58480  0.43030  Biso   1.000  C
  C193     1.0000 0.78080  0.50020  0.44550  Biso   1.000  C
  H135     1.0000 0.74430  0.46680  0.45250  Biso   1.000  H
  C194     1.0000 0.84390  0.47520  0.44860  Biso   1.000  C
  H136     1.0000 0.85160  0.42300  0.45370  Biso   1.000  H
  C195     1.0000 0.69780  0.61330  0.43230  Biso   1.000  C
  C196     1.0000 0.63530  0.56060  0.43160  Biso   1.000  C
  O46      1.0000 0.84600  0.84140  0.40920  Biso   1.000  O
  O47      1.0000 0.92090  0.76210  0.44710  Biso   1.000  O
  O48      1.0000 0.58930  0.56960  0.46640  Biso   1.000  O
  O49      1.0000 0.63450  0.51120  0.39350  Biso   1.000  O
  O50      1.0000 0.05540  0.60430  0.82080  Biso   1.000  O
  Zn10     1.0000 0.91896  0.91922  0.39964  Biso   1.000  Zn
  C197     1.0000 0.88670  0.60820  0.41650  Biso   1.000  C
  H137     1.0000 0.92530  0.64010  0.41710  Biso   1.000  H
  C198     1.0000 0.89440  0.53650  0.40290  Biso   1.000  C
  H138     1.0000 0.93640  0.52080  0.38780  Biso   1.000  H
  C199     1.0000 0.77900  0.50670  0.41840  Biso   1.000  C
  H139     1.0000 0.74240  0.47210  0.41660  Biso   1.000  H
  C200     1.0000 0.84220  0.48210  0.40990  Biso   1.000  C
  H140     1.0000 0.85200  0.43000  0.40870  Biso   1.000  H
  C201     1.0000 0.52090  0.16270  0.17140  Biso   1.000  C
  H141     1.0000 0.53300  0.14640  0.13390  Biso   1.000  H
  C202     1.0000 0.53760  0.11350  0.21490  Biso   1.000  C
  H142     1.0000 0.55400  0.06200  0.20820  Biso   1.000  H
  C203     1.0000 0.53520  0.13940  0.26960  Biso   1.000  C
  H143     1.0000 0.54140  0.10460  0.30050  Biso   1.000  H
  C204     1.0000 0.51590  0.21460  0.28090  Biso   1.000  C
  H144     1.0000 0.50560  0.23100  0.31840  Biso   1.000  H
  C205     1.0000 0.63740  0.22220  0.92910  Biso   1.000  C
  C206     1.0000 0.69120  0.28220  0.92950  Biso   1.000  C
  C207     1.0000 0.75930  0.25860  0.93180  Biso   1.000  C
  H145     1.0000 0.76860  0.20630  0.93210  Biso   1.000  H
  C208     1.0000 0.67890  0.36160  0.93020  Biso   1.000  C
  C209     1.0000 0.60680  0.39660  0.94540  Biso   1.000  C
  H146     1.0000 0.56930  0.36570  0.95470  Biso   1.000  H
  C210     1.0000 0.60120  0.47710  0.94450  Biso   1.000  C
  H147     1.0000 0.55730  0.49850  0.94100  Biso   1.000  H
  C211     1.0000 0.81500  0.30970  0.93370  Biso   1.000  C
  H148     1.0000 0.86020  0.29160  0.93590  Biso   1.000  H
  C212     1.0000 0.73520  0.41520  0.93030  Biso   1.000  C
  C213     1.0000 0.71920  0.49980  0.94550  Biso   1.000  C
  H149     1.0000 0.75570  0.53320  0.95250  Biso   1.000  H
  C214     1.0000 0.65610  0.52480  0.94860  Biso   1.000  C
  H150     1.0000 0.64840  0.57700  0.95370  Biso   1.000  H
  C215     1.0000 0.80220  0.38670  0.93230  Biso   1.000  C
  C216     1.0000 0.86470  0.43940  0.93160  Biso   1.000  C
  O51      1.0000 0.65400  0.15860  0.90920  Biso   1.000  O
  O52      1.0000 0.57910  0.23790  0.94710  Biso   1.000  O
  O53      1.0000 0.91070  0.43040  0.96640  Biso   1.000  O
  O54      1.0000 0.86550  0.48880  0.89350  Biso   1.000  O
  O55      1.0000 0.44460  0.39570  0.32080  Biso   1.000  O
  Zn11     1.0000 0.58104  0.08078  0.89964  Biso   1.000  Zn
  C217     1.0000 0.61330  0.39180  0.91650  Biso   1.000  C
  H151     1.0000 0.57470  0.35990  0.91710  Biso   1.000  H
  C218     1.0000 0.60560  0.46350  0.90290  Biso   1.000  C
  H152     1.0000 0.56360  0.47920  0.88780  Biso   1.000  H
  C219     1.0000 0.72100  0.49330  0.91840  Biso   1.000  C
  H153     1.0000 0.75760  0.52790  0.91660  Biso   1.000  H
  C220     1.0000 0.65780  0.51790  0.90990  Biso   1.000  C
  H154     1.0000 0.64800  0.57000  0.90870  Biso   1.000  H
  C221     1.0000 0.02090  0.66270  0.17140  Biso   1.000  C
  H155     1.0000 0.03300  0.64640  0.13390  Biso   1.000  H
  C222     1.0000 0.03760  0.61350  0.21490  Biso   1.000  C
  H156     1.0000 0.05400  0.56200  0.20820  Biso   1.000  H
  C223     1.0000 0.03520  0.63940  0.26960  Biso   1.000  C
  H157     1.0000 0.04140  0.60460  0.30050  Biso   1.000  H
  C224     1.0000 0.01590  0.71460  0.28090  Biso   1.000  C
  H158     1.0000 0.00560  0.73100  0.31840  Biso   1.000  H
  C225     1.0000 0.13740  0.72220  0.92910  Biso   1.000  C
  C226     1.0000 0.19120  0.78220  0.92950  Biso   1.000  C
  C227     1.0000 0.25930  0.75860  0.93180  Biso   1.000  C
  H159     1.0000 0.26860  0.70630  0.93210  Biso   1.000  H
  C228     1.0000 0.17890  0.86160  0.93020  Biso   1.000  C
  C229     1.0000 0.10680  0.89660  0.94540  Biso   1.000  C
  H160     1.0000 0.06930  0.86570  0.95470  Biso   1.000  H
  C230     1.0000 0.10120  0.97710  0.94450  Biso   1.000  C
  H161     1.0000 0.05730  0.99850  0.94100  Biso   1.000  H
  C231     1.0000 0.31500  0.80970  0.93370  Biso   1.000  C
  H162     1.0000 0.36020  0.79160  0.93590  Biso   1.000  H
  C232     1.0000 0.23520  0.91520  0.93030  Biso   1.000  C
  C233     1.0000 0.21920  0.99980  0.94550  Biso   1.000  C
  H163     1.0000 0.25570  0.03320  0.95250  Biso   1.000  H
  C234     1.0000 0.15610  0.02480  0.94860  Biso   1.000  C
  H164     1.0000 0.14840  0.07700  0.95370  Biso   1.000  H
  C235     1.0000 0.30220  0.88670  0.93230  Biso   1.000  C
  C236     1.0000 0.36470  0.93940  0.93160  Biso   1.000  C
  O56      1.0000 0.15400  0.65860  0.90920  Biso   1.000  O
  O57      1.0000 0.07910  0.73790  0.94710  Biso   1.000  O
  O58      1.0000 0.41070  0.93040  0.96640  Biso   1.000  O
  O59      1.0000 0.36550  0.98880  0.89350  Biso   1.000  O
  O60      1.0000 0.94460  0.89570  0.32080  Biso   1.000  O
  Zn12     1.0000 0.08104  0.58078  0.89964  Biso   1.000  Zn
  C237     1.0000 0.11330  0.89180  0.91650  Biso   1.000  C
  H165     1.0000 0.07470  0.85990  0.91710  Biso   1.000  H
  C238     1.0000 0.10560  0.96350  0.90290  Biso   1.000  C
  H166     1.0000 0.06360  0.97920  0.88780  Biso   1.000  H
  C239     1.0000 0.22100  0.99330  0.91840  Biso   1.000  C
  H167     1.0000 0.25760  0.02790  0.91660  Biso   1.000  H
  C240     1.0000 0.15780  0.01790  0.90990  Biso   1.000  C
  H168     1.0000 0.14800  0.07000  0.90870  Biso   1.000  H
  C241     1.0000 0.52090  0.83730  0.82860  Biso   1.000  C
  H169     1.0000 0.53300  0.85360  0.86610  Biso   1.000  H
  C242     1.0000 0.53760  0.88650  0.78510  Biso   1.000  C
  H170     1.0000 0.55400  0.93800  0.79180  Biso   1.000  H
  C243     1.0000 0.53520  0.86060  0.73040  Biso   1.000  C
  H171     1.0000 0.54140  0.89540  0.69950  Biso   1.000  H
  C244     1.0000 0.51590  0.78540  0.71910  Biso   1.000  C
  H172     1.0000 0.50560  0.76900  0.68160  Biso   1.000  H
  C245     1.0000 0.63740  0.77780  0.07090  Biso   1.000  C
  C246     1.0000 0.69120  0.71780  0.07050  Biso   1.000  C
  C247     1.0000 0.75930  0.74140  0.06820  Biso   1.000  C
  H173     1.0000 0.76860  0.79370  0.06790  Biso   1.000  H
  C248     1.0000 0.67890  0.63840  0.06980  Biso   1.000  C
  C249     1.0000 0.60680  0.60340  0.05460  Biso   1.000  C
  H174     1.0000 0.56930  0.63430  0.04530  Biso   1.000  H
  C250     1.0000 0.60120  0.52290  0.05550  Biso   1.000  C
  H175     1.0000 0.55730  0.50150  0.05900  Biso   1.000  H
  C251     1.0000 0.81500  0.69030  0.06630  Biso   1.000  C
  H176     1.0000 0.86020  0.70840  0.06410  Biso   1.000  H
  C252     1.0000 0.73520  0.58480  0.06970  Biso   1.000  C
  C253     1.0000 0.71920  0.50020  0.05450  Biso   1.000  C
  H177     1.0000 0.75570  0.46680  0.04750  Biso   1.000  H
  C254     1.0000 0.65610  0.47520  0.05140  Biso   1.000  C
  H178     1.0000 0.64840  0.42300  0.04630  Biso   1.000  H
  C255     1.0000 0.80220  0.61330  0.06770  Biso   1.000  C
  C256     1.0000 0.86470  0.56060  0.06840  Biso   1.000  C
  O61      1.0000 0.65400  0.84140  0.09080  Biso   1.000  O
  O62      1.0000 0.57910  0.76210  0.05290  Biso   1.000  O
  O63      1.0000 0.91070  0.56960  0.03360  Biso   1.000  O
  O64      1.0000 0.86550  0.51120  0.10650  Biso   1.000  O
  O65      1.0000 0.44460  0.60430  0.67920  Biso   1.000  O
  Zn13     1.0000 0.58104  0.91922  0.10036  Biso   1.000  Zn
  C257     1.0000 0.61330  0.60820  0.08350  Biso   1.000  C
  H179     1.0000 0.57470  0.64010  0.08290  Biso   1.000  H
  C258     1.0000 0.60560  0.53650  0.09710  Biso   1.000  C
  H180     1.0000 0.56360  0.52080  0.11220  Biso   1.000  H
  C259     1.0000 0.72100  0.50670  0.08160  Biso   1.000  C
  H181     1.0000 0.75760  0.47210  0.08340  Biso   1.000  H
  C260     1.0000 0.65780  0.48210  0.09010  Biso   1.000  C
  H182     1.0000 0.64800  0.43000  0.09130  Biso   1.000  H
  C261     1.0000 0.02090  0.33730  0.82860  Biso   1.000  C
  H183     1.0000 0.03300  0.35360  0.86610  Biso   1.000  H
  C262     1.0000 0.03760  0.38650  0.78510  Biso   1.000  C
  H184     1.0000 0.05400  0.43800  0.79180  Biso   1.000  H
  C263     1.0000 0.03520  0.36060  0.73040  Biso   1.000  C
  H185     1.0000 0.04140  0.39540  0.69950  Biso   1.000  H
  C264     1.0000 0.01590  0.28540  0.71910  Biso   1.000  C
  H186     1.0000 0.00560  0.26900  0.68160  Biso   1.000  H
  C265     1.0000 0.13740  0.27780  0.07090  Biso   1.000  C
  C266     1.0000 0.19120  0.21780  0.07050  Biso   1.000  C
  C267     1.0000 0.25930  0.24140  0.06820  Biso   1.000  C
  H187     1.0000 0.26860  0.29370  0.06790  Biso   1.000  H
  C268     1.0000 0.17890  0.13840  0.06980  Biso   1.000  C
  C269     1.0000 0.10680  0.10340  0.05460  Biso   1.000  C
  H188     1.0000 0.06930  0.13430  0.04530  Biso   1.000  H
  C270     1.0000 0.10120  0.02290  0.05550  Biso   1.000  C
  H189     1.0000 0.05730  0.00150  0.05900  Biso   1.000  H
  C271     1.0000 0.31500  0.19030  0.06630  Biso   1.000  C
  H190     1.0000 0.36020  0.20840  0.06410  Biso   1.000  H
  C272     1.0000 0.23520  0.08480  0.06970  Biso   1.000  C
  C273     1.0000 0.21920  0.00020  0.05450  Biso   1.000  C
  H191     1.0000 0.25570  0.96680  0.04750  Biso   1.000  H
  C274     1.0000 0.15610  0.97520  0.05140  Biso   1.000  C
  H192     1.0000 0.14840  0.92300  0.04630  Biso   1.000  H
  C275     1.0000 0.30220  0.11330  0.06770  Biso   1.000  C
  C276     1.0000 0.36470  0.06060  0.06840  Biso   1.000  C
  O66      1.0000 0.15400  0.34140  0.09080  Biso   1.000  O
  O67      1.0000 0.07910  0.26210  0.05290  Biso   1.000  O
  O68      1.0000 0.41070  0.06960  0.03360  Biso   1.000  O
  O69      1.0000 0.36550  0.01120  0.10650  Biso   1.000  O
  O70      1.0000 0.94460  0.10430  0.67920  Biso   1.000  O
  Zn14     1.0000 0.08104  0.41922  0.10036  Biso   1.000  Zn
  C277     1.0000 0.11330  0.10820  0.08350  Biso   1.000  C
  H193     1.0000 0.07470  0.14010  0.08290  Biso   1.000  H
  C278     1.0000 0.10560  0.03650  0.09710  Biso   1.000  C
  H194     1.0000 0.06360  0.02080  0.11220  Biso   1.000  H
  C279     1.0000 0.22100  0.00670  0.08160  Biso   1.000  C
  H195     1.0000 0.25760  0.97210  0.08340  Biso   1.000  H
  C280     1.0000 0.15780  0.98210  0.09010  Biso   1.000  C
  H196     1.0000 0.14800  0.93000  0.09130  Biso   1.000  H
  C281     1.0000 0.47910  0.66270  0.32860  Biso   1.000  C
  H197     1.0000 0.46700  0.64640  0.36610  Biso   1.000  H
  C282     1.0000 0.46240  0.61350  0.28510  Biso   1.000  C
  H198     1.0000 0.44600  0.56200  0.29180  Biso   1.000  H
  C283     1.0000 0.46480  0.63940  0.23040  Biso   1.000  C
  H199     1.0000 0.45860  0.60460  0.19950  Biso   1.000  H
  C284     1.0000 0.48410  0.71460  0.21910  Biso   1.000  C
  H200     1.0000 0.49440  0.73100  0.18160  Biso   1.000  H
  C285     1.0000 0.36260  0.72220  0.57090  Biso   1.000  C
  C286     1.0000 0.30880  0.78220  0.57050  Biso   1.000  C
  C287     1.0000 0.24070  0.75860  0.56820  Biso   1.000  C
  H201     1.0000 0.23140  0.70630  0.56790  Biso   1.000  H
  C288     1.0000 0.32110  0.86160  0.56980  Biso   1.000  C
  C289     1.0000 0.39320  0.89660  0.55460  Biso   1.000  C
  H202     1.0000 0.43070  0.86570  0.54530  Biso   1.000  H
  C290     1.0000 0.39880  0.97710  0.55550  Biso   1.000  C
  H203     1.0000 0.44270  0.99850  0.55900  Biso   1.000  H
  C291     1.0000 0.18500  0.80970  0.56630  Biso   1.000  C
  H204     1.0000 0.13980  0.79160  0.56410  Biso   1.000  H
  C292     1.0000 0.26480  0.91520  0.56970  Biso   1.000  C
  C293     1.0000 0.28080  0.99980  0.55450  Biso   1.000  C
  H205     1.0000 0.24430  0.03320  0.54750  Biso   1.000  H
  C294     1.0000 0.34390  0.02480  0.55140  Biso   1.000  C
  H206     1.0000 0.35160  0.07700  0.54630  Biso   1.000  H
  C295     1.0000 0.19780  0.88670  0.56770  Biso   1.000  C
  C296     1.0000 0.13530  0.93940  0.56840  Biso   1.000  C
  O71      1.0000 0.34600  0.65860  0.59080  Biso   1.000  O
  O72      1.0000 0.42090  0.73790  0.55290  Biso   1.000  O
  O73      1.0000 0.08930  0.93040  0.53360  Biso   1.000  O
  O74      1.0000 0.13450  0.98880  0.60650  Biso   1.000  O
  O75      1.0000 0.55540  0.89570  0.17920  Biso   1.000  O
  Zn15     1.0000 0.41896  0.58078  0.60036  Biso   1.000  Zn
  C297     1.0000 0.38670  0.89180  0.58350  Biso   1.000  C
  H207     1.0000 0.42530  0.85990  0.58290  Biso   1.000  H
  C298     1.0000 0.39440  0.96350  0.59710  Biso   1.000  C
  H208     1.0000 0.43640  0.97920  0.61220  Biso   1.000  H
  C299     1.0000 0.27900  0.99330  0.58160  Biso   1.000  C
  H209     1.0000 0.24240  0.02790  0.58340  Biso   1.000  H
  C300     1.0000 0.34220  0.01790  0.59010  Biso   1.000  C
  H210     1.0000 0.35200  0.07000  0.59130  Biso   1.000  H
  C301     1.0000 0.97910  0.16270  0.32860  Biso   1.000  C
  H211     1.0000 0.96700  0.14640  0.36610  Biso   1.000  H
  C302     1.0000 0.96240  0.11350  0.28510  Biso   1.000  C
  H212     1.0000 0.94600  0.06200  0.29180  Biso   1.000  H
  C303     1.0000 0.96480  0.13940  0.23040  Biso   1.000  C
  H213     1.0000 0.95860  0.10460  0.19950  Biso   1.000  H
  C304     1.0000 0.98410  0.21460  0.21910  Biso   1.000  C
  H214     1.0000 0.99440  0.23100  0.18160  Biso   1.000  H
  C305     1.0000 0.86260  0.22220  0.57090  Biso   1.000  C
  C306     1.0000 0.80880  0.28220  0.57050  Biso   1.000  C
  C307     1.0000 0.74070  0.25860  0.56820  Biso   1.000  C
  H215     1.0000 0.73140  0.20630  0.56790  Biso   1.000  H
  C308     1.0000 0.82110  0.36160  0.56980  Biso   1.000  C
  C309     1.0000 0.89320  0.39660  0.55460  Biso   1.000  C
  H216     1.0000 0.93070  0.36570  0.54530  Biso   1.000  H
  C310     1.0000 0.89880  0.47710  0.55550  Biso   1.000  C
  H217     1.0000 0.94270  0.49850  0.55900  Biso   1.000  H
  C311     1.0000 0.68500  0.30970  0.56630  Biso   1.000  C
  H218     1.0000 0.63980  0.29160  0.56410  Biso   1.000  H
  C312     1.0000 0.76480  0.41520  0.56970  Biso   1.000  C
  C313     1.0000 0.78080  0.49980  0.55450  Biso   1.000  C
  H219     1.0000 0.74430  0.53320  0.54750  Biso   1.000  H
  C314     1.0000 0.84390  0.52480  0.55140  Biso   1.000  C
  H220     1.0000 0.85160  0.57700  0.54630  Biso   1.000  H
  C315     1.0000 0.69780  0.38670  0.56770  Biso   1.000  C
  C316     1.0000 0.63530  0.43940  0.56840  Biso   1.000  C
  O76      1.0000 0.84600  0.15860  0.59080  Biso   1.000  O
  O77      1.0000 0.92090  0.23790  0.55290  Biso   1.000  O
  O78      1.0000 0.58930  0.43040  0.53360  Biso   1.000  O
  O79      1.0000 0.63450  0.48880  0.60650  Biso   1.000  O
  O80      1.0000 0.05540  0.39570  0.17920  Biso   1.000  O
  Zn16     1.0000 0.91896  0.08078  0.60036  Biso   1.000  Zn
  C317     1.0000 0.88670  0.39180  0.58350  Biso   1.000  C
  H221     1.0000 0.92530  0.35990  0.58290  Biso   1.000  H
  C318     1.0000 0.89440  0.46350  0.59710  Biso   1.000  C
  H222     1.0000 0.93640  0.47920  0.61220  Biso   1.000  H
  C319     1.0000 0.77900  0.49330  0.58160  Biso   1.000  C
  H223     1.0000 0.74240  0.52790  0.58340  Biso   1.000  H
  C320     1.0000 0.84220  0.51790  0.59010  Biso   1.000  C
  H224     1.0000 0.85200  0.57000  0.59130  Biso   1.000  H
  Zn17     1.0000 0.50000  0.50000  0.50000  Biso   1.000  Zn
  Zn18     1.0000 0.00000  0.00000  0.50000  Biso   1.000  Zn
  Zn19     1.0000 0.50000  0.00000  0.00000  Biso   1.000  Zn
  Zn20     1.0000 0.00000  0.50000  0.00000  Biso   1.000  Zn
  C321     1.0000 0.50000  0.76380  0.26260  Biso   1.000  C
  C322     1.0000 0.50000  0.73790  0.31730  Biso   1.000  C
  C323     1.0000 0.50000  0.77570  0.42100  Biso   1.000  C
  C324     1.0000 0.50000  0.79990  0.36490  Biso   1.000  C
  C325     1.0000 0.50000  0.86520  0.35330  Biso   1.000  C
  H225     1.0000 0.50000  0.90090  0.38200  Biso   1.000  H
  C326     1.0000 0.50000  0.89160  0.29900  Biso   1.000  C
  H226     1.0000 0.50000  0.94450  0.29410  Biso   1.000  H
  C327     1.0000 0.50000  0.85200  0.25620  Biso   1.000  C
  C328     1.0000 0.50000  0.88350  0.20050  Biso   1.000  C
  O81      1.0000 0.50000  0.58280  0.55430  Biso   1.000  O
  O82      1.0000 0.50000  0.71380  0.44000  Biso   1.000  O
  O83      1.0000 0.50000  0.83320  0.45440  Biso   1.000  O
  Zn21     1.0000 0.50000  0.68402  0.51706  Biso   1.000  Zn
  Zn22     1.0000 0.50000  0.54320  0.47210  Biso   1.000  Zn
  C329     1.0000 0.00000  0.26380  0.26260  Biso   1.000  C
  C330     1.0000 0.00000  0.23790  0.31730  Biso   1.000  C
  C331     1.0000 0.00000  0.27570  0.42100  Biso   1.000  C
  C332     1.0000 0.00000  0.29990  0.36490  Biso   1.000  C
  C333     1.0000 0.00000  0.36520  0.35330  Biso   1.000  C
  H227     1.0000 0.00000  0.40090  0.38200  Biso   1.000  H
  C334     1.0000 0.00000  0.39160  0.29900  Biso   1.000  C
  H228     1.0000 0.00000  0.44450  0.29410  Biso   1.000  H
  C335     1.0000 0.00000  0.35200  0.25620  Biso   1.000  C
  C336     1.0000 0.00000  0.38350  0.20050  Biso   1.000  C
  O84      1.0000 0.00000  0.08280  0.55430  Biso   1.000  O
  O85      1.0000 0.00000  0.21380  0.44000  Biso   1.000  O
  O86      1.0000 0.00000  0.33320  0.45440  Biso   1.000  O
  Zn23     1.0000 0.00000  0.18402  0.51706  Biso   1.000  Zn
  Zn24     1.0000 0.00000  0.04320  0.47210  Biso   1.000  Zn
  C337     1.0000 0.50000  0.73620  0.76260  Biso   1.000  C
  C338     1.0000 0.50000  0.76210  0.81730  Biso   1.000  C
  C339     1.0000 0.50000  0.72430  0.92100  Biso   1.000  C
  C340     1.0000 0.50000  0.70010  0.86490  Biso   1.000  C
  C341     1.0000 0.50000  0.63480  0.85330  Biso   1.000  C
  H229     1.0000 0.50000  0.59910  0.88200  Biso   1.000  H
  C342     1.0000 0.50000  0.60840  0.79900  Biso   1.000  C
  H230     1.0000 0.50000  0.55550  0.79410  Biso   1.000  H
  C343     1.0000 0.50000  0.64800  0.75620  Biso   1.000  C
  C344     1.0000 0.50000  0.61650  0.70050  Biso   1.000  C
  O87      1.0000 0.50000  0.91720  0.05430  Biso   1.000  O
  O88      1.0000 0.50000  0.78620  0.94000  Biso   1.000  O
  O89      1.0000 0.50000  0.66680  0.95440  Biso   1.000  O
  Zn25     1.0000 0.50000  0.81598  0.01706  Biso   1.000  Zn
  Zn26     1.0000 0.50000  0.95680  0.97210  Biso   1.000  Zn
  C345     1.0000 0.00000  0.23620  0.76260  Biso   1.000  C
  C346     1.0000 0.00000  0.26210  0.81730  Biso   1.000  C
  C347     1.0000 0.00000  0.22430  0.92100  Biso   1.000  C
  C348     1.0000 0.00000  0.20010  0.86490  Biso   1.000  C
  C349     1.0000 0.00000  0.13480  0.85330  Biso   1.000  C
  H231     1.0000 0.00000  0.09910  0.88200  Biso   1.000  H
  C350     1.0000 0.00000  0.10840  0.79900  Biso   1.000  C
  H232     1.0000 0.00000  0.05550  0.79410  Biso   1.000  H
  C351     1.0000 0.00000  0.14800  0.75620  Biso   1.000  C
  C352     1.0000 0.00000  0.11650  0.70050  Biso   1.000  C
  O90      1.0000 0.00000  0.41720  0.05430  Biso   1.000  O
  O91      1.0000 0.00000  0.28620  0.94000  Biso   1.000  O
  O92      1.0000 0.00000  0.16680  0.95440  Biso   1.000  O
  Zn27     1.0000 0.00000  0.31598  0.01706  Biso   1.000  Zn
  Zn28     1.0000 0.00000  0.45680  0.97210  Biso   1.000  Zn
  C353     1.0000 0.50000  0.26380  0.23740  Biso   1.000  C
  C354     1.0000 0.50000  0.23790  0.18270  Biso   1.000  C
  C355     1.0000 0.50000  0.27570  0.07900  Biso   1.000  C
  C356     1.0000 0.50000  0.29990  0.13510  Biso   1.000  C
  C357     1.0000 0.50000  0.36520  0.14670  Biso   1.000  C
  H233     1.0000 0.50000  0.40090  0.11800  Biso   1.000  H
  C358     1.0000 0.50000  0.39160  0.20100  Biso   1.000  C
  H234     1.0000 0.50000  0.44450  0.20590  Biso   1.000  H
  C359     1.0000 0.50000  0.35200  0.24380  Biso   1.000  C
  C360     1.0000 0.50000  0.38350  0.29950  Biso   1.000  C
  O93      1.0000 0.50000  0.08280  0.94570  Biso   1.000  O
  O94      1.0000 0.50000  0.21380  0.06000  Biso   1.000  O
  O95      1.0000 0.50000  0.33320  0.04560  Biso   1.000  O
  Zn29     1.0000 0.50000  0.18402  0.98294  Biso   1.000  Zn
  Zn30     1.0000 0.50000  0.04320  0.02790  Biso   1.000  Zn
  C361     1.0000 0.00000  0.76380  0.23740  Biso   1.000  C
  C362     1.0000 0.00000  0.73790  0.18270  Biso   1.000  C
  C363     1.0000 0.00000  0.77570  0.07900  Biso   1.000  C
  C364     1.0000 0.00000  0.79990  0.13510  Biso   1.000  C
  C365     1.0000 0.00000  0.86520  0.14670  Biso   1.000  C
  H235     1.0000 0.00000  0.90090  0.11800  Biso   1.000  H
  C366     1.0000 0.00000  0.89160  0.20100  Biso   1.000  C
  H236     1.0000 0.00000  0.94450  0.20590  Biso   1.000  H
  C367     1.0000 0.00000  0.85200  0.24380  Biso   1.000  C
  C368     1.0000 0.00000  0.88350  0.29950  Biso   1.000  C
  O96      1.0000 0.00000  0.58280  0.94570  Biso   1.000  O
  O97      1.0000 0.00000  0.71380  0.06000  Biso   1.000  O
  O98      1.0000 0.00000  0.83320  0.04560  Biso   1.000  O
  Zn31     1.0000 0.00000  0.68402  0.98294  Biso   1.000  Zn
  Zn32     1.0000 0.00000  0.54320  0.02790  Biso   1.000  Zn
  C369     1.0000 0.50000  0.23620  0.73740  Biso   1.000  C
  C370     1.0000 0.50000  0.26210  0.68270  Biso   1.000  C
  C371     1.0000 0.50000  0.22430  0.57900  Biso   1.000  C
  C372     1.0000 0.50000  0.20010  0.63510  Biso   1.000  C
  C373     1.0000 0.50000  0.13480  0.64670  Biso   1.000  C
  H237     1.0000 0.50000  0.09910  0.61800  Biso   1.000  H
  C374     1.0000 0.50000  0.10840  0.70100  Biso   1.000  C
  H238     1.0000 0.50000  0.05550  0.70590  Biso   1.000  H
  C375     1.0000 0.50000  0.14800  0.74380  Biso   1.000  C
  C376     1.0000 0.50000  0.11650  0.79950  Biso   1.000  C
  O99      1.0000 0.50000  0.41720  0.44570  Biso   1.000  O
  O100     1.0000 0.50000  0.28620  0.56000  Biso   1.000  O
  O101     1.0000 0.50000  0.16680  0.54560  Biso   1.000  O
  Zn33     1.0000 0.50000  0.31598  0.48294  Biso   1.000  Zn
  Zn34     1.0000 0.50000  0.45680  0.52790  Biso   1.000  Zn
  C377     1.0000 0.00000  0.73620  0.73740  Biso   1.000  C
  C378     1.0000 0.00000  0.76210  0.68270  Biso   1.000  C
  C379     1.0000 0.00000  0.72430  0.57900  Biso   1.000  C
  C380     1.0000 0.00000  0.70010  0.63510  Biso   1.000  C
  C381     1.0000 0.00000  0.63480  0.64670  Biso   1.000  C
  H239     1.0000 0.00000  0.59910  0.61800  Biso   1.000  H
  C382     1.0000 0.00000  0.60840  0.70100  Biso   1.000  C
  H240     1.0000 0.00000  0.55550  0.70590  Biso   1.000  H
  C383     1.0000 0.00000  0.64800  0.74380  Biso   1.000  C
  C384     1.0000 0.00000  0.61650  0.79950  Biso   1.000  C
  O102     1.0000 0.00000  0.91720  0.44570  Biso   1.000  O
  O103     1.0000 0.00000  0.78620  0.56000  Biso   1.000  O
  O104     1.0000 0.00000  0.66680  0.54560  Biso   1.000  O
  Zn35     1.0000 0.00000  0.81598  0.48294  Biso   1.000  Zn
  Zn36     1.0000 0.00000  0.95680  0.52790  Biso   1.000  Zn
