data_image0
_cell_length_a       30.9697
_cell_length_b       30.9697
_cell_length_c       21.302
_cell_angle_alpha    90
_cell_angle_beta     90
_cell_angle_gamma    90

_symmetry_space_group_name_H-M    "P 1"
_symmetry_int_tables_number       1

loop_
  _symmetry_equiv_pos_as_xyz
  'x, y, z'

loop_
  _atom_site_label
  _atom_site_occupancy
  _atom_site_fract_x
  _atom_site_fract_y
  _atom_site_fract_z
  _atom_site_thermal_displace_type
  _atom_site_B_iso_or_equiv
  _atom_site_type_symbol
  Mo1      1.0000 0.67712  0.39568  0.02465  Biso   1.000  Mo
  Mo2      1.0000 0.53247  0.22168  0.19642  Biso   1.000  Mo
  Mo3      1.0000 0.72505  0.36149  0.11683  Biso   1.000  Mo
  Cu1      1.0000 0.61611  0.43414  0.21116  Biso   1.000  Cu
  Cu2      1.0000 0.58474  0.35526  0.17465  Biso   1.000  Cu
  I1       1.0000 0.54248  0.42932  0.14965  Biso   1.000  I
  I2       1.0000 0.61855  0.36554  0.28763  Biso   1.000  I
  P1       1.0000 0.66813  0.41695  0.13707  Biso   1.000  P
  P2       1.0000 0.54132  0.29771  0.17525  Biso   1.000  P
  P3       1.0000 0.64554  0.35257  0.11079  Biso   1.000  P
  P4       1.0000 0.75247  0.37388  0.01110  Biso   1.000  P
  P5       1.0000 0.48250  0.23000  0.28380  Biso   1.000  P
  P6       1.0000 0.52810  0.28280  0.28060  Biso   1.000  P
  P7       1.0000 0.70832  0.32074  0.01690  Biso   1.000  P
  P8       1.0000 0.74300  0.43310  0.06750  Biso   1.000  P
  S1       1.0000 0.50802  0.26181  0.10030  Biso   1.000  S
  S2       1.0000 0.68750  0.32020  0.04130  Biso   1.000  S
  S3       1.0000 0.72550  0.43696  0.08850  Biso   1.000  S
  C1       1.0000 0.60420  0.21590  0.04230  Biso   1.000  C
  H1       1.0000 0.58010  0.23640  0.04320  Biso   1.000  H
  H2       1.0000 0.61270  0.21050  0.99870  Biso   1.000  H
  H3       1.0000 0.62870  0.22800  0.06540  Biso   1.000  H
  C2       1.0000 0.56450  0.16150  0.24540  Biso   1.000  C
  C3       1.0000 0.60470  0.20710  0.18280  Biso   1.000  C
  H4       1.0000 0.62670  0.22870  0.16910  Biso   1.000  H
  C4       1.0000 0.79340  0.34430  0.15490  Biso   1.000  C
  H5       1.0000 0.82140  0.35240  0.13460  Biso   1.000  H
  C5       1.0000 0.66420  0.40790  0.91960  Biso   1.000  C
  H6       1.0000 0.68030  0.39580  0.88290  Biso   1.000  H
  C6       1.0000 0.56390  0.36910  0.87940  Biso   1.000  C
  H7       1.0000 0.54310  0.38890  0.89870  Biso   1.000  H
  H8       1.0000 0.54860  0.34420  0.86190  Biso   1.000  H
  H9       1.0000 0.57950  0.38410  0.84580  Biso   1.000  H
  C7       1.0000 0.77080  0.30460  0.14570  Biso   1.000  C
  C8       1.0000 0.78520  0.26870  0.10190  Biso   1.000  C
  H10      1.0000 0.79770  0.24510  0.12650  Biso   1.000  H
  H11      1.0000 0.80690  0.27990  0.07260  Biso   1.000  H
  H12      1.0000 0.76030  0.25800  0.07820  Biso   1.000  H
  C9       1.0000 0.59470  0.19750  0.24660  Biso   1.000  C
  C10      1.0000 0.55730  0.15180  0.18180  Biso   1.000  C
  H13      1.0000 0.53900  0.12740  0.16670  Biso   1.000  H
  C11      1.0000 0.58340  0.17800  0.14220  Biso   1.000  C
  C12      1.0000 0.77270  0.36780  0.20390  Biso   1.000  C
  C13      1.0000 0.54960  0.15460  0.03960  Biso   1.000  C
  H14      1.0000 0.52560  0.17510  0.04300  Biso   1.000  H
  H15      1.0000 0.54170  0.12740  0.05980  Biso   1.000  H
  H16      1.0000 0.55610  0.14940  0.99520  Biso   1.000  H
  C14      1.0000 0.81920  0.43350  0.19680  Biso   1.000  C
  H17      1.0000 0.84320  0.41560  0.18210  Biso   1.000  H
  H18      1.0000 0.83040  0.45810  0.22050  Biso   1.000  H
  H19      1.0000 0.80260  0.44400  0.16070  Biso   1.000  H
  C15      1.0000 0.62530  0.13920  0.06430  Biso   1.000  C
  H20      1.0000 0.65230  0.14920  0.08330  Biso   1.000  H
  H21      1.0000 0.62990  0.13380  0.01940  Biso   1.000  H
  H22      1.0000 0.61610  0.11240  0.08470  Biso   1.000  H
  C16      1.0000 0.54650  0.13860  0.30040  Biso   1.000  C
  H23      1.0000 0.56390  0.11290  0.30920  Biso   1.000  H
  H24      1.0000 0.51670  0.13000  0.29150  Biso   1.000  H
  H25      1.0000 0.54700  0.15780  0.33700  Biso   1.000  H
  C17      1.0000 0.61260  0.42480  0.99050  Biso   1.000  C
  H26      1.0000 0.58630  0.42620  0.01760  Biso   1.000  H
  C18      1.0000 0.62190  0.38950  0.95130  Biso   1.000  C
  C19      1.0000 0.66900  0.44860  0.94650  Biso   1.000  C
  C20      1.0000 0.73470  0.30450  0.18680  Biso   1.000  C
  C21      1.0000 0.59030  0.17380  0.07260  Biso   1.000  C
  C22      1.0000 0.61370  0.21760  0.30430  Biso   1.000  C
  H27      1.0000 0.64290  0.20640  0.31080  Biso   1.000  H
  H28      1.0000 0.59570  0.21050  0.34070  Biso   1.000  H
  H29      1.0000 0.61480  0.24900  0.29900  Biso   1.000  H
  C23      1.0000 0.75370  0.43430  0.26390  Biso   1.000  C
  H30      1.0000 0.73600  0.41690  0.29250  Biso   1.000  H
  H31      1.0000 0.73570  0.44450  0.22890  Biso   1.000  H
  H32      1.0000 0.76550  0.45920  0.28650  Biso   1.000  H
  C24      1.0000 0.81740  0.38940  0.29120  Biso   1.000  C
  H33      1.0000 0.84190  0.37340  0.27390  Biso   1.000  H
  H34      1.0000 0.79980  0.37000  0.31710  Biso   1.000  H
  H35      1.0000 0.82800  0.41330  0.31710  Biso   1.000  H
  C25      1.0000 0.79030  0.40700  0.23850  Biso   1.000  C
  C26      1.0000 0.73590  0.34330  0.22150  Biso   1.000  C
  H36      1.0000 0.71580  0.35070  0.25670  Biso   1.000  H
  C27      1.0000 0.70320  0.26720  0.19420  Biso   1.000  C
  H37      1.0000 0.71580  0.24520  0.22170  Biso   1.000  H
  H38      1.0000 0.69720  0.25450  0.15290  Biso   1.000  H
  H39      1.0000 0.67620  0.27780  0.21260  Biso   1.000  H
  C28      1.0000 0.57320  0.33910  0.98060  Biso   1.000  C
  H40      1.0000 0.56490  0.36370  0.00690  Biso   1.000  H
  H41      1.0000 0.59140  0.31940  0.00500  Biso   1.000  H
  H42      1.0000 0.54720  0.32390  0.96650  Biso   1.000  H
  C29      1.0000 0.59600  0.35380  0.92900  Biso   1.000  C
  C30      1.0000 0.63860  0.50380  0.02400  Biso   1.000  C
  H43      1.0000 0.62130  0.52450  0.99990  Biso   1.000  H
  H44      1.0000 0.66800  0.51510  0.02920  Biso   1.000  H
  H45      1.0000 0.62550  0.49950  0.06540  Biso   1.000  H
  C31      1.0000 0.64050  0.45710  0.98610  Biso   1.000  C
  C32      1.0000 0.62980  0.32290  0.88790  Biso   1.000  C
  H46      1.0000 0.63340  0.29510  0.90930  Biso   1.000  H
  H47      1.0000 0.65780  0.33730  0.88450  Biso   1.000  H
  H48      1.0000 0.61800  0.31800  0.84580  Biso   1.000  H
  Mo4      1.0000 0.17712  0.89568  0.52465  Biso   1.000  Mo
  Mo5      1.0000 0.03247  0.72168  0.69642  Biso   1.000  Mo
  Mo6      1.0000 0.22505  0.86149  0.61683  Biso   1.000  Mo
  Cu3      1.0000 0.11611  0.93414  0.71116  Biso   1.000  Cu
  Cu4      1.0000 0.08474  0.85526  0.67465  Biso   1.000  Cu
  I3       1.0000 0.04248  0.92932  0.64965  Biso   1.000  I
  I4       1.0000 0.11855  0.86554  0.78763  Biso   1.000  I
  P9       1.0000 0.16813  0.91695  0.63707  Biso   1.000  P
  P10      1.0000 0.04132  0.79771  0.67525  Biso   1.000  P
  P11      1.0000 0.14554  0.85257  0.61079  Biso   1.000  P
  P12      1.0000 0.25247  0.87388  0.51110  Biso   1.000  P
  P13      1.0000 0.98250  0.73000  0.78380  Biso   1.000  P
  P14      1.0000 0.02810  0.78280  0.78060  Biso   1.000  P
  P15      1.0000 0.20832  0.82074  0.51690  Biso   1.000  P
  P16      1.0000 0.24300  0.93310  0.56750  Biso   1.000  P
  S4       1.0000 0.00802  0.76181  0.60030  Biso   1.000  S
  S5       1.0000 0.18750  0.82020  0.54130  Biso   1.000  S
  S6       1.0000 0.22550  0.93696  0.58850  Biso   1.000  S
  C33      1.0000 0.10420  0.71590  0.54230  Biso   1.000  C
  H49      1.0000 0.08010  0.73640  0.54320  Biso   1.000  H
  H50      1.0000 0.11270  0.71050  0.49870  Biso   1.000  H
  H51      1.0000 0.12870  0.72800  0.56540  Biso   1.000  H
  C34      1.0000 0.06450  0.66150  0.74540  Biso   1.000  C
  C35      1.0000 0.10470  0.70710  0.68280  Biso   1.000  C
  H52      1.0000 0.12670  0.72870  0.66910  Biso   1.000  H
  C36      1.0000 0.29340  0.84430  0.65490  Biso   1.000  C
  H53      1.0000 0.32140  0.85240  0.63460  Biso   1.000  H
  C37      1.0000 0.16420  0.90790  0.41960  Biso   1.000  C
  H54      1.0000 0.18030  0.89580  0.38290  Biso   1.000  H
  C38      1.0000 0.06390  0.86910  0.37940  Biso   1.000  C
  H55      1.0000 0.04310  0.88890  0.39870  Biso   1.000  H
  H56      1.0000 0.04860  0.84420  0.36190  Biso   1.000  H
  H57      1.0000 0.07950  0.88410  0.34580  Biso   1.000  H
  C39      1.0000 0.27080  0.80460  0.64570  Biso   1.000  C
  C40      1.0000 0.28520  0.76870  0.60190  Biso   1.000  C
  H58      1.0000 0.29770  0.74510  0.62650  Biso   1.000  H
  H59      1.0000 0.30690  0.77990  0.57260  Biso   1.000  H
  H60      1.0000 0.26030  0.75800  0.57820  Biso   1.000  H
  C41      1.0000 0.09470  0.69750  0.74660  Biso   1.000  C
  C42      1.0000 0.05730  0.65180  0.68180  Biso   1.000  C
  H61      1.0000 0.03900  0.62740  0.66670  Biso   1.000  H
  C43      1.0000 0.08340  0.67800  0.64220  Biso   1.000  C
  C44      1.0000 0.27270  0.86780  0.70390  Biso   1.000  C
  C45      1.0000 0.04960  0.65460  0.53960  Biso   1.000  C
  H62      1.0000 0.02560  0.67510  0.54300  Biso   1.000  H
  H63      1.0000 0.04170  0.62740  0.55980  Biso   1.000  H
  H64      1.0000 0.05610  0.64940  0.49520  Biso   1.000  H
  C46      1.0000 0.31920  0.93350  0.69680  Biso   1.000  C
  H65      1.0000 0.34320  0.91560  0.68210  Biso   1.000  H
  H66      1.0000 0.33040  0.95810  0.72050  Biso   1.000  H
  H67      1.0000 0.30260  0.94400  0.66070  Biso   1.000  H
  C47      1.0000 0.12530  0.63920  0.56430  Biso   1.000  C
  H68      1.0000 0.15230  0.64920  0.58330  Biso   1.000  H
  H69      1.0000 0.12990  0.63380  0.51940  Biso   1.000  H
  H70      1.0000 0.11610  0.61240  0.58470  Biso   1.000  H
  C48      1.0000 0.04650  0.63860  0.80040  Biso   1.000  C
  H71      1.0000 0.06390  0.61290  0.80920  Biso   1.000  H
  H72      1.0000 0.01670  0.63000  0.79150  Biso   1.000  H
  H73      1.0000 0.04700  0.65780  0.83700  Biso   1.000  H
  C49      1.0000 0.11260  0.92480  0.49050  Biso   1.000  C
  H74      1.0000 0.08630  0.92620  0.51760  Biso   1.000  H
  C50      1.0000 0.12190  0.88950  0.45130  Biso   1.000  C
  C51      1.0000 0.16900  0.94860  0.44650  Biso   1.000  C
  C52      1.0000 0.23470  0.80450  0.68680  Biso   1.000  C
  C53      1.0000 0.09030  0.67380  0.57260  Biso   1.000  C
  C54      1.0000 0.11370  0.71760  0.80430  Biso   1.000  C
  H75      1.0000 0.14290  0.70640  0.81080  Biso   1.000  H
  H76      1.0000 0.09570  0.71050  0.84070  Biso   1.000  H
  H77      1.0000 0.11480  0.74900  0.79900  Biso   1.000  H
  C55      1.0000 0.25370  0.93430  0.76390  Biso   1.000  C
  H78      1.0000 0.23600  0.91690  0.79250  Biso   1.000  H
  H79      1.0000 0.23570  0.94450  0.72890  Biso   1.000  H
  H80      1.0000 0.26550  0.95920  0.78650  Biso   1.000  H
  C56      1.0000 0.31740  0.88940  0.79120  Biso   1.000  C
  H81      1.0000 0.34190  0.87340  0.77390  Biso   1.000  H
  H82      1.0000 0.29980  0.87000  0.81710  Biso   1.000  H
  H83      1.0000 0.32800  0.91330  0.81710  Biso   1.000  H
  C57      1.0000 0.29030  0.90700  0.73850  Biso   1.000  C
  C58      1.0000 0.23590  0.84330  0.72150  Biso   1.000  C
  H84      1.0000 0.21580  0.85070  0.75670  Biso   1.000  H
  C59      1.0000 0.20320  0.76720  0.69420  Biso   1.000  C
  H85      1.0000 0.21580  0.74520  0.72170  Biso   1.000  H
  H86      1.0000 0.19720  0.75450  0.65290  Biso   1.000  H
  H87      1.0000 0.17620  0.77780  0.71260  Biso   1.000  H
  C60      1.0000 0.07320  0.83910  0.48060  Biso   1.000  C
  H88      1.0000 0.06490  0.86370  0.50690  Biso   1.000  H
  H89      1.0000 0.09140  0.81940  0.50500  Biso   1.000  H
  H90      1.0000 0.04720  0.82390  0.46650  Biso   1.000  H
  C61      1.0000 0.09600  0.85380  0.42900  Biso   1.000  C
  C62      1.0000 0.13860  0.00380  0.52400  Biso   1.000  C
  H91      1.0000 0.12130  0.02450  0.49990  Biso   1.000  H
  H92      1.0000 0.16800  0.01510  0.52920  Biso   1.000  H
  H93      1.0000 0.12550  0.99950  0.56540  Biso   1.000  H
  C63      1.0000 0.14050  0.95710  0.48610  Biso   1.000  C
  C64      1.0000 0.12980  0.82290  0.38790  Biso   1.000  C
  H94      1.0000 0.13340  0.79510  0.40930  Biso   1.000  H
  H95      1.0000 0.15780  0.83730  0.38450  Biso   1.000  H
  H96      1.0000 0.11800  0.81800  0.34580  Biso   1.000  H
  Mo7      1.0000 0.82288  0.60432  0.52465  Biso   1.000  Mo
  Mo8      1.0000 0.96753  0.77832  0.69642  Biso   1.000  Mo
  Mo9      1.0000 0.77495  0.63851  0.61683  Biso   1.000  Mo
  Cu5      1.0000 0.88389  0.56586  0.71116  Biso   1.000  Cu
  Cu6      1.0000 0.91526  0.64474  0.67465  Biso   1.000  Cu
  I5       1.0000 0.95752  0.57068  0.64965  Biso   1.000  I
  I6       1.0000 0.88145  0.63446  0.78763  Biso   1.000  I
  P17      1.0000 0.83187  0.58305  0.63707  Biso   1.000  P
  P18      1.0000 0.95868  0.70229  0.67525  Biso   1.000  P
  P19      1.0000 0.85446  0.64743  0.61079  Biso   1.000  P
  P20      1.0000 0.74753  0.62612  0.51110  Biso   1.000  P
  P21      1.0000 0.01750  0.77000  0.78380  Biso   1.000  P
  P22      1.0000 0.97190  0.71720  0.78060  Biso   1.000  P
  P23      1.0000 0.79168  0.67926  0.51690  Biso   1.000  P
  P24      1.0000 0.75700  0.56690  0.56750  Biso   1.000  P
  S7       1.0000 0.99198  0.73819  0.60030  Biso   1.000  S
  S8       1.0000 0.81250  0.67980  0.54130  Biso   1.000  S
  S9       1.0000 0.77450  0.56304  0.58850  Biso   1.000  S
  C65      1.0000 0.89580  0.78410  0.54230  Biso   1.000  C
  H97      1.0000 0.91990  0.76360  0.54320  Biso   1.000  H
  H98      1.0000 0.88730  0.78950  0.49870  Biso   1.000  H
  H99      1.0000 0.87130  0.77200  0.56540  Biso   1.000  H
  C66      1.0000 0.93550  0.83850  0.74540  Biso   1.000  C
  C67      1.0000 0.89530  0.79290  0.68280  Biso   1.000  C
  H100     1.0000 0.87330  0.77130  0.66910  Biso   1.000  H
  C68      1.0000 0.70660  0.65570  0.65490  Biso   1.000  C
  H101     1.0000 0.67860  0.64760  0.63460  Biso   1.000  H
  C69      1.0000 0.83580  0.59210  0.41960  Biso   1.000  C
  H102     1.0000 0.81970  0.60420  0.38290  Biso   1.000  H
  C70      1.0000 0.93610  0.63090  0.37940  Biso   1.000  C
  H103     1.0000 0.95690  0.61110  0.39870  Biso   1.000  H
  H104     1.0000 0.95140  0.65580  0.36190  Biso   1.000  H
  H105     1.0000 0.92050  0.61590  0.34580  Biso   1.000  H
  C71      1.0000 0.72920  0.69540  0.64570  Biso   1.000  C
  C72      1.0000 0.71480  0.73130  0.60190  Biso   1.000  C
  H106     1.0000 0.70230  0.75490  0.62650  Biso   1.000  H
  H107     1.0000 0.69310  0.72010  0.57260  Biso   1.000  H
  H108     1.0000 0.73970  0.74200  0.57820  Biso   1.000  H
  C73      1.0000 0.90530  0.80250  0.74660  Biso   1.000  C
  C74      1.0000 0.94270  0.84820  0.68180  Biso   1.000  C
  H109     1.0000 0.96100  0.87260  0.66670  Biso   1.000  H
  C75      1.0000 0.91660  0.82200  0.64220  Biso   1.000  C
  C76      1.0000 0.72730  0.63220  0.70390  Biso   1.000  C
  C77      1.0000 0.95040  0.84540  0.53960  Biso   1.000  C
  H110     1.0000 0.97440  0.82490  0.54300  Biso   1.000  H
  H111     1.0000 0.95830  0.87260  0.55980  Biso   1.000  H
  H112     1.0000 0.94390  0.85060  0.49520  Biso   1.000  H
  C78      1.0000 0.68080  0.56650  0.69680  Biso   1.000  C
  H113     1.0000 0.65680  0.58440  0.68210  Biso   1.000  H
  H114     1.0000 0.66960  0.54190  0.72050  Biso   1.000  H
  H115     1.0000 0.69740  0.55600  0.66070  Biso   1.000  H
  C79      1.0000 0.87470  0.86080  0.56430  Biso   1.000  C
  H116     1.0000 0.84770  0.85080  0.58330  Biso   1.000  H
  H117     1.0000 0.87010  0.86620  0.51940  Biso   1.000  H
  H118     1.0000 0.88390  0.88760  0.58470  Biso   1.000  H
  C80      1.0000 0.95350  0.86140  0.80040  Biso   1.000  C
  H119     1.0000 0.93610  0.88710  0.80920  Biso   1.000  H
  H120     1.0000 0.98330  0.87000  0.79150  Biso   1.000  H
  H121     1.0000 0.95300  0.84220  0.83700  Biso   1.000  H
  C81      1.0000 0.88740  0.57520  0.49050  Biso   1.000  C
  H122     1.0000 0.91370  0.57380  0.51760  Biso   1.000  H
  C82      1.0000 0.87810  0.61050  0.45130  Biso   1.000  C
  C83      1.0000 0.83100  0.55140  0.44650  Biso   1.000  C
  C84      1.0000 0.76530  0.69550  0.68680  Biso   1.000  C
  C85      1.0000 0.90970  0.82620  0.57260  Biso   1.000  C
  C86      1.0000 0.88630  0.78240  0.80430  Biso   1.000  C
  H123     1.0000 0.85710  0.79360  0.81080  Biso   1.000  H
  H124     1.0000 0.90430  0.78950  0.84070  Biso   1.000  H
  H125     1.0000 0.88520  0.75100  0.79900  Biso   1.000  H
  C87      1.0000 0.74630  0.56570  0.76390  Biso   1.000  C
  H126     1.0000 0.76400  0.58310  0.79250  Biso   1.000  H
  H127     1.0000 0.76430  0.55550  0.72890  Biso   1.000  H
  H128     1.0000 0.73450  0.54080  0.78650  Biso   1.000  H
  C88      1.0000 0.68260  0.61060  0.79120  Biso   1.000  C
  H129     1.0000 0.65810  0.62660  0.77390  Biso   1.000  H
  H130     1.0000 0.70020  0.63000  0.81710  Biso   1.000  H
  H131     1.0000 0.67200  0.58670  0.81710  Biso   1.000  H
  C89      1.0000 0.70970  0.59300  0.73850  Biso   1.000  C
  C90      1.0000 0.76410  0.65670  0.72150  Biso   1.000  C
  H132     1.0000 0.78420  0.64930  0.75670  Biso   1.000  H
  C91      1.0000 0.79680  0.73280  0.69420  Biso   1.000  C
  H133     1.0000 0.78420  0.75480  0.72170  Biso   1.000  H
  H134     1.0000 0.80280  0.74550  0.65290  Biso   1.000  H
  H135     1.0000 0.82380  0.72220  0.71260  Biso   1.000  H
  C92      1.0000 0.92680  0.66090  0.48060  Biso   1.000  C
  H136     1.0000 0.93510  0.63630  0.50690  Biso   1.000  H
  H137     1.0000 0.90860  0.68060  0.50500  Biso   1.000  H
  H138     1.0000 0.95280  0.67610  0.46650  Biso   1.000  H
  C93      1.0000 0.90400  0.64620  0.42900  Biso   1.000  C
  C94      1.0000 0.86140  0.49620  0.52400  Biso   1.000  C
  H139     1.0000 0.87870  0.47550  0.49990  Biso   1.000  H
  H140     1.0000 0.83200  0.48490  0.52920  Biso   1.000  H
  H141     1.0000 0.87450  0.50050  0.56540  Biso   1.000  H
  C95      1.0000 0.85950  0.54290  0.48610  Biso   1.000  C
  C96      1.0000 0.87020  0.67710  0.38790  Biso   1.000  C
  H142     1.0000 0.86660  0.70490  0.40930  Biso   1.000  H
  H143     1.0000 0.84220  0.66270  0.38450  Biso   1.000  H
  H144     1.0000 0.88200  0.68200  0.34580  Biso   1.000  H
  Mo10     1.0000 0.32288  0.10432  0.02465  Biso   1.000  Mo
  Mo11     1.0000 0.46753  0.27832  0.19642  Biso   1.000  Mo
  Mo12     1.0000 0.27495  0.13851  0.11683  Biso   1.000  Mo
  Cu7      1.0000 0.38389  0.06586  0.21116  Biso   1.000  Cu
  Cu8      1.0000 0.41526  0.14474  0.17465  Biso   1.000  Cu
  I7       1.0000 0.45752  0.07068  0.14965  Biso   1.000  I
  I8       1.0000 0.38145  0.13446  0.28763  Biso   1.000  I
  P25      1.0000 0.33187  0.08305  0.13707  Biso   1.000  P
  P26      1.0000 0.45868  0.20229  0.17525  Biso   1.000  P
  P27      1.0000 0.35446  0.14743  0.11079  Biso   1.000  P
  P28      1.0000 0.24753  0.12612  0.01110  Biso   1.000  P
  P29      1.0000 0.51750  0.27000  0.28380  Biso   1.000  P
  P30      1.0000 0.47190  0.21720  0.28060  Biso   1.000  P
  P31      1.0000 0.29168  0.17926  0.01690  Biso   1.000  P
  P32      1.0000 0.25700  0.06690  0.06750  Biso   1.000  P
  S10      1.0000 0.49198  0.23819  0.10030  Biso   1.000  S
  S11      1.0000 0.31250  0.17980  0.04130  Biso   1.000  S
  S12      1.0000 0.27450  0.06304  0.08850  Biso   1.000  S
  C97      1.0000 0.39580  0.28410  0.04230  Biso   1.000  C
  H145     1.0000 0.41990  0.26360  0.04320  Biso   1.000  H
  H146     1.0000 0.38730  0.28950  0.99870  Biso   1.000  H
  H147     1.0000 0.37130  0.27200  0.06540  Biso   1.000  H
  C98      1.0000 0.43550  0.33850  0.24540  Biso   1.000  C
  C99      1.0000 0.39530  0.29290  0.18280  Biso   1.000  C
  H148     1.0000 0.37330  0.27130  0.16910  Biso   1.000  H
  C100     1.0000 0.20660  0.15570  0.15490  Biso   1.000  C
  H149     1.0000 0.17860  0.14760  0.13460  Biso   1.000  H
  C101     1.0000 0.33580  0.09210  0.91960  Biso   1.000  C
  H150     1.0000 0.31970  0.10420  0.88290  Biso   1.000  H
  C102     1.0000 0.43610  0.13090  0.87940  Biso   1.000  C
  H151     1.0000 0.45690  0.11110  0.89870  Biso   1.000  H
  H152     1.0000 0.45140  0.15580  0.86190  Biso   1.000  H
  H153     1.0000 0.42050  0.11590  0.84580  Biso   1.000  H
  C103     1.0000 0.22920  0.19540  0.14570  Biso   1.000  C
  C104     1.0000 0.21480  0.23130  0.10190  Biso   1.000  C
  H154     1.0000 0.20230  0.25490  0.12650  Biso   1.000  H
  H155     1.0000 0.19310  0.22010  0.07260  Biso   1.000  H
  H156     1.0000 0.23970  0.24200  0.07820  Biso   1.000  H
  C105     1.0000 0.40530  0.30250  0.24660  Biso   1.000  C
  C106     1.0000 0.44270  0.34820  0.18180  Biso   1.000  C
  H157     1.0000 0.46100  0.37260  0.16670  Biso   1.000  H
  C107     1.0000 0.41660  0.32200  0.14220  Biso   1.000  C
  C108     1.0000 0.22730  0.13220  0.20390  Biso   1.000  C
  C109     1.0000 0.45040  0.34540  0.03960  Biso   1.000  C
  H158     1.0000 0.47440  0.32490  0.04300  Biso   1.000  H
  H159     1.0000 0.45830  0.37260  0.05980  Biso   1.000  H
  H160     1.0000 0.44390  0.35060  0.99520  Biso   1.000  H
  C110     1.0000 0.18080  0.06650  0.19680  Biso   1.000  C
  H161     1.0000 0.15680  0.08440  0.18210  Biso   1.000  H
  H162     1.0000 0.16960  0.04190  0.22050  Biso   1.000  H
  H163     1.0000 0.19740  0.05600  0.16070  Biso   1.000  H
  C111     1.0000 0.37470  0.36080  0.06430  Biso   1.000  C
  H164     1.0000 0.34770  0.35080  0.08330  Biso   1.000  H
  H165     1.0000 0.37010  0.36620  0.01940  Biso   1.000  H
  H166     1.0000 0.38390  0.38760  0.08470  Biso   1.000  H
  C112     1.0000 0.45350  0.36140  0.30040  Biso   1.000  C
  H167     1.0000 0.43610  0.38710  0.30920  Biso   1.000  H
  H168     1.0000 0.48330  0.37000  0.29150  Biso   1.000  H
  H169     1.0000 0.45300  0.34220  0.33700  Biso   1.000  H
  C113     1.0000 0.38740  0.07520  0.99050  Biso   1.000  C
  H170     1.0000 0.41370  0.07380  0.01760  Biso   1.000  H
  C114     1.0000 0.37810  0.11050  0.95130  Biso   1.000  C
  C115     1.0000 0.33100  0.05140  0.94650  Biso   1.000  C
  C116     1.0000 0.26530  0.19550  0.18680  Biso   1.000  C
  C117     1.0000 0.40970  0.32620  0.07260  Biso   1.000  C
  C118     1.0000 0.38630  0.28240  0.30430  Biso   1.000  C
  H171     1.0000 0.35710  0.29360  0.31080  Biso   1.000  H
  H172     1.0000 0.40430  0.28950  0.34070  Biso   1.000  H
  H173     1.0000 0.38520  0.25100  0.29900  Biso   1.000  H
  C119     1.0000 0.24630  0.06570  0.26390  Biso   1.000  C
  H174     1.0000 0.26400  0.08310  0.29250  Biso   1.000  H
  H175     1.0000 0.26430  0.05550  0.22890  Biso   1.000  H
  H176     1.0000 0.23450  0.04080  0.28650  Biso   1.000  H
  C120     1.0000 0.18260  0.11060  0.29120  Biso   1.000  C
  H177     1.0000 0.15810  0.12660  0.27390  Biso   1.000  H
  H178     1.0000 0.20020  0.13000  0.31710  Biso   1.000  H
  H179     1.0000 0.17200  0.08670  0.31710  Biso   1.000  H
  C121     1.0000 0.20970  0.09300  0.23850  Biso   1.000  C
  C122     1.0000 0.26410  0.15670  0.22150  Biso   1.000  C
  H180     1.0000 0.28420  0.14930  0.25670  Biso   1.000  H
  C123     1.0000 0.29680  0.23280  0.19420  Biso   1.000  C
  H181     1.0000 0.28420  0.25480  0.22170  Biso   1.000  H
  H182     1.0000 0.30280  0.24550  0.15290  Biso   1.000  H
  H183     1.0000 0.32380  0.22220  0.21260  Biso   1.000  H
  C124     1.0000 0.42680  0.16090  0.98060  Biso   1.000  C
  H184     1.0000 0.43510  0.13630  0.00690  Biso   1.000  H
  H185     1.0000 0.40860  0.18060  0.00500  Biso   1.000  H
  H186     1.0000 0.45280  0.17610  0.96650  Biso   1.000  H
  C125     1.0000 0.40400  0.14620  0.92900  Biso   1.000  C
  C126     1.0000 0.36140  0.99620  0.02400  Biso   1.000  C
  H187     1.0000 0.37870  0.97550  0.99990  Biso   1.000  H
  H188     1.0000 0.33200  0.98490  0.02920  Biso   1.000  H
  H189     1.0000 0.37450  0.00050  0.06540  Biso   1.000  H
  C127     1.0000 0.35950  0.04290  0.98610  Biso   1.000  C
  C128     1.0000 0.37020  0.17710  0.88790  Biso   1.000  C
  H190     1.0000 0.36660  0.20490  0.90930  Biso   1.000  H
  H191     1.0000 0.34220  0.16270  0.88450  Biso   1.000  H
  H192     1.0000 0.38200  0.18200  0.84580  Biso   1.000  H
  Mo13     1.0000 0.35432  0.92712  0.27465  Biso   1.000  Mo
  Mo14     1.0000 0.52832  0.78247  0.44642  Biso   1.000  Mo
  Mo15     1.0000 0.38851  0.97505  0.36683  Biso   1.000  Mo
  Cu9      1.0000 0.31586  0.86611  0.46116  Biso   1.000  Cu
  Cu10     1.0000 0.39474  0.83474  0.42465  Biso   1.000  Cu
  I9       1.0000 0.32068  0.79248  0.39965  Biso   1.000  I
  I10      1.0000 0.38446  0.86855  0.53763  Biso   1.000  I
  P33      1.0000 0.33305  0.91813  0.38707  Biso   1.000  P
  P34      1.0000 0.45229  0.79132  0.42525  Biso   1.000  P
  P35      1.0000 0.39743  0.89554  0.36079  Biso   1.000  P
  P36      1.0000 0.37612  0.00247  0.26110  Biso   1.000  P
  P37      1.0000 0.52000  0.73250  0.53380  Biso   1.000  P
  P38      1.0000 0.46720  0.77810  0.53060  Biso   1.000  P
  P39      1.0000 0.42926  0.95832  0.26690  Biso   1.000  P
  P40      1.0000 0.31690  0.99300  0.31750  Biso   1.000  P
  S13      1.0000 0.48819  0.75802  0.35030  Biso   1.000  S
  S14      1.0000 0.42980  0.93750  0.29130  Biso   1.000  S
  S15      1.0000 0.31304  0.97550  0.33850  Biso   1.000  S
  C129     1.0000 0.53410  0.85420  0.29230  Biso   1.000  C
  H193     1.0000 0.51360  0.83010  0.29320  Biso   1.000  H
  H194     1.0000 0.53950  0.86270  0.24870  Biso   1.000  H
  H195     1.0000 0.52200  0.87870  0.31540  Biso   1.000  H
  C130     1.0000 0.58850  0.81450  0.49540  Biso   1.000  C
  C131     1.0000 0.54290  0.85470  0.43280  Biso   1.000  C
  H196     1.0000 0.52130  0.87670  0.41910  Biso   1.000  H
  C132     1.0000 0.40570  0.04340  0.40490  Biso   1.000  C
  H197     1.0000 0.39760  0.07140  0.38460  Biso   1.000  H
  C133     1.0000 0.34210  0.91420  0.16960  Biso   1.000  C
  H198     1.0000 0.35420  0.93030  0.13290  Biso   1.000  H
  C134     1.0000 0.38090  0.81390  0.12940  Biso   1.000  C
  H199     1.0000 0.36110  0.79310  0.14870  Biso   1.000  H
  H200     1.0000 0.40580  0.79860  0.11190  Biso   1.000  H
  H201     1.0000 0.36590  0.82950  0.09580  Biso   1.000  H
  C135     1.0000 0.44540  0.02080  0.39570  Biso   1.000  C
  C136     1.0000 0.48130  0.03520  0.35190  Biso   1.000  C
  H202     1.0000 0.50490  0.04770  0.37650  Biso   1.000  H
  H203     1.0000 0.47010  0.05690  0.32260  Biso   1.000  H
  H204     1.0000 0.49200  0.01030  0.32820  Biso   1.000  H
  C137     1.0000 0.55250  0.84470  0.49660  Biso   1.000  C
  C138     1.0000 0.59820  0.80730  0.43180  Biso   1.000  C
  H205     1.0000 0.62260  0.78900  0.41670  Biso   1.000  H
  C139     1.0000 0.57200  0.83340  0.39220  Biso   1.000  C
  C140     1.0000 0.38220  0.02270  0.45390  Biso   1.000  C
  C141     1.0000 0.59540  0.79960  0.28960  Biso   1.000  C
  H206     1.0000 0.57490  0.77560  0.29300  Biso   1.000  H
  H207     1.0000 0.62260  0.79170  0.30980  Biso   1.000  H
  H208     1.0000 0.60060  0.80610  0.24520  Biso   1.000  H
  C142     1.0000 0.31650  0.06920  0.44680  Biso   1.000  C
  H209     1.0000 0.33440  0.09320  0.43210  Biso   1.000  H
  H210     1.0000 0.29190  0.08040  0.47050  Biso   1.000  H
  H211     1.0000 0.30600  0.05260  0.41070  Biso   1.000  H
  C143     1.0000 0.61080  0.87530  0.31430  Biso   1.000  C
  H212     1.0000 0.60080  0.90230  0.33330  Biso   1.000  H
  H213     1.0000 0.61620  0.87990  0.26940  Biso   1.000  H
  H214     1.0000 0.63760  0.86610  0.33470  Biso   1.000  H
  C144     1.0000 0.61140  0.79650  0.55040  Biso   1.000  C
  H215     1.0000 0.63710  0.81390  0.55920  Biso   1.000  H
  H216     1.0000 0.62000  0.76670  0.54150  Biso   1.000  H
  H217     1.0000 0.59220  0.79700  0.58700  Biso   1.000  H
  C145     1.0000 0.32520  0.86260  0.24050  Biso   1.000  C
  H218     1.0000 0.32380  0.83630  0.26760  Biso   1.000  H
  C146     1.0000 0.36050  0.87190  0.20130  Biso   1.000  C
  C147     1.0000 0.30140  0.91900  0.19650  Biso   1.000  C
  C148     1.0000 0.44550  0.98470  0.43680  Biso   1.000  C
  C149     1.0000 0.57620  0.84030  0.32260  Biso   1.000  C
  C150     1.0000 0.53240  0.86370  0.55430  Biso   1.000  C
  H219     1.0000 0.54360  0.89290  0.56080  Biso   1.000  H
  H220     1.0000 0.53950  0.84570  0.59070  Biso   1.000  H
  H221     1.0000 0.50100  0.86480  0.54900  Biso   1.000  H
  C151     1.0000 0.31570  0.00370  0.51390  Biso   1.000  C
  H222     1.0000 0.33310  0.98600  0.54250  Biso   1.000  H
  H223     1.0000 0.30550  0.98570  0.47890  Biso   1.000  H
  H224     1.0000 0.29080  0.01550  0.53650  Biso   1.000  H
  C152     1.0000 0.36060  0.06740  0.54120  Biso   1.000  C
  H225     1.0000 0.37660  0.09190  0.52390  Biso   1.000  H
  H226     1.0000 0.38000  0.04980  0.56710  Biso   1.000  H
  H227     1.0000 0.33670  0.07800  0.56710  Biso   1.000  H
  C153     1.0000 0.34300  0.04030  0.48850  Biso   1.000  C
  C154     1.0000 0.40670  0.98590  0.47150  Biso   1.000  C
  H228     1.0000 0.39930  0.96580  0.50670  Biso   1.000  H
  C155     1.0000 0.48280  0.95320  0.44420  Biso   1.000  C
  H229     1.0000 0.50480  0.96580  0.47170  Biso   1.000  H
  H230     1.0000 0.49550  0.94720  0.40290  Biso   1.000  H
  H231     1.0000 0.47220  0.92620  0.46260  Biso   1.000  H
  C156     1.0000 0.41090  0.82320  0.23060  Biso   1.000  C
  H232     1.0000 0.38630  0.81490  0.25690  Biso   1.000  H
  H233     1.0000 0.43060  0.84140  0.25500  Biso   1.000  H
  H234     1.0000 0.42610  0.79720  0.21650  Biso   1.000  H
  C157     1.0000 0.39620  0.84600  0.17900  Biso   1.000  C
  C158     1.0000 0.24620  0.88860  0.27400  Biso   1.000  C
  H235     1.0000 0.22550  0.87130  0.24990  Biso   1.000  H
  H236     1.0000 0.23490  0.91800  0.27920  Biso   1.000  H
  H237     1.0000 0.25050  0.87550  0.31540  Biso   1.000  H
  C159     1.0000 0.29290  0.89050  0.23610  Biso   1.000  C
  C160     1.0000 0.42710  0.87980  0.13790  Biso   1.000  C
  H238     1.0000 0.45490  0.88340  0.15930  Biso   1.000  H
  H239     1.0000 0.41270  0.90780  0.13450  Biso   1.000  H
  H240     1.0000 0.43200  0.86800  0.09580  Biso   1.000  H
  Mo16     1.0000 0.85432  0.42712  0.77465  Biso   1.000  Mo
  Mo17     1.0000 0.02832  0.28247  0.94642  Biso   1.000  Mo
  Mo18     1.0000 0.88851  0.47505  0.86683  Biso   1.000  Mo
  Cu11     1.0000 0.81586  0.36611  0.96116  Biso   1.000  Cu
  Cu12     1.0000 0.89474  0.33474  0.92465  Biso   1.000  Cu
  I11      1.0000 0.82068  0.29248  0.89965  Biso   1.000  I
  I12      1.0000 0.88446  0.36855  0.03763  Biso   1.000  I
  P41      1.0000 0.83305  0.41813  0.88707  Biso   1.000  P
  P42      1.0000 0.95229  0.29132  0.92525  Biso   1.000  P
  P43      1.0000 0.89743  0.39554  0.86079  Biso   1.000  P
  P44      1.0000 0.87612  0.50247  0.76110  Biso   1.000  P
  P45      1.0000 0.02000  0.23250  0.03380  Biso   1.000  P
  P46      1.0000 0.96720  0.27810  0.03060  Biso   1.000  P
  P47      1.0000 0.92926  0.45832  0.76690  Biso   1.000  P
  P48      1.0000 0.81690  0.49300  0.81750  Biso   1.000  P
  S16      1.0000 0.98819  0.25802  0.85030  Biso   1.000  S
  S17      1.0000 0.92980  0.43750  0.79130  Biso   1.000  S
  S18      1.0000 0.81304  0.47550  0.83850  Biso   1.000  S
  C161     1.0000 0.03410  0.35420  0.79230  Biso   1.000  C
  H241     1.0000 0.01360  0.33010  0.79320  Biso   1.000  H
  H242     1.0000 0.03950  0.36270  0.74870  Biso   1.000  H
  H243     1.0000 0.02200  0.37870  0.81540  Biso   1.000  H
  C162     1.0000 0.08850  0.31450  0.99540  Biso   1.000  C
  C163     1.0000 0.04290  0.35470  0.93280  Biso   1.000  C
  H244     1.0000 0.02130  0.37670  0.91910  Biso   1.000  H
  C164     1.0000 0.90570  0.54340  0.90490  Biso   1.000  C
  H245     1.0000 0.89760  0.57140  0.88460  Biso   1.000  H
  C165     1.0000 0.84210  0.41420  0.66960  Biso   1.000  C
  H246     1.0000 0.85420  0.43030  0.63290  Biso   1.000  H
  C166     1.0000 0.88090  0.31390  0.62940  Biso   1.000  C
  H247     1.0000 0.86110  0.29310  0.64870  Biso   1.000  H
  H248     1.0000 0.90580  0.29860  0.61190  Biso   1.000  H
  H249     1.0000 0.86590  0.32950  0.59580  Biso   1.000  H
  C167     1.0000 0.94540  0.52080  0.89570  Biso   1.000  C
  C168     1.0000 0.98130  0.53520  0.85190  Biso   1.000  C
  H250     1.0000 0.00490  0.54770  0.87650  Biso   1.000  H
  H251     1.0000 0.97010  0.55690  0.82260  Biso   1.000  H
  H252     1.0000 0.99200  0.51030  0.82820  Biso   1.000  H
  C169     1.0000 0.05250  0.34470  0.99660  Biso   1.000  C
  C170     1.0000 0.09820  0.30730  0.93180  Biso   1.000  C
  H253     1.0000 0.12260  0.28900  0.91670  Biso   1.000  H
  C171     1.0000 0.07200  0.33340  0.89220  Biso   1.000  C
  C172     1.0000 0.88220  0.52270  0.95390  Biso   1.000  C
  C173     1.0000 0.09540  0.29960  0.78960  Biso   1.000  C
  H254     1.0000 0.07490  0.27560  0.79300  Biso   1.000  H
  H255     1.0000 0.12260  0.29170  0.80980  Biso   1.000  H
  H256     1.0000 0.10060  0.30610  0.74520  Biso   1.000  H
  C174     1.0000 0.81650  0.56920  0.94680  Biso   1.000  C
  H257     1.0000 0.83440  0.59320  0.93210  Biso   1.000  H
  H258     1.0000 0.79190  0.58040  0.97050  Biso   1.000  H
  H259     1.0000 0.80600  0.55260  0.91070  Biso   1.000  H
  C175     1.0000 0.11080  0.37530  0.81430  Biso   1.000  C
  H260     1.0000 0.10080  0.40230  0.83330  Biso   1.000  H
  H261     1.0000 0.11620  0.37990  0.76940  Biso   1.000  H
  H262     1.0000 0.13760  0.36610  0.83470  Biso   1.000  H
  C176     1.0000 0.11140  0.29650  0.05040  Biso   1.000  C
  H263     1.0000 0.13710  0.31390  0.05920  Biso   1.000  H
  H264     1.0000 0.12000  0.26670  0.04150  Biso   1.000  H
  H265     1.0000 0.09220  0.29700  0.08700  Biso   1.000  H
  C177     1.0000 0.82520  0.36260  0.74050  Biso   1.000  C
  H266     1.0000 0.82380  0.33630  0.76760  Biso   1.000  H
  C178     1.0000 0.86050  0.37190  0.70130  Biso   1.000  C
  C179     1.0000 0.80140  0.41900  0.69650  Biso   1.000  C
  C180     1.0000 0.94550  0.48470  0.93680  Biso   1.000  C
  C181     1.0000 0.07620  0.34030  0.82260  Biso   1.000  C
  C182     1.0000 0.03240  0.36370  0.05430  Biso   1.000  C
  H267     1.0000 0.04360  0.39290  0.06080  Biso   1.000  H
  H268     1.0000 0.03950  0.34570  0.09070  Biso   1.000  H
  H269     1.0000 0.00100  0.36480  0.04900  Biso   1.000  H
  C183     1.0000 0.81570  0.50370  0.01390  Biso   1.000  C
  H270     1.0000 0.83310  0.48600  0.04250  Biso   1.000  H
  H271     1.0000 0.80550  0.48570  0.97890  Biso   1.000  H
  H272     1.0000 0.79080  0.51550  0.03650  Biso   1.000  H
  C184     1.0000 0.86060  0.56740  0.04120  Biso   1.000  C
  H273     1.0000 0.87660  0.59190  0.02390  Biso   1.000  H
  H274     1.0000 0.88000  0.54980  0.06710  Biso   1.000  H
  H275     1.0000 0.83670  0.57800  0.06710  Biso   1.000  H
  C185     1.0000 0.84300  0.54030  0.98850  Biso   1.000  C
  C186     1.0000 0.90670  0.48590  0.97150  Biso   1.000  C
  H276     1.0000 0.89930  0.46580  0.00670  Biso   1.000  H
  C187     1.0000 0.98280  0.45320  0.94420  Biso   1.000  C
  H277     1.0000 0.00480  0.46580  0.97170  Biso   1.000  H
  H278     1.0000 0.99550  0.44720  0.90290  Biso   1.000  H
  H279     1.0000 0.97220  0.42620  0.96260  Biso   1.000  H
  C188     1.0000 0.91090  0.32320  0.73060  Biso   1.000  C
  H280     1.0000 0.88630  0.31490  0.75690  Biso   1.000  H
  H281     1.0000 0.93060  0.34140  0.75500  Biso   1.000  H
  H282     1.0000 0.92610  0.29720  0.71650  Biso   1.000  H
  C189     1.0000 0.89620  0.34600  0.67900  Biso   1.000  C
  C190     1.0000 0.74620  0.38860  0.77400  Biso   1.000  C
  H283     1.0000 0.72550  0.37130  0.74990  Biso   1.000  H
  H284     1.0000 0.73490  0.41800  0.77920  Biso   1.000  H
  H285     1.0000 0.75050  0.37550  0.81540  Biso   1.000  H
  C191     1.0000 0.79290  0.39050  0.73610  Biso   1.000  C
  C192     1.0000 0.92710  0.37980  0.63790  Biso   1.000  C
  H286     1.0000 0.95490  0.38340  0.65930  Biso   1.000  H
  H287     1.0000 0.91270  0.40780  0.63450  Biso   1.000  H
  H288     1.0000 0.93200  0.36800  0.59580  Biso   1.000  H
  Mo19     1.0000 0.14568  0.07288  0.77465  Biso   1.000  Mo
  Mo20     1.0000 0.97168  0.21753  0.94642  Biso   1.000  Mo
  Mo21     1.0000 0.11149  0.02495  0.86683  Biso   1.000  Mo
  Cu13     1.0000 0.18414  0.13389  0.96116  Biso   1.000  Cu
  Cu14     1.0000 0.10526  0.16526  0.92465  Biso   1.000  Cu
  I13      1.0000 0.17932  0.20752  0.89965  Biso   1.000  I
  I14      1.0000 0.11554  0.13145  0.03763  Biso   1.000  I
  P49      1.0000 0.16695  0.08187  0.88707  Biso   1.000  P
  P50      1.0000 0.04771  0.20868  0.92525  Biso   1.000  P
  P51      1.0000 0.10257  0.10446  0.86079  Biso   1.000  P
  P52      1.0000 0.12388  0.99753  0.76110  Biso   1.000  P
  P53      1.0000 0.98000  0.26750  0.03380  Biso   1.000  P
  P54      1.0000 0.03280  0.22190  0.03060  Biso   1.000  P
  P55      1.0000 0.07074  0.04168  0.76690  Biso   1.000  P
  P56      1.0000 0.18310  0.00700  0.81750  Biso   1.000  P
  S19      1.0000 0.01181  0.24198  0.85030  Biso   1.000  S
  S20      1.0000 0.07020  0.06250  0.79130  Biso   1.000  S
  S21      1.0000 0.18696  0.02450  0.83850  Biso   1.000  S
  C193     1.0000 0.96590  0.14580  0.79230  Biso   1.000  C
  H289     1.0000 0.98640  0.16990  0.79320  Biso   1.000  H
  H290     1.0000 0.96050  0.13730  0.74870  Biso   1.000  H
  H291     1.0000 0.97800  0.12130  0.81540  Biso   1.000  H
  C194     1.0000 0.91150  0.18550  0.99540  Biso   1.000  C
  C195     1.0000 0.95710  0.14530  0.93280  Biso   1.000  C
  H292     1.0000 0.97870  0.12330  0.91910  Biso   1.000  H
  C196     1.0000 0.09430  0.95660  0.90490  Biso   1.000  C
  H293     1.0000 0.10240  0.92860  0.88460  Biso   1.000  H
  C197     1.0000 0.15790  0.08580  0.66960  Biso   1.000  C
  H294     1.0000 0.14580  0.06970  0.63290  Biso   1.000  H
  C198     1.0000 0.11910  0.18610  0.62940  Biso   1.000  C
  H295     1.0000 0.13890  0.20690  0.64870  Biso   1.000  H
  H296     1.0000 0.09420  0.20140  0.61190  Biso   1.000  H
  H297     1.0000 0.13410  0.17050  0.59580  Biso   1.000  H
  C199     1.0000 0.05460  0.97920  0.89570  Biso   1.000  C
  C200     1.0000 0.01870  0.96480  0.85190  Biso   1.000  C
  H298     1.0000 0.99510  0.95230  0.87650  Biso   1.000  H
  H299     1.0000 0.02990  0.94310  0.82260  Biso   1.000  H
  H300     1.0000 0.00800  0.98970  0.82820  Biso   1.000  H
  C201     1.0000 0.94750  0.15530  0.99660  Biso   1.000  C
  C202     1.0000 0.90180  0.19270  0.93180  Biso   1.000  C
  H301     1.0000 0.87740  0.21100  0.91670  Biso   1.000  H
  C203     1.0000 0.92800  0.16660  0.89220  Biso   1.000  C
  C204     1.0000 0.11780  0.97730  0.95390  Biso   1.000  C
  C205     1.0000 0.90460  0.20040  0.78960  Biso   1.000  C
  H302     1.0000 0.92510  0.22440  0.79300  Biso   1.000  H
  H303     1.0000 0.87740  0.20830  0.80980  Biso   1.000  H
  H304     1.0000 0.89940  0.19390  0.74520  Biso   1.000  H
  C206     1.0000 0.18350  0.93080  0.94680  Biso   1.000  C
  H305     1.0000 0.16560  0.90680  0.93210  Biso   1.000  H
  H306     1.0000 0.20810  0.91960  0.97050  Biso   1.000  H
  H307     1.0000 0.19400  0.94740  0.91070  Biso   1.000  H
  C207     1.0000 0.88920  0.12470  0.81430  Biso   1.000  C
  H308     1.0000 0.89920  0.09770  0.83330  Biso   1.000  H
  H309     1.0000 0.88380  0.12010  0.76940  Biso   1.000  H
  H310     1.0000 0.86240  0.13390  0.83470  Biso   1.000  H
  C208     1.0000 0.88860  0.20350  0.05040  Biso   1.000  C
  H311     1.0000 0.86290  0.18610  0.05920  Biso   1.000  H
  H312     1.0000 0.88000  0.23330  0.04150  Biso   1.000  H
  H313     1.0000 0.90780  0.20300  0.08700  Biso   1.000  H
  C209     1.0000 0.17480  0.13740  0.74050  Biso   1.000  C
  H314     1.0000 0.17620  0.16370  0.76760  Biso   1.000  H
  C210     1.0000 0.13950  0.12810  0.70130  Biso   1.000  C
  C211     1.0000 0.19860  0.08100  0.69650  Biso   1.000  C
  C212     1.0000 0.05450  0.01530  0.93680  Biso   1.000  C
  C213     1.0000 0.92380  0.15970  0.82260  Biso   1.000  C
  C214     1.0000 0.96760  0.13630  0.05430  Biso   1.000  C
  H315     1.0000 0.95640  0.10710  0.06080  Biso   1.000  H
  H316     1.0000 0.96050  0.15430  0.09070  Biso   1.000  H
  H317     1.0000 0.99900  0.13520  0.04900  Biso   1.000  H
  C215     1.0000 0.18430  0.99630  0.01390  Biso   1.000  C
  H318     1.0000 0.16690  0.01400  0.04250  Biso   1.000  H
  H319     1.0000 0.19450  0.01430  0.97890  Biso   1.000  H
  H320     1.0000 0.20920  0.98450  0.03650  Biso   1.000  H
  C216     1.0000 0.13940  0.93260  0.04120  Biso   1.000  C
  H321     1.0000 0.12340  0.90810  0.02390  Biso   1.000  H
  H322     1.0000 0.12000  0.95020  0.06710  Biso   1.000  H
  H323     1.0000 0.16330  0.92200  0.06710  Biso   1.000  H
  C217     1.0000 0.15700  0.95970  0.98850  Biso   1.000  C
  C218     1.0000 0.09330  0.01410  0.97150  Biso   1.000  C
  H324     1.0000 0.10070  0.03420  0.00670  Biso   1.000  H
  C219     1.0000 0.01720  0.04680  0.94420  Biso   1.000  C
  H325     1.0000 0.99520  0.03420  0.97170  Biso   1.000  H
  H326     1.0000 0.00450  0.05280  0.90290  Biso   1.000  H
  H327     1.0000 0.02780  0.07380  0.96260  Biso   1.000  H
  C220     1.0000 0.08910  0.17680  0.73060  Biso   1.000  C
  H328     1.0000 0.11370  0.18510  0.75690  Biso   1.000  H
  H329     1.0000 0.06940  0.15860  0.75500  Biso   1.000  H
  H330     1.0000 0.07390  0.20280  0.71650  Biso   1.000  H
  C221     1.0000 0.10380  0.15400  0.67900  Biso   1.000  C
  C222     1.0000 0.25380  0.11140  0.77400  Biso   1.000  C
  H331     1.0000 0.27450  0.12870  0.74990  Biso   1.000  H
  H332     1.0000 0.26510  0.08200  0.77920  Biso   1.000  H
  H333     1.0000 0.24950  0.12450  0.81540  Biso   1.000  H
  C223     1.0000 0.20710  0.10950  0.73610  Biso   1.000  C
  C224     1.0000 0.07290  0.12020  0.63790  Biso   1.000  C
  H334     1.0000 0.04510  0.11660  0.65930  Biso   1.000  H
  H335     1.0000 0.08730  0.09220  0.63450  Biso   1.000  H
  H336     1.0000 0.06800  0.13200  0.59580  Biso   1.000  H
  Mo22     1.0000 0.64568  0.57288  0.27465  Biso   1.000  Mo
  Mo23     1.0000 0.47168  0.71753  0.44642  Biso   1.000  Mo
  Mo24     1.0000 0.61149  0.52495  0.36683  Biso   1.000  Mo
  Cu15     1.0000 0.68414  0.63389  0.46116  Biso   1.000  Cu
  Cu16     1.0000 0.60526  0.66526  0.42465  Biso   1.000  Cu
  I15      1.0000 0.67932  0.70752  0.39965  Biso   1.000  I
  I16      1.0000 0.61554  0.63145  0.53763  Biso   1.000  I
  P57      1.0000 0.66695  0.58187  0.38707  Biso   1.000  P
  P58      1.0000 0.54771  0.70868  0.42525  Biso   1.000  P
  P59      1.0000 0.60257  0.60446  0.36079  Biso   1.000  P
  P60      1.0000 0.62388  0.49753  0.26110  Biso   1.000  P
  P61      1.0000 0.48000  0.76750  0.53380  Biso   1.000  P
  P62      1.0000 0.53280  0.72190  0.53060  Biso   1.000  P
  P63      1.0000 0.57074  0.54168  0.26690  Biso   1.000  P
  P64      1.0000 0.68310  0.50700  0.31750  Biso   1.000  P
  S22      1.0000 0.51181  0.74198  0.35030  Biso   1.000  S
  S23      1.0000 0.57020  0.56250  0.29130  Biso   1.000  S
  S24      1.0000 0.68696  0.52450  0.33850  Biso   1.000  S
  C225     1.0000 0.46590  0.64580  0.29230  Biso   1.000  C
  H337     1.0000 0.48640  0.66990  0.29320  Biso   1.000  H
  H338     1.0000 0.46050  0.63730  0.24870  Biso   1.000  H
  H339     1.0000 0.47800  0.62130  0.31540  Biso   1.000  H
  C226     1.0000 0.41150  0.68550  0.49540  Biso   1.000  C
  C227     1.0000 0.45710  0.64530  0.43280  Biso   1.000  C
  H340     1.0000 0.47870  0.62330  0.41910  Biso   1.000  H
  C228     1.0000 0.59430  0.45660  0.40490  Biso   1.000  C
  H341     1.0000 0.60240  0.42860  0.38460  Biso   1.000  H
  C229     1.0000 0.65790  0.58580  0.16960  Biso   1.000  C
  H342     1.0000 0.64580  0.56970  0.13290  Biso   1.000  H
  C230     1.0000 0.61910  0.68610  0.12940  Biso   1.000  C
  H343     1.0000 0.63890  0.70690  0.14870  Biso   1.000  H
  H344     1.0000 0.59420  0.70140  0.11190  Biso   1.000  H
  H345     1.0000 0.63410  0.67050  0.09580  Biso   1.000  H
  C231     1.0000 0.55460  0.47920  0.39570  Biso   1.000  C
  C232     1.0000 0.51870  0.46480  0.35190  Biso   1.000  C
  H346     1.0000 0.49510  0.45230  0.37650  Biso   1.000  H
  H347     1.0000 0.52990  0.44310  0.32260  Biso   1.000  H
  H348     1.0000 0.50800  0.48970  0.32820  Biso   1.000  H
  C233     1.0000 0.44750  0.65530  0.49660  Biso   1.000  C
  C234     1.0000 0.40180  0.69270  0.43180  Biso   1.000  C
  H349     1.0000 0.37740  0.71100  0.41670  Biso   1.000  H
  C235     1.0000 0.42800  0.66660  0.39220  Biso   1.000  C
  C236     1.0000 0.61780  0.47730  0.45390  Biso   1.000  C
  C237     1.0000 0.40460  0.70040  0.28960  Biso   1.000  C
  H350     1.0000 0.42510  0.72440  0.29300  Biso   1.000  H
  H351     1.0000 0.37740  0.70830  0.30980  Biso   1.000  H
  H352     1.0000 0.39940  0.69390  0.24520  Biso   1.000  H
  C238     1.0000 0.68350  0.43080  0.44680  Biso   1.000  C
  H353     1.0000 0.66560  0.40680  0.43210  Biso   1.000  H
  H354     1.0000 0.70810  0.41960  0.47050  Biso   1.000  H
  H355     1.0000 0.69400  0.44740  0.41070  Biso   1.000  H
  C239     1.0000 0.38920  0.62470  0.31430  Biso   1.000  C
  H356     1.0000 0.39920  0.59770  0.33330  Biso   1.000  H
  H357     1.0000 0.38380  0.62010  0.26940  Biso   1.000  H
  H358     1.0000 0.36240  0.63390  0.33470  Biso   1.000  H
  C240     1.0000 0.38860  0.70350  0.55040  Biso   1.000  C
  H359     1.0000 0.36290  0.68610  0.55920  Biso   1.000  H
  H360     1.0000 0.38000  0.73330  0.54150  Biso   1.000  H
  H361     1.0000 0.40780  0.70300  0.58700  Biso   1.000  H
  C241     1.0000 0.67480  0.63740  0.24050  Biso   1.000  C
  H362     1.0000 0.67620  0.66370  0.26760  Biso   1.000  H
  C242     1.0000 0.63950  0.62810  0.20130  Biso   1.000  C
  C243     1.0000 0.69860  0.58100  0.19650  Biso   1.000  C
  C244     1.0000 0.55450  0.51530  0.43680  Biso   1.000  C
  C245     1.0000 0.42380  0.65970  0.32260  Biso   1.000  C
  C246     1.0000 0.46760  0.63630  0.55430  Biso   1.000  C
  H363     1.0000 0.45640  0.60710  0.56080  Biso   1.000  H
  H364     1.0000 0.46050  0.65430  0.59070  Biso   1.000  H
  H365     1.0000 0.49900  0.63520  0.54900  Biso   1.000  H
  C247     1.0000 0.68430  0.49630  0.51390  Biso   1.000  C
  H366     1.0000 0.66690  0.51400  0.54250  Biso   1.000  H
  H367     1.0000 0.69450  0.51430  0.47890  Biso   1.000  H
  H368     1.0000 0.70920  0.48450  0.53650  Biso   1.000  H
  C248     1.0000 0.63940  0.43260  0.54120  Biso   1.000  C
  H369     1.0000 0.62340  0.40810  0.52390  Biso   1.000  H
  H370     1.0000 0.62000  0.45020  0.56710  Biso   1.000  H
  H371     1.0000 0.66330  0.42200  0.56710  Biso   1.000  H
  C249     1.0000 0.65700  0.45970  0.48850  Biso   1.000  C
  C250     1.0000 0.59330  0.51410  0.47150  Biso   1.000  C
  H372     1.0000 0.60070  0.53420  0.50670  Biso   1.000  H
  C251     1.0000 0.51720  0.54680  0.44420  Biso   1.000  C
  H373     1.0000 0.49520  0.53420  0.47170  Biso   1.000  H
  H374     1.0000 0.50450  0.55280  0.40290  Biso   1.000  H
  H375     1.0000 0.52780  0.57380  0.46260  Biso   1.000  H
  C252     1.0000 0.58910  0.67680  0.23060  Biso   1.000  C
  H376     1.0000 0.61370  0.68510  0.25690  Biso   1.000  H
  H377     1.0000 0.56940  0.65860  0.25500  Biso   1.000  H
  H378     1.0000 0.57390  0.70280  0.21650  Biso   1.000  H
  C253     1.0000 0.60380  0.65400  0.17900  Biso   1.000  C
  C254     1.0000 0.75380  0.61140  0.27400  Biso   1.000  C
  H379     1.0000 0.77450  0.62870  0.24990  Biso   1.000  H
  H380     1.0000 0.76510  0.58200  0.27920  Biso   1.000  H
  H381     1.0000 0.74950  0.62450  0.31540  Biso   1.000  H
  C255     1.0000 0.70710  0.60950  0.23610  Biso   1.000  C
  C256     1.0000 0.57290  0.62020  0.13790  Biso   1.000  C
  H382     1.0000 0.54510  0.61660  0.15930  Biso   1.000  H
  H383     1.0000 0.58730  0.59220  0.13450  Biso   1.000  H
  H384     1.0000 0.56800  0.63200  0.09580  Biso   1.000  H
  Mo25     1.0000 0.32288  0.60432  0.97535  Biso   1.000  Mo
  Mo26     1.0000 0.46753  0.77832  0.80358  Biso   1.000  Mo
  Mo27     1.0000 0.27495  0.63851  0.88317  Biso   1.000  Mo
  Cu17     1.0000 0.38389  0.56586  0.78884  Biso   1.000  Cu
  Cu18     1.0000 0.41526  0.64474  0.82535  Biso   1.000  Cu
  I17      1.0000 0.45752  0.57068  0.85035  Biso   1.000  I
  I18      1.0000 0.38145  0.63446  0.71237  Biso   1.000  I
  P65      1.0000 0.33187  0.58305  0.86293  Biso   1.000  P
  P66      1.0000 0.45868  0.70229  0.82475  Biso   1.000  P
  P67      1.0000 0.35446  0.64743  0.88921  Biso   1.000  P
  P68      1.0000 0.24753  0.62612  0.98890  Biso   1.000  P
  P69      1.0000 0.51750  0.77000  0.71620  Biso   1.000  P
  P70      1.0000 0.47190  0.71720  0.71940  Biso   1.000  P
  P71      1.0000 0.29168  0.67926  0.98310  Biso   1.000  P
  P72      1.0000 0.25700  0.56690  0.93250  Biso   1.000  P
  S25      1.0000 0.49198  0.73819  0.89970  Biso   1.000  S
  S26      1.0000 0.31250  0.67980  0.95870  Biso   1.000  S
  S27      1.0000 0.27450  0.56304  0.91150  Biso   1.000  S
  C257     1.0000 0.39580  0.78410  0.95770  Biso   1.000  C
  H385     1.0000 0.41990  0.76360  0.95680  Biso   1.000  H
  H386     1.0000 0.38730  0.78950  0.00130  Biso   1.000  H
  H387     1.0000 0.37130  0.77200  0.93460  Biso   1.000  H
  C258     1.0000 0.43550  0.83850  0.75460  Biso   1.000  C
  C259     1.0000 0.39530  0.79290  0.81720  Biso   1.000  C
  H388     1.0000 0.37330  0.77130  0.83090  Biso   1.000  H
  C260     1.0000 0.20660  0.65570  0.84510  Biso   1.000  C
  H389     1.0000 0.17860  0.64760  0.86540  Biso   1.000  H
  C261     1.0000 0.33580  0.59210  0.08040  Biso   1.000  C
  H390     1.0000 0.31970  0.60420  0.11710  Biso   1.000  H
  C262     1.0000 0.43610  0.63090  0.12060  Biso   1.000  C
  H391     1.0000 0.45690  0.61110  0.10130  Biso   1.000  H
  H392     1.0000 0.45140  0.65580  0.13810  Biso   1.000  H
  H393     1.0000 0.42050  0.61590  0.15420  Biso   1.000  H
  C263     1.0000 0.22920  0.69540  0.85430  Biso   1.000  C
  C264     1.0000 0.21480  0.73130  0.89810  Biso   1.000  C
  H394     1.0000 0.20230  0.75490  0.87350  Biso   1.000  H
  H395     1.0000 0.19310  0.72010  0.92740  Biso   1.000  H
  H396     1.0000 0.23970  0.74200  0.92180  Biso   1.000  H
  C265     1.0000 0.40530  0.80250  0.75340  Biso   1.000  C
  C266     1.0000 0.44270  0.84820  0.81820  Biso   1.000  C
  H397     1.0000 0.46100  0.87260  0.83330  Biso   1.000  H
  C267     1.0000 0.41660  0.82200  0.85780  Biso   1.000  C
  C268     1.0000 0.22730  0.63220  0.79610  Biso   1.000  C
  C269     1.0000 0.45040  0.84540  0.96040  Biso   1.000  C
  H398     1.0000 0.47440  0.82490  0.95700  Biso   1.000  H
  H399     1.0000 0.45830  0.87260  0.94020  Biso   1.000  H
  H400     1.0000 0.44390  0.85060  0.00480  Biso   1.000  H
  C270     1.0000 0.18080  0.56650  0.80320  Biso   1.000  C
  H401     1.0000 0.15680  0.58440  0.81790  Biso   1.000  H
  H402     1.0000 0.16960  0.54190  0.77950  Biso   1.000  H
  H403     1.0000 0.19740  0.55600  0.83930  Biso   1.000  H
  C271     1.0000 0.37470  0.86080  0.93570  Biso   1.000  C
  H404     1.0000 0.34770  0.85080  0.91670  Biso   1.000  H
  H405     1.0000 0.37010  0.86620  0.98060  Biso   1.000  H
  H406     1.0000 0.38390  0.88760  0.91530  Biso   1.000  H
  C272     1.0000 0.45350  0.86140  0.69960  Biso   1.000  C
  H407     1.0000 0.43610  0.88710  0.69080  Biso   1.000  H
  H408     1.0000 0.48330  0.87000  0.70850  Biso   1.000  H
  H409     1.0000 0.45300  0.84220  0.66300  Biso   1.000  H
  C273     1.0000 0.38740  0.57520  0.00950  Biso   1.000  C
  H410     1.0000 0.41370  0.57380  0.98240  Biso   1.000  H
  C274     1.0000 0.37810  0.61050  0.04870  Biso   1.000  C
  C275     1.0000 0.33100  0.55140  0.05350  Biso   1.000  C
  C276     1.0000 0.26530  0.69550  0.81320  Biso   1.000  C
  C277     1.0000 0.40970  0.82620  0.92740  Biso   1.000  C
  C278     1.0000 0.38630  0.78240  0.69570  Biso   1.000  C
  H411     1.0000 0.35710  0.79360  0.68920  Biso   1.000  H
  H412     1.0000 0.40430  0.78950  0.65930  Biso   1.000  H
  H413     1.0000 0.38520  0.75100  0.70100  Biso   1.000  H
  C279     1.0000 0.24630  0.56570  0.73610  Biso   1.000  C
  H414     1.0000 0.26400  0.58310  0.70750  Biso   1.000  H
  H415     1.0000 0.26430  0.55550  0.77110  Biso   1.000  H
  H416     1.0000 0.23450  0.54080  0.71350  Biso   1.000  H
  C280     1.0000 0.18260  0.61060  0.70880  Biso   1.000  C
  H417     1.0000 0.15810  0.62660  0.72610  Biso   1.000  H
  H418     1.0000 0.20020  0.63000  0.68290  Biso   1.000  H
  H419     1.0000 0.17200  0.58670  0.68290  Biso   1.000  H
  C281     1.0000 0.20970  0.59300  0.76150  Biso   1.000  C
  C282     1.0000 0.26410  0.65670  0.77850  Biso   1.000  C
  H420     1.0000 0.28420  0.64930  0.74330  Biso   1.000  H
  C283     1.0000 0.29680  0.73280  0.80580  Biso   1.000  C
  H421     1.0000 0.28420  0.75480  0.77830  Biso   1.000  H
  H422     1.0000 0.30280  0.74550  0.84710  Biso   1.000  H
  H423     1.0000 0.32380  0.72220  0.78740  Biso   1.000  H
  C284     1.0000 0.42680  0.66090  0.01940  Biso   1.000  C
  H424     1.0000 0.43510  0.63630  0.99310  Biso   1.000  H
  H425     1.0000 0.40860  0.68060  0.99500  Biso   1.000  H
  H426     1.0000 0.45280  0.67610  0.03350  Biso   1.000  H
  C285     1.0000 0.40400  0.64620  0.07100  Biso   1.000  C
  C286     1.0000 0.36140  0.49620  0.97600  Biso   1.000  C
  H427     1.0000 0.37870  0.47550  0.00010  Biso   1.000  H
  H428     1.0000 0.33200  0.48490  0.97080  Biso   1.000  H
  H429     1.0000 0.37450  0.50050  0.93460  Biso   1.000  H
  C287     1.0000 0.35950  0.54290  0.01390  Biso   1.000  C
  C288     1.0000 0.37020  0.67710  0.11210  Biso   1.000  C
  H430     1.0000 0.36660  0.70490  0.09070  Biso   1.000  H
  H431     1.0000 0.34220  0.66270  0.11550  Biso   1.000  H
  H432     1.0000 0.38200  0.68200  0.15420  Biso   1.000  H
  Mo28     1.0000 0.82288  0.10432  0.47535  Biso   1.000  Mo
  Mo29     1.0000 0.96753  0.27832  0.30358  Biso   1.000  Mo
  Mo30     1.0000 0.77495  0.13851  0.38317  Biso   1.000  Mo
  Cu19     1.0000 0.88389  0.06586  0.28884  Biso   1.000  Cu
  Cu20     1.0000 0.91526  0.14474  0.32535  Biso   1.000  Cu
  I19      1.0000 0.95752  0.07068  0.35035  Biso   1.000  I
  I20      1.0000 0.88145  0.13446  0.21237  Biso   1.000  I
  P73      1.0000 0.83187  0.08305  0.36293  Biso   1.000  P
  P74      1.0000 0.95868  0.20229  0.32475  Biso   1.000  P
  P75      1.0000 0.85446  0.14743  0.38921  Biso   1.000  P
  P76      1.0000 0.74753  0.12612  0.48890  Biso   1.000  P
  P77      1.0000 0.01750  0.27000  0.21620  Biso   1.000  P
  P78      1.0000 0.97190  0.21720  0.21940  Biso   1.000  P
  P79      1.0000 0.79168  0.17926  0.48310  Biso   1.000  P
  P80      1.0000 0.75700  0.06690  0.43250  Biso   1.000  P
  S28      1.0000 0.99198  0.23819  0.39970  Biso   1.000  S
  S29      1.0000 0.81250  0.17980  0.45870  Biso   1.000  S
  S30      1.0000 0.77450  0.06304  0.41150  Biso   1.000  S
  C289     1.0000 0.89580  0.28410  0.45770  Biso   1.000  C
  H433     1.0000 0.91990  0.26360  0.45680  Biso   1.000  H
  H434     1.0000 0.88730  0.28950  0.50130  Biso   1.000  H
  H435     1.0000 0.87130  0.27200  0.43460  Biso   1.000  H
  C290     1.0000 0.93550  0.33850  0.25460  Biso   1.000  C
  C291     1.0000 0.89530  0.29290  0.31720  Biso   1.000  C
  H436     1.0000 0.87330  0.27130  0.33090  Biso   1.000  H
  C292     1.0000 0.70660  0.15570  0.34510  Biso   1.000  C
  H437     1.0000 0.67860  0.14760  0.36540  Biso   1.000  H
  C293     1.0000 0.83580  0.09210  0.58040  Biso   1.000  C
  H438     1.0000 0.81970  0.10420  0.61710  Biso   1.000  H
  C294     1.0000 0.93610  0.13090  0.62060  Biso   1.000  C
  H439     1.0000 0.95690  0.11110  0.60130  Biso   1.000  H
  H440     1.0000 0.95140  0.15580  0.63810  Biso   1.000  H
  H441     1.0000 0.92050  0.11590  0.65420  Biso   1.000  H
  C295     1.0000 0.72920  0.19540  0.35430  Biso   1.000  C
  C296     1.0000 0.71480  0.23130  0.39810  Biso   1.000  C
  H442     1.0000 0.70230  0.25490  0.37350  Biso   1.000  H
  H443     1.0000 0.69310  0.22010  0.42740  Biso   1.000  H
  H444     1.0000 0.73970  0.24200  0.42180  Biso   1.000  H
  C297     1.0000 0.90530  0.30250  0.25340  Biso   1.000  C
  C298     1.0000 0.94270  0.34820  0.31820  Biso   1.000  C
  H445     1.0000 0.96100  0.37260  0.33330  Biso   1.000  H
  C299     1.0000 0.91660  0.32200  0.35780  Biso   1.000  C
  C300     1.0000 0.72730  0.13220  0.29610  Biso   1.000  C
  C301     1.0000 0.95040  0.34540  0.46040  Biso   1.000  C
  H446     1.0000 0.97440  0.32490  0.45700  Biso   1.000  H
  H447     1.0000 0.95830  0.37260  0.44020  Biso   1.000  H
  H448     1.0000 0.94390  0.35060  0.50480  Biso   1.000  H
  C302     1.0000 0.68080  0.06650  0.30320  Biso   1.000  C
  H449     1.0000 0.65680  0.08440  0.31790  Biso   1.000  H
  H450     1.0000 0.66960  0.04190  0.27950  Biso   1.000  H
  H451     1.0000 0.69740  0.05600  0.33930  Biso   1.000  H
  C303     1.0000 0.87470  0.36080  0.43570  Biso   1.000  C
  H452     1.0000 0.84770  0.35080  0.41670  Biso   1.000  H
  H453     1.0000 0.87010  0.36620  0.48060  Biso   1.000  H
  H454     1.0000 0.88390  0.38760  0.41530  Biso   1.000  H
  C304     1.0000 0.95350  0.36140  0.19960  Biso   1.000  C
  H455     1.0000 0.93610  0.38710  0.19080  Biso   1.000  H
  H456     1.0000 0.98330  0.37000  0.20850  Biso   1.000  H
  H457     1.0000 0.95300  0.34220  0.16300  Biso   1.000  H
  C305     1.0000 0.88740  0.07520  0.50950  Biso   1.000  C
  H458     1.0000 0.91370  0.07380  0.48240  Biso   1.000  H
  C306     1.0000 0.87810  0.11050  0.54870  Biso   1.000  C
  C307     1.0000 0.83100  0.05140  0.55350  Biso   1.000  C
  C308     1.0000 0.76530  0.19550  0.31320  Biso   1.000  C
  C309     1.0000 0.90970  0.32620  0.42740  Biso   1.000  C
  C310     1.0000 0.88630  0.28240  0.19570  Biso   1.000  C
  H459     1.0000 0.85710  0.29360  0.18920  Biso   1.000  H
  H460     1.0000 0.90430  0.28950  0.15930  Biso   1.000  H
  H461     1.0000 0.88520  0.25100  0.20100  Biso   1.000  H
  C311     1.0000 0.74630  0.06570  0.23610  Biso   1.000  C
  H462     1.0000 0.76400  0.08310  0.20750  Biso   1.000  H
  H463     1.0000 0.76430  0.05550  0.27110  Biso   1.000  H
  H464     1.0000 0.73450  0.04080  0.21350  Biso   1.000  H
  C312     1.0000 0.68260  0.11060  0.20880  Biso   1.000  C
  H465     1.0000 0.65810  0.12660  0.22610  Biso   1.000  H
  H466     1.0000 0.70020  0.13000  0.18290  Biso   1.000  H
  H467     1.0000 0.67200  0.08670  0.18290  Biso   1.000  H
  C313     1.0000 0.70970  0.09300  0.26150  Biso   1.000  C
  C314     1.0000 0.76410  0.15670  0.27850  Biso   1.000  C
  H468     1.0000 0.78420  0.14930  0.24330  Biso   1.000  H
  C315     1.0000 0.79680  0.23280  0.30580  Biso   1.000  C
  H469     1.0000 0.78420  0.25480  0.27830  Biso   1.000  H
  H470     1.0000 0.80280  0.24550  0.34710  Biso   1.000  H
  H471     1.0000 0.82380  0.22220  0.28740  Biso   1.000  H
  C316     1.0000 0.92680  0.16090  0.51940  Biso   1.000  C
  H472     1.0000 0.93510  0.13630  0.49310  Biso   1.000  H
  H473     1.0000 0.90860  0.18060  0.49500  Biso   1.000  H
  H474     1.0000 0.95280  0.17610  0.53350  Biso   1.000  H
  C317     1.0000 0.90400  0.14620  0.57100  Biso   1.000  C
  C318     1.0000 0.86140  0.99620  0.47600  Biso   1.000  C
  H475     1.0000 0.87870  0.97550  0.50010  Biso   1.000  H
  H476     1.0000 0.83200  0.98490  0.47080  Biso   1.000  H
  H477     1.0000 0.87450  0.00050  0.43460  Biso   1.000  H
  C319     1.0000 0.85950  0.04290  0.51390  Biso   1.000  C
  C320     1.0000 0.87020  0.17710  0.61210  Biso   1.000  C
  H478     1.0000 0.86660  0.20490  0.59070  Biso   1.000  H
  H479     1.0000 0.84220  0.16270  0.61550  Biso   1.000  H
  H480     1.0000 0.88200  0.18200  0.65420  Biso   1.000  H
  Mo31     1.0000 0.17712  0.39568  0.47535  Biso   1.000  Mo
  Mo32     1.0000 0.03247  0.22168  0.30358  Biso   1.000  Mo
  Mo33     1.0000 0.22505  0.36149  0.38317  Biso   1.000  Mo
  Cu21     1.0000 0.11611  0.43414  0.28884  Biso   1.000  Cu
  Cu22     1.0000 0.08474  0.35526  0.32535  Biso   1.000  Cu
  I21      1.0000 0.04248  0.42932  0.35035  Biso   1.000  I
  I22      1.0000 0.11855  0.36554  0.21237  Biso   1.000  I
  P81      1.0000 0.16813  0.41695  0.36293  Biso   1.000  P
  P82      1.0000 0.04132  0.29771  0.32475  Biso   1.000  P
  P83      1.0000 0.14554  0.35257  0.38921  Biso   1.000  P
  P84      1.0000 0.25247  0.37388  0.48890  Biso   1.000  P
  P85      1.0000 0.98250  0.23000  0.21620  Biso   1.000  P
  P86      1.0000 0.02810  0.28280  0.21940  Biso   1.000  P
  P87      1.0000 0.20832  0.32074  0.48310  Biso   1.000  P
  P88      1.0000 0.24300  0.43310  0.43250  Biso   1.000  P
  S31      1.0000 0.00802  0.26181  0.39970  Biso   1.000  S
  S32      1.0000 0.18750  0.32020  0.45870  Biso   1.000  S
  S33      1.0000 0.22550  0.43696  0.41150  Biso   1.000  S
  C321     1.0000 0.10420  0.21590  0.45770  Biso   1.000  C
  H481     1.0000 0.08010  0.23640  0.45680  Biso   1.000  H
  H482     1.0000 0.11270  0.21050  0.50130  Biso   1.000  H
  H483     1.0000 0.12870  0.22800  0.43460  Biso   1.000  H
  C322     1.0000 0.06450  0.16150  0.25460  Biso   1.000  C
  C323     1.0000 0.10470  0.20710  0.31720  Biso   1.000  C
  H484     1.0000 0.12670  0.22870  0.33090  Biso   1.000  H
  C324     1.0000 0.29340  0.34430  0.34510  Biso   1.000  C
  H485     1.0000 0.32140  0.35240  0.36540  Biso   1.000  H
  C325     1.0000 0.16420  0.40790  0.58040  Biso   1.000  C
  H486     1.0000 0.18030  0.39580  0.61710  Biso   1.000  H
  C326     1.0000 0.06390  0.36910  0.62060  Biso   1.000  C
  H487     1.0000 0.04310  0.38890  0.60130  Biso   1.000  H
  H488     1.0000 0.04860  0.34420  0.63810  Biso   1.000  H
  H489     1.0000 0.07950  0.38410  0.65420  Biso   1.000  H
  C327     1.0000 0.27080  0.30460  0.35430  Biso   1.000  C
  C328     1.0000 0.28520  0.26870  0.39810  Biso   1.000  C
  H490     1.0000 0.29770  0.24510  0.37350  Biso   1.000  H
  H491     1.0000 0.30690  0.27990  0.42740  Biso   1.000  H
  H492     1.0000 0.26030  0.25800  0.42180  Biso   1.000  H
  C329     1.0000 0.09470  0.19750  0.25340  Biso   1.000  C
  C330     1.0000 0.05730  0.15180  0.31820  Biso   1.000  C
  H493     1.0000 0.03900  0.12740  0.33330  Biso   1.000  H
  C331     1.0000 0.08340  0.17800  0.35780  Biso   1.000  C
  C332     1.0000 0.27270  0.36780  0.29610  Biso   1.000  C
  C333     1.0000 0.04960  0.15460  0.46040  Biso   1.000  C
  H494     1.0000 0.02560  0.17510  0.45700  Biso   1.000  H
  H495     1.0000 0.04170  0.12740  0.44020  Biso   1.000  H
  H496     1.0000 0.05610  0.14940  0.50480  Biso   1.000  H
  C334     1.0000 0.31920  0.43350  0.30320  Biso   1.000  C
  H497     1.0000 0.34320  0.41560  0.31790  Biso   1.000  H
  H498     1.0000 0.33040  0.45810  0.27950  Biso   1.000  H
  H499     1.0000 0.30260  0.44400  0.33930  Biso   1.000  H
  C335     1.0000 0.12530  0.13920  0.43570  Biso   1.000  C
  H500     1.0000 0.15230  0.14920  0.41670  Biso   1.000  H
  H501     1.0000 0.12990  0.13380  0.48060  Biso   1.000  H
  H502     1.0000 0.11610  0.11240  0.41530  Biso   1.000  H
  C336     1.0000 0.04650  0.13860  0.19960  Biso   1.000  C
  H503     1.0000 0.06390  0.11290  0.19080  Biso   1.000  H
  H504     1.0000 0.01670  0.13000  0.20850  Biso   1.000  H
  H505     1.0000 0.04700  0.15780  0.16300  Biso   1.000  H
  C337     1.0000 0.11260  0.42480  0.50950  Biso   1.000  C
  H506     1.0000 0.08630  0.42620  0.48240  Biso   1.000  H
  C338     1.0000 0.12190  0.38950  0.54870  Biso   1.000  C
  C339     1.0000 0.16900  0.44860  0.55350  Biso   1.000  C
  C340     1.0000 0.23470  0.30450  0.31320  Biso   1.000  C
  C341     1.0000 0.09030  0.17380  0.42740  Biso   1.000  C
  C342     1.0000 0.11370  0.21760  0.19570  Biso   1.000  C
  H507     1.0000 0.14290  0.20640  0.18920  Biso   1.000  H
  H508     1.0000 0.09570  0.21050  0.15930  Biso   1.000  H
  H509     1.0000 0.11480  0.24900  0.20100  Biso   1.000  H
  C343     1.0000 0.25370  0.43430  0.23610  Biso   1.000  C
  H510     1.0000 0.23600  0.41690  0.20750  Biso   1.000  H
  H511     1.0000 0.23570  0.44450  0.27110  Biso   1.000  H
  H512     1.0000 0.26550  0.45920  0.21350  Biso   1.000  H
  C344     1.0000 0.31740  0.38940  0.20880  Biso   1.000  C
  H513     1.0000 0.34190  0.37340  0.22610  Biso   1.000  H
  H514     1.0000 0.29980  0.37000  0.18290  Biso   1.000  H
  H515     1.0000 0.32800  0.41330  0.18290  Biso   1.000  H
  C345     1.0000 0.29030  0.40700  0.26150  Biso   1.000  C
  C346     1.0000 0.23590  0.34330  0.27850  Biso   1.000  C
  H516     1.0000 0.21580  0.35070  0.24330  Biso   1.000  H
  C347     1.0000 0.20320  0.26720  0.30580  Biso   1.000  C
  H517     1.0000 0.21580  0.24520  0.27830  Biso   1.000  H
  H518     1.0000 0.19720  0.25450  0.34710  Biso   1.000  H
  H519     1.0000 0.17620  0.27780  0.28740  Biso   1.000  H
  C348     1.0000 0.07320  0.33910  0.51940  Biso   1.000  C
  H520     1.0000 0.06490  0.36370  0.49310  Biso   1.000  H
  H521     1.0000 0.09140  0.31940  0.49500  Biso   1.000  H
  H522     1.0000 0.04720  0.32390  0.53350  Biso   1.000  H
  C349     1.0000 0.09600  0.35380  0.57100  Biso   1.000  C
  C350     1.0000 0.13860  0.50380  0.47600  Biso   1.000  C
  H523     1.0000 0.12130  0.52450  0.50010  Biso   1.000  H
  H524     1.0000 0.16800  0.51510  0.47080  Biso   1.000  H
  H525     1.0000 0.12550  0.49950  0.43460  Biso   1.000  H
  C351     1.0000 0.14050  0.45710  0.51390  Biso   1.000  C
  C352     1.0000 0.12980  0.32290  0.61210  Biso   1.000  C
  H526     1.0000 0.13340  0.29510  0.59070  Biso   1.000  H
  H527     1.0000 0.15780  0.33730  0.61550  Biso   1.000  H
  H528     1.0000 0.11800  0.31800  0.65420  Biso   1.000  H
  Mo34     1.0000 0.67712  0.89568  0.97535  Biso   1.000  Mo
  Mo35     1.0000 0.53247  0.72168  0.80358  Biso   1.000  Mo
  Mo36     1.0000 0.72505  0.86149  0.88317  Biso   1.000  Mo
  Cu23     1.0000 0.61611  0.93414  0.78884  Biso   1.000  Cu
  Cu24     1.0000 0.58474  0.85526  0.82535  Biso   1.000  Cu
  I23      1.0000 0.54248  0.92932  0.85035  Biso   1.000  I
  I24      1.0000 0.61855  0.86554  0.71237  Biso   1.000  I
  P89      1.0000 0.66813  0.91695  0.86293  Biso   1.000  P
  P90      1.0000 0.54132  0.79771  0.82475  Biso   1.000  P
  P91      1.0000 0.64554  0.85257  0.88921  Biso   1.000  P
  P92      1.0000 0.75247  0.87388  0.98890  Biso   1.000  P
  P93      1.0000 0.48250  0.73000  0.71620  Biso   1.000  P
  P94      1.0000 0.52810  0.78280  0.71940  Biso   1.000  P
  P95      1.0000 0.70832  0.82074  0.98310  Biso   1.000  P
  P96      1.0000 0.74300  0.93310  0.93250  Biso   1.000  P
  S34      1.0000 0.50802  0.76181  0.89970  Biso   1.000  S
  S35      1.0000 0.68750  0.82020  0.95870  Biso   1.000  S
  S36      1.0000 0.72550  0.93696  0.91150  Biso   1.000  S
  C353     1.0000 0.60420  0.71590  0.95770  Biso   1.000  C
  H529     1.0000 0.58010  0.73640  0.95680  Biso   1.000  H
  H530     1.0000 0.61270  0.71050  0.00130  Biso   1.000  H
  H531     1.0000 0.62870  0.72800  0.93460  Biso   1.000  H
  C354     1.0000 0.56450  0.66150  0.75460  Biso   1.000  C
  C355     1.0000 0.60470  0.70710  0.81720  Biso   1.000  C
  H532     1.0000 0.62670  0.72870  0.83090  Biso   1.000  H
  C356     1.0000 0.79340  0.84430  0.84510  Biso   1.000  C
  H533     1.0000 0.82140  0.85240  0.86540  Biso   1.000  H
  C357     1.0000 0.66420  0.90790  0.08040  Biso   1.000  C
  H534     1.0000 0.68030  0.89580  0.11710  Biso   1.000  H
  C358     1.0000 0.56390  0.86910  0.12060  Biso   1.000  C
  H535     1.0000 0.54310  0.88890  0.10130  Biso   1.000  H
  H536     1.0000 0.54860  0.84420  0.13810  Biso   1.000  H
  H537     1.0000 0.57950  0.88410  0.15420  Biso   1.000  H
  C359     1.0000 0.77080  0.80460  0.85430  Biso   1.000  C
  C360     1.0000 0.78520  0.76870  0.89810  Biso   1.000  C
  H538     1.0000 0.79770  0.74510  0.87350  Biso   1.000  H
  H539     1.0000 0.80690  0.77990  0.92740  Biso   1.000  H
  H540     1.0000 0.76030  0.75800  0.92180  Biso   1.000  H
  C361     1.0000 0.59470  0.69750  0.75340  Biso   1.000  C
  C362     1.0000 0.55730  0.65180  0.81820  Biso   1.000  C
  H541     1.0000 0.53900  0.62740  0.83330  Biso   1.000  H
  C363     1.0000 0.58340  0.67800  0.85780  Biso   1.000  C
  C364     1.0000 0.77270  0.86780  0.79610  Biso   1.000  C
  C365     1.0000 0.54960  0.65460  0.96040  Biso   1.000  C
  H542     1.0000 0.52560  0.67510  0.95700  Biso   1.000  H
  H543     1.0000 0.54170  0.62740  0.94020  Biso   1.000  H
  H544     1.0000 0.55610  0.64940  0.00480  Biso   1.000  H
  C366     1.0000 0.81920  0.93350  0.80320  Biso   1.000  C
  H545     1.0000 0.84320  0.91560  0.81790  Biso   1.000  H
  H546     1.0000 0.83040  0.95810  0.77950  Biso   1.000  H
  H547     1.0000 0.80260  0.94400  0.83930  Biso   1.000  H
  C367     1.0000 0.62530  0.63920  0.93570  Biso   1.000  C
  H548     1.0000 0.65230  0.64920  0.91670  Biso   1.000  H
  H549     1.0000 0.62990  0.63380  0.98060  Biso   1.000  H
  H550     1.0000 0.61610  0.61240  0.91530  Biso   1.000  H
  C368     1.0000 0.54650  0.63860  0.69960  Biso   1.000  C
  H551     1.0000 0.56390  0.61290  0.69080  Biso   1.000  H
  H552     1.0000 0.51670  0.63000  0.70850  Biso   1.000  H
  H553     1.0000 0.54700  0.65780  0.66300  Biso   1.000  H
  C369     1.0000 0.61260  0.92480  0.00950  Biso   1.000  C
  H554     1.0000 0.58630  0.92620  0.98240  Biso   1.000  H
  C370     1.0000 0.62190  0.88950  0.04870  Biso   1.000  C
  C371     1.0000 0.66900  0.94860  0.05350  Biso   1.000  C
  C372     1.0000 0.73470  0.80450  0.81320  Biso   1.000  C
  C373     1.0000 0.59030  0.67380  0.92740  Biso   1.000  C
  C374     1.0000 0.61370  0.71760  0.69570  Biso   1.000  C
  H555     1.0000 0.64290  0.70640  0.68920  Biso   1.000  H
  H556     1.0000 0.59570  0.71050  0.65930  Biso   1.000  H
  H557     1.0000 0.61480  0.74900  0.70100  Biso   1.000  H
  C375     1.0000 0.75370  0.93430  0.73610  Biso   1.000  C
  H558     1.0000 0.73600  0.91690  0.70750  Biso   1.000  H
  H559     1.0000 0.73570  0.94450  0.77110  Biso   1.000  H
  H560     1.0000 0.76550  0.95920  0.71350  Biso   1.000  H
  C376     1.0000 0.81740  0.88940  0.70880  Biso   1.000  C
  H561     1.0000 0.84190  0.87340  0.72610  Biso   1.000  H
  H562     1.0000 0.79980  0.87000  0.68290  Biso   1.000  H
  H563     1.0000 0.82800  0.91330  0.68290  Biso   1.000  H
  C377     1.0000 0.79030  0.90700  0.76150  Biso   1.000  C
  C378     1.0000 0.73590  0.84330  0.77850  Biso   1.000  C
  H564     1.0000 0.71580  0.85070  0.74330  Biso   1.000  H
  C379     1.0000 0.70320  0.76720  0.80580  Biso   1.000  C
  H565     1.0000 0.71580  0.74520  0.77830  Biso   1.000  H
  H566     1.0000 0.69720  0.75450  0.84710  Biso   1.000  H
  H567     1.0000 0.67620  0.77780  0.78740  Biso   1.000  H
  C380     1.0000 0.57320  0.83910  0.01940  Biso   1.000  C
  H568     1.0000 0.56490  0.86370  0.99310  Biso   1.000  H
  H569     1.0000 0.59140  0.81940  0.99500  Biso   1.000  H
  H570     1.0000 0.54720  0.82390  0.03350  Biso   1.000  H
  C381     1.0000 0.59600  0.85380  0.07100  Biso   1.000  C
  C382     1.0000 0.63860  0.00380  0.97600  Biso   1.000  C
  H571     1.0000 0.62130  0.02450  0.00010  Biso   1.000  H
  H572     1.0000 0.66800  0.01510  0.97080  Biso   1.000  H
  H573     1.0000 0.62550  0.99950  0.93460  Biso   1.000  H
  C383     1.0000 0.64050  0.95710  0.01390  Biso   1.000  C
  C384     1.0000 0.62980  0.82290  0.11210  Biso   1.000  C
  H574     1.0000 0.63340  0.79510  0.09070  Biso   1.000  H
  H575     1.0000 0.65780  0.83730  0.11550  Biso   1.000  H
  H576     1.0000 0.61800  0.81800  0.15420  Biso   1.000  H
  Mo37     1.0000 0.64568  0.07288  0.72535  Biso   1.000  Mo
  Mo38     1.0000 0.47168  0.21753  0.55358  Biso   1.000  Mo
  Mo39     1.0000 0.61149  0.02495  0.63317  Biso   1.000  Mo
  Cu25     1.0000 0.68414  0.13389  0.53884  Biso   1.000  Cu
  Cu26     1.0000 0.60526  0.16526  0.57535  Biso   1.000  Cu
  I25      1.0000 0.67932  0.20752  0.60035  Biso   1.000  I
  I26      1.0000 0.61554  0.13145  0.46237  Biso   1.000  I
  P97      1.0000 0.66695  0.08187  0.61293  Biso   1.000  P
  P98      1.0000 0.54771  0.20868  0.57475  Biso   1.000  P
  P99      1.0000 0.60257  0.10446  0.63921  Biso   1.000  P
  P100     1.0000 0.62388  0.99753  0.73890  Biso   1.000  P
  P101     1.0000 0.48000  0.26750  0.46620  Biso   1.000  P
  P102     1.0000 0.53280  0.22190  0.46940  Biso   1.000  P
  P103     1.0000 0.57074  0.04168  0.73310  Biso   1.000  P
  P104     1.0000 0.68310  0.00700  0.68250  Biso   1.000  P
  S37      1.0000 0.51181  0.24198  0.64970  Biso   1.000  S
  S38      1.0000 0.57020  0.06250  0.70870  Biso   1.000  S
  S39      1.0000 0.68696  0.02450  0.66150  Biso   1.000  S
  C385     1.0000 0.46590  0.14580  0.70770  Biso   1.000  C
  H577     1.0000 0.48640  0.16990  0.70680  Biso   1.000  H
  H578     1.0000 0.46050  0.13730  0.75130  Biso   1.000  H
  H579     1.0000 0.47800  0.12130  0.68460  Biso   1.000  H
  C386     1.0000 0.41150  0.18550  0.50460  Biso   1.000  C
  C387     1.0000 0.45710  0.14530  0.56720  Biso   1.000  C
  H580     1.0000 0.47870  0.12330  0.58090  Biso   1.000  H
  C388     1.0000 0.59430  0.95660  0.59510  Biso   1.000  C
  H581     1.0000 0.60240  0.92860  0.61540  Biso   1.000  H
  C389     1.0000 0.65790  0.08580  0.83040  Biso   1.000  C
  H582     1.0000 0.64580  0.06970  0.86710  Biso   1.000  H
  C390     1.0000 0.61910  0.18610  0.87060  Biso   1.000  C
  H583     1.0000 0.63890  0.20690  0.85130  Biso   1.000  H
  H584     1.0000 0.59420  0.20140  0.88810  Biso   1.000  H
  H585     1.0000 0.63410  0.17050  0.90420  Biso   1.000  H
  C391     1.0000 0.55460  0.97920  0.60430  Biso   1.000  C
  C392     1.0000 0.51870  0.96480  0.64810  Biso   1.000  C
  H586     1.0000 0.49510  0.95230  0.62350  Biso   1.000  H
  H587     1.0000 0.52990  0.94310  0.67740  Biso   1.000  H
  H588     1.0000 0.50800  0.98970  0.67180  Biso   1.000  H
  C393     1.0000 0.44750  0.15530  0.50340  Biso   1.000  C
  C394     1.0000 0.40180  0.19270  0.56820  Biso   1.000  C
  H589     1.0000 0.37740  0.21100  0.58330  Biso   1.000  H
  C395     1.0000 0.42800  0.16660  0.60780  Biso   1.000  C
  C396     1.0000 0.61780  0.97730  0.54610  Biso   1.000  C
  C397     1.0000 0.40460  0.20040  0.71040  Biso   1.000  C
  H590     1.0000 0.42510  0.22440  0.70700  Biso   1.000  H
  H591     1.0000 0.37740  0.20830  0.69020  Biso   1.000  H
  H592     1.0000 0.39940  0.19390  0.75480  Biso   1.000  H
  C398     1.0000 0.68350  0.93080  0.55320  Biso   1.000  C
  H593     1.0000 0.66560  0.90680  0.56790  Biso   1.000  H
  H594     1.0000 0.70810  0.91960  0.52950  Biso   1.000  H
  H595     1.0000 0.69400  0.94740  0.58930  Biso   1.000  H
  C399     1.0000 0.38920  0.12470  0.68570  Biso   1.000  C
  H596     1.0000 0.39920  0.09770  0.66670  Biso   1.000  H
  H597     1.0000 0.38380  0.12010  0.73060  Biso   1.000  H
  H598     1.0000 0.36240  0.13390  0.66530  Biso   1.000  H
  C400     1.0000 0.38860  0.20350  0.44960  Biso   1.000  C
  H599     1.0000 0.36290  0.18610  0.44080  Biso   1.000  H
  H600     1.0000 0.38000  0.23330  0.45850  Biso   1.000  H
  H601     1.0000 0.40780  0.20300  0.41300  Biso   1.000  H
  C401     1.0000 0.67480  0.13740  0.75950  Biso   1.000  C
  H602     1.0000 0.67620  0.16370  0.73240  Biso   1.000  H
  C402     1.0000 0.63950  0.12810  0.79870  Biso   1.000  C
  C403     1.0000 0.69860  0.08100  0.80350  Biso   1.000  C
  C404     1.0000 0.55450  0.01530  0.56320  Biso   1.000  C
  C405     1.0000 0.42380  0.15970  0.67740  Biso   1.000  C
  C406     1.0000 0.46760  0.13630  0.44570  Biso   1.000  C
  H603     1.0000 0.45640  0.10710  0.43920  Biso   1.000  H
  H604     1.0000 0.46050  0.15430  0.40930  Biso   1.000  H
  H605     1.0000 0.49900  0.13520  0.45100  Biso   1.000  H
  C407     1.0000 0.68430  0.99630  0.48610  Biso   1.000  C
  H606     1.0000 0.66690  0.01400  0.45750  Biso   1.000  H
  H607     1.0000 0.69450  0.01430  0.52110  Biso   1.000  H
  H608     1.0000 0.70920  0.98450  0.46350  Biso   1.000  H
  C408     1.0000 0.63940  0.93260  0.45880  Biso   1.000  C
  H609     1.0000 0.62340  0.90810  0.47610  Biso   1.000  H
  H610     1.0000 0.62000  0.95020  0.43290  Biso   1.000  H
  H611     1.0000 0.66330  0.92200  0.43290  Biso   1.000  H
  C409     1.0000 0.65700  0.95970  0.51150  Biso   1.000  C
  C410     1.0000 0.59330  0.01410  0.52850  Biso   1.000  C
  H612     1.0000 0.60070  0.03420  0.49330  Biso   1.000  H
  C411     1.0000 0.51720  0.04680  0.55580  Biso   1.000  C
  H613     1.0000 0.49520  0.03420  0.52830  Biso   1.000  H
  H614     1.0000 0.50450  0.05280  0.59710  Biso   1.000  H
  H615     1.0000 0.52780  0.07380  0.53740  Biso   1.000  H
  C412     1.0000 0.58910  0.17680  0.76940  Biso   1.000  C
  H616     1.0000 0.61370  0.18510  0.74310  Biso   1.000  H
  H617     1.0000 0.56940  0.15860  0.74500  Biso   1.000  H
  H618     1.0000 0.57390  0.20280  0.78350  Biso   1.000  H
  C413     1.0000 0.60380  0.15400  0.82100  Biso   1.000  C
  C414     1.0000 0.75380  0.11140  0.72600  Biso   1.000  C
  H619     1.0000 0.77450  0.12870  0.75010  Biso   1.000  H
  H620     1.0000 0.76510  0.08200  0.72080  Biso   1.000  H
  H621     1.0000 0.74950  0.12450  0.68460  Biso   1.000  H
  C415     1.0000 0.70710  0.10950  0.76390  Biso   1.000  C
  C416     1.0000 0.57290  0.12020  0.86210  Biso   1.000  C
  H622     1.0000 0.54510  0.11660  0.84070  Biso   1.000  H
  H623     1.0000 0.58730  0.09220  0.86550  Biso   1.000  H
  H624     1.0000 0.56800  0.13200  0.90420  Biso   1.000  H
  Mo40     1.0000 0.14568  0.57288  0.22535  Biso   1.000  Mo
  Mo41     1.0000 0.97168  0.71753  0.05358  Biso   1.000  Mo
  Mo42     1.0000 0.11149  0.52495  0.13317  Biso   1.000  Mo
  Cu27     1.0000 0.18414  0.63389  0.03884  Biso   1.000  Cu
  Cu28     1.0000 0.10526  0.66526  0.07535  Biso   1.000  Cu
  I27      1.0000 0.17932  0.70752  0.10035  Biso   1.000  I
  I28      1.0000 0.11554  0.63145  0.96237  Biso   1.000  I
  P105     1.0000 0.16695  0.58187  0.11293  Biso   1.000  P
  P106     1.0000 0.04771  0.70868  0.07475  Biso   1.000  P
  P107     1.0000 0.10257  0.60446  0.13921  Biso   1.000  P
  P108     1.0000 0.12388  0.49753  0.23890  Biso   1.000  P
  P109     1.0000 0.98000  0.76750  0.96620  Biso   1.000  P
  P110     1.0000 0.03280  0.72190  0.96940  Biso   1.000  P
  P111     1.0000 0.07074  0.54168  0.23310  Biso   1.000  P
  P112     1.0000 0.18310  0.50700  0.18250  Biso   1.000  P
  S40      1.0000 0.01181  0.74198  0.14970  Biso   1.000  S
  S41      1.0000 0.07020  0.56250  0.20870  Biso   1.000  S
  S42      1.0000 0.18696  0.52450  0.16150  Biso   1.000  S
  C417     1.0000 0.96590  0.64580  0.20770  Biso   1.000  C
  H625     1.0000 0.98640  0.66990  0.20680  Biso   1.000  H
  H626     1.0000 0.96050  0.63730  0.25130  Biso   1.000  H
  H627     1.0000 0.97800  0.62130  0.18460  Biso   1.000  H
  C418     1.0000 0.91150  0.68550  0.00460  Biso   1.000  C
  C419     1.0000 0.95710  0.64530  0.06720  Biso   1.000  C
  H628     1.0000 0.97870  0.62330  0.08090  Biso   1.000  H
  C420     1.0000 0.09430  0.45660  0.09510  Biso   1.000  C
  H629     1.0000 0.10240  0.42860  0.11540  Biso   1.000  H
  C421     1.0000 0.15790  0.58580  0.33040  Biso   1.000  C
  H630     1.0000 0.14580  0.56970  0.36710  Biso   1.000  H
  C422     1.0000 0.11910  0.68610  0.37060  Biso   1.000  C
  H631     1.0000 0.13890  0.70690  0.35130  Biso   1.000  H
  H632     1.0000 0.09420  0.70140  0.38810  Biso   1.000  H
  H633     1.0000 0.13410  0.67050  0.40420  Biso   1.000  H
  C423     1.0000 0.05460  0.47920  0.10430  Biso   1.000  C
  C424     1.0000 0.01870  0.46480  0.14810  Biso   1.000  C
  H634     1.0000 0.99510  0.45230  0.12350  Biso   1.000  H
  H635     1.0000 0.02990  0.44310  0.17740  Biso   1.000  H
  H636     1.0000 0.00800  0.48970  0.17180  Biso   1.000  H
  C425     1.0000 0.94750  0.65530  0.00340  Biso   1.000  C
  C426     1.0000 0.90180  0.69270  0.06820  Biso   1.000  C
  H637     1.0000 0.87740  0.71100  0.08330  Biso   1.000  H
  C427     1.0000 0.92800  0.66660  0.10780  Biso   1.000  C
  C428     1.0000 0.11780  0.47730  0.04610  Biso   1.000  C
  C429     1.0000 0.90460  0.70040  0.21040  Biso   1.000  C
  H638     1.0000 0.92510  0.72440  0.20700  Biso   1.000  H
  H639     1.0000 0.87740  0.70830  0.19020  Biso   1.000  H
  H640     1.0000 0.89940  0.69390  0.25480  Biso   1.000  H
  C430     1.0000 0.18350  0.43080  0.05320  Biso   1.000  C
  H641     1.0000 0.16560  0.40680  0.06790  Biso   1.000  H
  H642     1.0000 0.20810  0.41960  0.02950  Biso   1.000  H
  H643     1.0000 0.19400  0.44740  0.08930  Biso   1.000  H
  C431     1.0000 0.88920  0.62470  0.18570  Biso   1.000  C
  H644     1.0000 0.89920  0.59770  0.16670  Biso   1.000  H
  H645     1.0000 0.88380  0.62010  0.23060  Biso   1.000  H
  H646     1.0000 0.86240  0.63390  0.16530  Biso   1.000  H
  C432     1.0000 0.88860  0.70350  0.94960  Biso   1.000  C
  H647     1.0000 0.86290  0.68610  0.94080  Biso   1.000  H
  H648     1.0000 0.88000  0.73330  0.95850  Biso   1.000  H
  H649     1.0000 0.90780  0.70300  0.91300  Biso   1.000  H
  C433     1.0000 0.17480  0.63740  0.25950  Biso   1.000  C
  H650     1.0000 0.17620  0.66370  0.23240  Biso   1.000  H
  C434     1.0000 0.13950  0.62810  0.29870  Biso   1.000  C
  C435     1.0000 0.19860  0.58100  0.30350  Biso   1.000  C
  C436     1.0000 0.05450  0.51530  0.06320  Biso   1.000  C
  C437     1.0000 0.92380  0.65970  0.17740  Biso   1.000  C
  C438     1.0000 0.96760  0.63630  0.94570  Biso   1.000  C
  H651     1.0000 0.95640  0.60710  0.93920  Biso   1.000  H
  H652     1.0000 0.96050  0.65430  0.90930  Biso   1.000  H
  H653     1.0000 0.99900  0.63520  0.95100  Biso   1.000  H
  C439     1.0000 0.18430  0.49630  0.98610  Biso   1.000  C
  H654     1.0000 0.16690  0.51400  0.95750  Biso   1.000  H
  H655     1.0000 0.19450  0.51430  0.02110  Biso   1.000  H
  H656     1.0000 0.20920  0.48450  0.96350  Biso   1.000  H
  C440     1.0000 0.13940  0.43260  0.95880  Biso   1.000  C
  H657     1.0000 0.12340  0.40810  0.97610  Biso   1.000  H
  H658     1.0000 0.12000  0.45020  0.93290  Biso   1.000  H
  H659     1.0000 0.16330  0.42200  0.93290  Biso   1.000  H
  C441     1.0000 0.15700  0.45970  0.01150  Biso   1.000  C
  C442     1.0000 0.09330  0.51410  0.02850  Biso   1.000  C
  H660     1.0000 0.10070  0.53420  0.99330  Biso   1.000  H
  C443     1.0000 0.01720  0.54680  0.05580  Biso   1.000  C
  H661     1.0000 0.99520  0.53420  0.02830  Biso   1.000  H
  H662     1.0000 0.00450  0.55280  0.09710  Biso   1.000  H
  H663     1.0000 0.02780  0.57380  0.03740  Biso   1.000  H
  C444     1.0000 0.08910  0.67680  0.26940  Biso   1.000  C
  H664     1.0000 0.11370  0.68510  0.24310  Biso   1.000  H
  H665     1.0000 0.06940  0.65860  0.24500  Biso   1.000  H
  H666     1.0000 0.07390  0.70280  0.28350  Biso   1.000  H
  C445     1.0000 0.10380  0.65400  0.32100  Biso   1.000  C
  C446     1.0000 0.25380  0.61140  0.22600  Biso   1.000  C
  H667     1.0000 0.27450  0.62870  0.25010  Biso   1.000  H
  H668     1.0000 0.26510  0.58200  0.22080  Biso   1.000  H
  H669     1.0000 0.24950  0.62450  0.18460  Biso   1.000  H
  C447     1.0000 0.20710  0.60950  0.26390  Biso   1.000  C
  C448     1.0000 0.07290  0.62020  0.36210  Biso   1.000  C
  H670     1.0000 0.04510  0.61660  0.34070  Biso   1.000  H
  H671     1.0000 0.08730  0.59220  0.36550  Biso   1.000  H
  H672     1.0000 0.06800  0.63200  0.40420  Biso   1.000  H
  Mo43     1.0000 0.85432  0.92712  0.22535  Biso   1.000  Mo
  Mo44     1.0000 0.02832  0.78247  0.05358  Biso   1.000  Mo
  Mo45     1.0000 0.88851  0.97505  0.13317  Biso   1.000  Mo
  Cu29     1.0000 0.81586  0.86611  0.03884  Biso   1.000  Cu
  Cu30     1.0000 0.89474  0.83474  0.07535  Biso   1.000  Cu
  I29      1.0000 0.82068  0.79248  0.10035  Biso   1.000  I
  I30      1.0000 0.88446  0.86855  0.96237  Biso   1.000  I
  P113     1.0000 0.83305  0.91813  0.11293  Biso   1.000  P
  P114     1.0000 0.95229  0.79132  0.07475  Biso   1.000  P
  P115     1.0000 0.89743  0.89554  0.13921  Biso   1.000  P
  P116     1.0000 0.87612  0.00247  0.23890  Biso   1.000  P
  P117     1.0000 0.02000  0.73250  0.96620  Biso   1.000  P
  P118     1.0000 0.96720  0.77810  0.96940  Biso   1.000  P
  P119     1.0000 0.92926  0.95832  0.23310  Biso   1.000  P
  P120     1.0000 0.81690  0.99300  0.18250  Biso   1.000  P
  S43      1.0000 0.98819  0.75802  0.14970  Biso   1.000  S
  S44      1.0000 0.92980  0.93750  0.20870  Biso   1.000  S
  S45      1.0000 0.81304  0.97550  0.16150  Biso   1.000  S
  C449     1.0000 0.03410  0.85420  0.20770  Biso   1.000  C
  H673     1.0000 0.01360  0.83010  0.20680  Biso   1.000  H
  H674     1.0000 0.03950  0.86270  0.25130  Biso   1.000  H
  H675     1.0000 0.02200  0.87870  0.18460  Biso   1.000  H
  C450     1.0000 0.08850  0.81450  0.00460  Biso   1.000  C
  C451     1.0000 0.04290  0.85470  0.06720  Biso   1.000  C
  H676     1.0000 0.02130  0.87670  0.08090  Biso   1.000  H
  C452     1.0000 0.90570  0.04340  0.09510  Biso   1.000  C
  H677     1.0000 0.89760  0.07140  0.11540  Biso   1.000  H
  C453     1.0000 0.84210  0.91420  0.33040  Biso   1.000  C
  H678     1.0000 0.85420  0.93030  0.36710  Biso   1.000  H
  C454     1.0000 0.88090  0.81390  0.37060  Biso   1.000  C
  H679     1.0000 0.86110  0.79310  0.35130  Biso   1.000  H
  H680     1.0000 0.90580  0.79860  0.38810  Biso   1.000  H
  H681     1.0000 0.86590  0.82950  0.40420  Biso   1.000  H
  C455     1.0000 0.94540  0.02080  0.10430  Biso   1.000  C
  C456     1.0000 0.98130  0.03520  0.14810  Biso   1.000  C
  H682     1.0000 0.00490  0.04770  0.12350  Biso   1.000  H
  H683     1.0000 0.97010  0.05690  0.17740  Biso   1.000  H
  H684     1.0000 0.99200  0.01030  0.17180  Biso   1.000  H
  C457     1.0000 0.05250  0.84470  0.00340  Biso   1.000  C
  C458     1.0000 0.09820  0.80730  0.06820  Biso   1.000  C
  H685     1.0000 0.12260  0.78900  0.08330  Biso   1.000  H
  C459     1.0000 0.07200  0.83340  0.10780  Biso   1.000  C
  C460     1.0000 0.88220  0.02270  0.04610  Biso   1.000  C
  C461     1.0000 0.09540  0.79960  0.21040  Biso   1.000  C
  H686     1.0000 0.07490  0.77560  0.20700  Biso   1.000  H
  H687     1.0000 0.12260  0.79170  0.19020  Biso   1.000  H
  H688     1.0000 0.10060  0.80610  0.25480  Biso   1.000  H
  C462     1.0000 0.81650  0.06920  0.05320  Biso   1.000  C
  H689     1.0000 0.83440  0.09320  0.06790  Biso   1.000  H
  H690     1.0000 0.79190  0.08040  0.02950  Biso   1.000  H
  H691     1.0000 0.80600  0.05260  0.08930  Biso   1.000  H
  C463     1.0000 0.11080  0.87530  0.18570  Biso   1.000  C
  H692     1.0000 0.10080  0.90230  0.16670  Biso   1.000  H
  H693     1.0000 0.11620  0.87990  0.23060  Biso   1.000  H
  H694     1.0000 0.13760  0.86610  0.16530  Biso   1.000  H
  C464     1.0000 0.11140  0.79650  0.94960  Biso   1.000  C
  H695     1.0000 0.13710  0.81390  0.94080  Biso   1.000  H
  H696     1.0000 0.12000  0.76670  0.95850  Biso   1.000  H
  H697     1.0000 0.09220  0.79700  0.91300  Biso   1.000  H
  C465     1.0000 0.82520  0.86260  0.25950  Biso   1.000  C
  H698     1.0000 0.82380  0.83630  0.23240  Biso   1.000  H
  C466     1.0000 0.86050  0.87190  0.29870  Biso   1.000  C
  C467     1.0000 0.80140  0.91900  0.30350  Biso   1.000  C
  C468     1.0000 0.94550  0.98470  0.06320  Biso   1.000  C
  C469     1.0000 0.07620  0.84030  0.17740  Biso   1.000  C
  C470     1.0000 0.03240  0.86370  0.94570  Biso   1.000  C
  H699     1.0000 0.04360  0.89290  0.93920  Biso   1.000  H
  H700     1.0000 0.03950  0.84570  0.90930  Biso   1.000  H
  H701     1.0000 0.00100  0.86480  0.95100  Biso   1.000  H
  C471     1.0000 0.81570  0.00370  0.98610  Biso   1.000  C
  H702     1.0000 0.83310  0.98600  0.95750  Biso   1.000  H
  H703     1.0000 0.80550  0.98570  0.02110  Biso   1.000  H
  H704     1.0000 0.79080  0.01550  0.96350  Biso   1.000  H
  C472     1.0000 0.86060  0.06740  0.95880  Biso   1.000  C
  H705     1.0000 0.87660  0.09190  0.97610  Biso   1.000  H
  H706     1.0000 0.88000  0.04980  0.93290  Biso   1.000  H
  H707     1.0000 0.83670  0.07800  0.93290  Biso   1.000  H
  C473     1.0000 0.84300  0.04030  0.01150  Biso   1.000  C
  C474     1.0000 0.90670  0.98590  0.02850  Biso   1.000  C
  H708     1.0000 0.89930  0.96580  0.99330  Biso   1.000  H
  C475     1.0000 0.98280  0.95320  0.05580  Biso   1.000  C
  H709     1.0000 0.00480  0.96580  0.02830  Biso   1.000  H
  H710     1.0000 0.99550  0.94720  0.09710  Biso   1.000  H
  H711     1.0000 0.97220  0.92620  0.03740  Biso   1.000  H
  C476     1.0000 0.91090  0.82320  0.26940  Biso   1.000  C
  H712     1.0000 0.88630  0.81490  0.24310  Biso   1.000  H
  H713     1.0000 0.93060  0.84140  0.24500  Biso   1.000  H
  H714     1.0000 0.92610  0.79720  0.28350  Biso   1.000  H
  C477     1.0000 0.89620  0.84600  0.32100  Biso   1.000  C
  C478     1.0000 0.74620  0.88860  0.22600  Biso   1.000  C
  H715     1.0000 0.72550  0.87130  0.25010  Biso   1.000  H
  H716     1.0000 0.73490  0.91800  0.22080  Biso   1.000  H
  H717     1.0000 0.75050  0.87550  0.18460  Biso   1.000  H
  C479     1.0000 0.79290  0.89050  0.26390  Biso   1.000  C
  C480     1.0000 0.92710  0.87980  0.36210  Biso   1.000  C
  H718     1.0000 0.95490  0.88340  0.34070  Biso   1.000  H
  H719     1.0000 0.91270  0.90780  0.36550  Biso   1.000  H
  H720     1.0000 0.93200  0.86800  0.40420  Biso   1.000  H
  Mo46     1.0000 0.35432  0.42712  0.72535  Biso   1.000  Mo
  Mo47     1.0000 0.52832  0.28247  0.55358  Biso   1.000  Mo
  Mo48     1.0000 0.38851  0.47505  0.63317  Biso   1.000  Mo
  Cu31     1.0000 0.31586  0.36611  0.53884  Biso   1.000  Cu
  Cu32     1.0000 0.39474  0.33474  0.57535  Biso   1.000  Cu
  I31      1.0000 0.32068  0.29248  0.60035  Biso   1.000  I
  I32      1.0000 0.38446  0.36855  0.46237  Biso   1.000  I
  P121     1.0000 0.33305  0.41813  0.61293  Biso   1.000  P
  P122     1.0000 0.45229  0.29132  0.57475  Biso   1.000  P
  P123     1.0000 0.39743  0.39554  0.63921  Biso   1.000  P
  P124     1.0000 0.37612  0.50247  0.73890  Biso   1.000  P
  P125     1.0000 0.52000  0.23250  0.46620  Biso   1.000  P
  P126     1.0000 0.46720  0.27810  0.46940  Biso   1.000  P
  P127     1.0000 0.42926  0.45832  0.73310  Biso   1.000  P
  P128     1.0000 0.31690  0.49300  0.68250  Biso   1.000  P
  S46      1.0000 0.48819  0.25802  0.64970  Biso   1.000  S
  S47      1.0000 0.42980  0.43750  0.70870  Biso   1.000  S
  S48      1.0000 0.31304  0.47550  0.66150  Biso   1.000  S
  C481     1.0000 0.53410  0.35420  0.70770  Biso   1.000  C
  H721     1.0000 0.51360  0.33010  0.70680  Biso   1.000  H
  H722     1.0000 0.53950  0.36270  0.75130  Biso   1.000  H
  H723     1.0000 0.52200  0.37870  0.68460  Biso   1.000  H
  C482     1.0000 0.58850  0.31450  0.50460  Biso   1.000  C
  C483     1.0000 0.54290  0.35470  0.56720  Biso   1.000  C
  H724     1.0000 0.52130  0.37670  0.58090  Biso   1.000  H
  C484     1.0000 0.40570  0.54340  0.59510  Biso   1.000  C
  H725     1.0000 0.39760  0.57140  0.61540  Biso   1.000  H
  C485     1.0000 0.34210  0.41420  0.83040  Biso   1.000  C
  H726     1.0000 0.35420  0.43030  0.86710  Biso   1.000  H
  C486     1.0000 0.38090  0.31390  0.87060  Biso   1.000  C
  H727     1.0000 0.36110  0.29310  0.85130  Biso   1.000  H
  H728     1.0000 0.40580  0.29860  0.88810  Biso   1.000  H
  H729     1.0000 0.36590  0.32950  0.90420  Biso   1.000  H
  C487     1.0000 0.44540  0.52080  0.60430  Biso   1.000  C
  C488     1.0000 0.48130  0.53520  0.64810  Biso   1.000  C
  H730     1.0000 0.50490  0.54770  0.62350  Biso   1.000  H
  H731     1.0000 0.47010  0.55690  0.67740  Biso   1.000  H
  H732     1.0000 0.49200  0.51030  0.67180  Biso   1.000  H
  C489     1.0000 0.55250  0.34470  0.50340  Biso   1.000  C
  C490     1.0000 0.59820  0.30730  0.56820  Biso   1.000  C
  H733     1.0000 0.62260  0.28900  0.58330  Biso   1.000  H
  C491     1.0000 0.57200  0.33340  0.60780  Biso   1.000  C
  C492     1.0000 0.38220  0.52270  0.54610  Biso   1.000  C
  C493     1.0000 0.59540  0.29960  0.71040  Biso   1.000  C
  H734     1.0000 0.57490  0.27560  0.70700  Biso   1.000  H
  H735     1.0000 0.62260  0.29170  0.69020  Biso   1.000  H
  H736     1.0000 0.60060  0.30610  0.75480  Biso   1.000  H
  C494     1.0000 0.31650  0.56920  0.55320  Biso   1.000  C
  H737     1.0000 0.33440  0.59320  0.56790  Biso   1.000  H
  H738     1.0000 0.29190  0.58040  0.52950  Biso   1.000  H
  H739     1.0000 0.30600  0.55260  0.58930  Biso   1.000  H
  C495     1.0000 0.61080  0.37530  0.68570  Biso   1.000  C
  H740     1.0000 0.60080  0.40230  0.66670  Biso   1.000  H
  H741     1.0000 0.61620  0.37990  0.73060  Biso   1.000  H
  H742     1.0000 0.63760  0.36610  0.66530  Biso   1.000  H
  C496     1.0000 0.61140  0.29650  0.44960  Biso   1.000  C
  H743     1.0000 0.63710  0.31390  0.44080  Biso   1.000  H
  H744     1.0000 0.62000  0.26670  0.45850  Biso   1.000  H
  H745     1.0000 0.59220  0.29700  0.41300  Biso   1.000  H
  C497     1.0000 0.32520  0.36260  0.75950  Biso   1.000  C
  H746     1.0000 0.32380  0.33630  0.73240  Biso   1.000  H
  C498     1.0000 0.36050  0.37190  0.79870  Biso   1.000  C
  C499     1.0000 0.30140  0.41900  0.80350  Biso   1.000  C
  C500     1.0000 0.44550  0.48470  0.56320  Biso   1.000  C
  C501     1.0000 0.57620  0.34030  0.67740  Biso   1.000  C
  C502     1.0000 0.53240  0.36370  0.44570  Biso   1.000  C
  H747     1.0000 0.54360  0.39290  0.43920  Biso   1.000  H
  H748     1.0000 0.53950  0.34570  0.40930  Biso   1.000  H
  H749     1.0000 0.50100  0.36480  0.45100  Biso   1.000  H
  C503     1.0000 0.31570  0.50370  0.48610  Biso   1.000  C
  H750     1.0000 0.33310  0.48600  0.45750  Biso   1.000  H
  H751     1.0000 0.30550  0.48570  0.52110  Biso   1.000  H
  H752     1.0000 0.29080  0.51550  0.46350  Biso   1.000  H
  C504     1.0000 0.36060  0.56740  0.45880  Biso   1.000  C
  H753     1.0000 0.37660  0.59190  0.47610  Biso   1.000  H
  H754     1.0000 0.38000  0.54980  0.43290  Biso   1.000  H
  H755     1.0000 0.33670  0.57800  0.43290  Biso   1.000  H
  C505     1.0000 0.34300  0.54030  0.51150  Biso   1.000  C
  C506     1.0000 0.40670  0.48590  0.52850  Biso   1.000  C
  H756     1.0000 0.39930  0.46580  0.49330  Biso   1.000  H
  C507     1.0000 0.48280  0.45320  0.55580  Biso   1.000  C
  H757     1.0000 0.50480  0.46580  0.52830  Biso   1.000  H
  H758     1.0000 0.49550  0.44720  0.59710  Biso   1.000  H
  H759     1.0000 0.47220  0.42620  0.53740  Biso   1.000  H
  C508     1.0000 0.41090  0.32320  0.76940  Biso   1.000  C
  H760     1.0000 0.38630  0.31490  0.74310  Biso   1.000  H
  H761     1.0000 0.43060  0.34140  0.74500  Biso   1.000  H
  H762     1.0000 0.42610  0.29720  0.78350  Biso   1.000  H
  C509     1.0000 0.39620  0.34600  0.82100  Biso   1.000  C
  C510     1.0000 0.24620  0.38860  0.72600  Biso   1.000  C
  H763     1.0000 0.22550  0.37130  0.75010  Biso   1.000  H
  H764     1.0000 0.23490  0.41800  0.72080  Biso   1.000  H
  H765     1.0000 0.25050  0.37550  0.68460  Biso   1.000  H
  C511     1.0000 0.29290  0.39050  0.76390  Biso   1.000  C
  C512     1.0000 0.42710  0.37980  0.86210  Biso   1.000  C
  H766     1.0000 0.45490  0.38340  0.84070  Biso   1.000  H
  H767     1.0000 0.41270  0.40780  0.86550  Biso   1.000  H
  H768     1.0000 0.43200  0.36800  0.90420  Biso   1.000  H
