data_image0
_cell_length_a       13.1603
_cell_length_b       33.4072
_cell_length_c       42.253
_cell_angle_alpha    90
_cell_angle_beta     98.111
_cell_angle_gamma    90

_symmetry_space_group_name_H-M    "P 1"
_symmetry_int_tables_number       1

loop_
  _symmetry_equiv_pos_as_xyz
  'x, y, z'

loop_
  _atom_site_label
  _atom_site_occupancy
  _atom_site_fract_x
  _atom_site_fract_y
  _atom_site_fract_z
  _atom_site_thermal_displace_type
  _atom_site_B_iso_or_equiv
  _atom_site_type_symbol
  Er1      1.0000 0.60319  0.68083  0.11831  Biso   1.000  Er
  Er2      1.0000 0.76954  0.56346  0.13381  Biso   1.000  Er
  Er3      1.0000 0.84722  0.43120  0.10492  Biso   1.000  Er
  Er4      1.0000 0.97964  0.30415  0.13397  Biso   1.000  Er
  O1       1.0000 0.71100  0.59455  0.17828  Biso   1.000  O
  O2       1.0000 0.70990  0.65666  0.15914  Biso   1.000  O
  O3       1.0000 0.50700  0.69526  0.34791  Biso   1.000  O
  O4       1.0000 0.54190  0.75628  0.33072  Biso   1.000  O
  O5       1.0000 0.77780  0.61107  0.09709  Biso   1.000  O
  O6       1.0000 0.70080  0.66726  0.08073  Biso   1.000  O
  O7       1.0000 0.05280  0.60818  0.92202  Biso   1.000  O
  O8       1.0000 0.97130  0.66355  0.90708  Biso   1.000  O
  O9       1.0000 0.91820  0.54131  0.11830  Biso   1.000  O
  O10      1.0000 0.95400  0.48200  0.10079  Biso   1.000  O
  O11      1.0000 0.59250  0.55933  0.12524  Biso   1.000  O
  O12      1.0000 0.53610  0.62104  0.11265  Biso   1.000  O
  O13      1.0000 0.78260  0.51369  0.16922  Biso   1.000  O
  O14      1.0000 0.79590  0.45261  0.15095  Biso   1.000  O
  O15      1.0000 0.01840  0.41671  0.35535  Biso   1.000  O
  O16      1.0000 0.99030  0.35590  0.33464  Biso   1.000  O
  O17      1.0000 0.71500  0.52510  0.08930  Biso   1.000  O
  O18      1.0000 0.69140  0.45940  0.08908  Biso   1.000  O
  O19      1.0000 0.43700  0.75873  0.09644  Biso   1.000  O
  O20      1.0000 0.49100  0.70377  0.07659  Biso   1.000  O
  O21      1.0000 0.75210  0.37784  0.11388  Biso   1.000  O
  O22      1.0000 0.81550  0.31893  0.13065  Biso   1.000  O
  O23      1.0000 0.14930  0.29607  0.14530  Biso   1.000  O
  O24      1.0000 0.19100  0.23713  0.12708  Biso   1.000  O
  S1       1.0000 0.65650  0.61046  0.24060  Biso   1.000  S
  S2       1.0000 0.58670  0.64723  0.30205  Biso   1.000  S
  S3       1.0000 0.87840  0.59321  0.04296  Biso   1.000  S
  S4       1.0000 0.97340  0.59172  0.97924  Biso   1.000  S
  S5       1.0000 0.09916  0.58215  0.11019  Biso   1.000  S
  S6       1.0000 0.32579  0.61043  0.11186  Biso   1.000  S
  S7       1.0000 0.85030  0.49940  0.23583  Biso   1.000  S
  S8       1.0000 0.92870  0.46500  0.30351  Biso   1.000  S
  S9       1.0000 0.54800  0.45130  0.03410  Biso   1.000  S
  S10      1.0000 0.36310  0.70190  0.01620  Biso   1.000  S
  S11      1.0000 0.63183  0.27670  0.13305  Biso   1.000  S
  S12      1.0000 0.40838  0.24656  0.13604  Biso   1.000  S
  C1       1.0000 0.70580  0.63160  0.18170  Biso   1.000  C
  C2       1.0000 0.54440  0.71880  0.32925  Biso   1.000  C
  C3       1.0000 0.68840  0.64740  0.21322  Biso   1.000  C
  C4       1.0000 0.69010  0.68720  0.22340  Biso   1.000  C
  C5       1.0000 0.65430  0.68650  0.25542  Biso   1.000  C
  C6       1.0000 0.63460  0.64890  0.26610  Biso   1.000  C
  C7       1.0000 0.59060  0.69970  0.30278  Biso   1.000  C
  C8       1.0000 0.62820  0.71980  0.27720  Biso   1.000  C
  C9       1.0000 0.71510  0.71660  0.21011  Biso   1.000  C
  H1       1.0000 0.73450  0.73930  0.19980  Biso   1.000  H
  C10      1.0000 0.63560  0.75470  0.27300  Biso   1.000  C
  H2       1.0000 0.64140  0.78210  0.26960  Biso   1.000  H
  C11      1.0000 0.75700  0.63820  0.07686  Biso   1.000  C
  C12      1.0000 0.98990  0.63410  0.92560  Biso   1.000  C
  C13      1.0000 0.79990  0.63440  0.04658  Biso   1.000  C
  C14      1.0000 0.78890  0.65900  0.02020  Biso   1.000  C
  C15      1.0000 0.84760  0.64400  0.99610  Biso   1.000  C
  C16      1.0000 0.89920  0.60920  0.00592  Biso   1.000  C
  C17      1.0000 0.93780  0.63250  0.95406  Biso   1.000  C
  C18      1.0000 0.87000  0.65720  0.96560  Biso   1.000  C
  C19      1.0000 0.71860  0.69430  0.01570  Biso   1.000  C
  H3       1.0000 0.65300  0.68710  0.02140  Biso   1.000  H
  H4       1.0000 0.71040  0.70260  0.99370  Biso   1.000  H
  H5       1.0000 0.74730  0.71590  0.02900  Biso   1.000  H
  C20      1.0000 0.82870  0.69480  0.94920  Biso   1.000  C
  H6       1.0000 0.84470  0.69510  0.92770  Biso   1.000  H
  H7       1.0000 0.85930  0.71770  0.96060  Biso   1.000  H
  H8       1.0000 0.75560  0.69580  0.94870  Biso   1.000  H
  C21      1.0000 0.97670  0.51650  0.10904  Biso   1.000  C
  C22      1.0000 0.52180  0.58400  0.11723  Biso   1.000  C
  C23      1.0000 0.08340  0.53070  0.10810  Biso   1.000  C
  C24      1.0000 0.17420  0.50990  0.10850  Biso   1.000  C
  C25      1.0000 0.25980  0.53690  0.11037  Biso   1.000  C
  C26      1.0000 0.22800  0.57640  0.11020  Biso   1.000  C
  C27      1.0000 0.41470  0.57100  0.11380  Biso   1.000  C
  C28      1.0000 0.36940  0.53380  0.11208  Biso   1.000  C
  C29      1.0000 0.18290  0.46510  0.10830  Biso   1.000  C
  H9       1.0000 0.11650  0.45350  0.10880  Biso   1.000  H
  H10      1.0000 0.22890  0.45660  0.12680  Biso   1.000  H
  H11      1.0000 0.20900  0.45670  0.08930  Biso   1.000  H
  C30      1.0000 0.42740  0.49490  0.11230  Biso   1.000  C
  H12      1.0000 0.40270  0.47990  0.09340  Biso   1.000  H
  H13      1.0000 0.41710  0.47960  0.13090  Biso   1.000  H
  H14      1.0000 0.49920  0.50030  0.11280  Biso   1.000  H
  C31      1.0000 0.79470  0.47670  0.17284  Biso   1.000  C
  C32      1.0000 0.98190  0.39330  0.33350  Biso   1.000  C
  C33      1.0000 0.81290  0.46120  0.20654  Biso   1.000  C
  C34      1.0000 0.80970  0.42380  0.21860  Biso   1.000  C
  C35      1.0000 0.85580  0.41620  0.24920  Biso   1.000  C
  C36      1.0000 0.87210  0.45650  0.26200  Biso   1.000  C
  C37      1.0000 0.92750  0.41090  0.30300  Biso   1.000  C
  C38      1.0000 0.87350  0.39320  0.27660  Biso   1.000  C
  C39      1.0000 0.78500  0.38880  0.19970  Biso   1.000  C
  C40      1.0000 0.87100  0.35010  0.27160  Biso   1.000  C
  C41      1.0000 0.67270  0.49390  0.07880  Biso   1.000  C
  C42      1.0000 0.60140  0.49590  0.04770  Biso   1.000  C
  C43      1.0000 0.57200  0.52940  0.02890  Biso   1.000  C
  C44      1.0000 0.49020  0.47820  0.00120  Biso   1.000  C
  C45      1.0000 0.59700  0.57310  0.03230  Biso   1.000  C
  C46      1.0000 0.43380  0.73420  0.07470  Biso   1.000  C
  C47      1.0000 0.36290  0.73900  0.04470  Biso   1.000  C
  C48      1.0000 0.29400  0.77060  0.03680  Biso   1.000  C
  C49      1.0000 0.26930  0.73120  0.99390  Biso   1.000  C
  C50      1.0000 0.26600  0.80840  0.05400  Biso   1.000  C
  C51      1.0000 0.74310  0.34290  0.12470  Biso   1.000  C
  C52      1.0000 0.21230  0.27250  0.13630  Biso   1.000  C
  C53      1.0000 0.64010  0.32890  0.12930  Biso   1.000  C
  C54      1.0000 0.55000  0.34790  0.13060  Biso   1.000  C
  C55      1.0000 0.47010  0.32000  0.13370  Biso   1.000  C
  C56      1.0000 0.50400  0.28090  0.13500  Biso   1.000  C
  C57      1.0000 0.31880  0.28430  0.13680  Biso   1.000  C
  C58      1.0000 0.36090  0.32290  0.13590  Biso   1.000  C
  C59      1.0000 0.53680  0.39260  0.12950  Biso   1.000  C
  H15      1.0000 0.60160  0.40520  0.13650  Biso   1.000  H
  H16      1.0000 0.48840  0.40030  0.14340  Biso   1.000  H
  H17      1.0000 0.51190  0.40070  0.10800  Biso   1.000  H
  C60      1.0000 0.30010  0.36070  0.13590  Biso   1.000  C
  H18      1.0000 0.22830  0.35470  0.13080  Biso   1.000  H
  H19      1.0000 0.32000  0.37870  0.12020  Biso   1.000  H
  H20      1.0000 0.31300  0.37290  0.15660  Biso   1.000  H
  S13      1.0000 0.29180  0.78600  0.04680  Biso   1.000  S
  C61      1.0000 0.34400  0.71650  0.01740  Biso   1.000  C
  C62      1.0000 0.39300  0.67810  0.01070  Biso   1.000  C
  S14      1.0000 0.59090  0.54570  0.03260  Biso   1.000  S
  C63      1.0000 0.54600  0.46650  0.03000  Biso   1.000  C
  C64      1.0000 0.54600  0.42250  0.03760  Biso   1.000  C
  S15      1.0000 0.81530  0.40710  0.20621  Biso   1.000  S
  S16      1.0000 0.89560  0.37240  0.27319  Biso   1.000  S
  C65      1.0000 0.83200  0.47890  0.23560  Biso   1.000  C
  C66      1.0000 0.90700  0.44920  0.29350  Biso   1.000  C
  C67      1.0000 0.85000  0.52090  0.23900  Biso   1.000  C
  C68      1.0000 0.93100  0.48550  0.31150  Biso   1.000  C
  Er5      1.0000 0.10319  0.18083  0.11831  Biso   1.000  Er
  Er6      1.0000 0.26954  0.06346  0.13381  Biso   1.000  Er
  Er7      1.0000 0.34722  0.93120  0.10492  Biso   1.000  Er
  Er8      1.0000 0.47964  0.80415  0.13397  Biso   1.000  Er
  O25      1.0000 0.21100  0.09455  0.17828  Biso   1.000  O
  O26      1.0000 0.20990  0.15666  0.15914  Biso   1.000  O
  O27      1.0000 0.00700  0.19526  0.34791  Biso   1.000  O
  O28      1.0000 0.04190  0.25628  0.33072  Biso   1.000  O
  O29      1.0000 0.27780  0.11107  0.09709  Biso   1.000  O
  O30      1.0000 0.20080  0.16726  0.08073  Biso   1.000  O
  O31      1.0000 0.55280  0.10818  0.92202  Biso   1.000  O
  O32      1.0000 0.47130  0.16355  0.90708  Biso   1.000  O
  O33      1.0000 0.41820  0.04131  0.11830  Biso   1.000  O
  O34      1.0000 0.45400  0.98200  0.10079  Biso   1.000  O
  O35      1.0000 0.09250  0.05933  0.12524  Biso   1.000  O
  O36      1.0000 0.03610  0.12104  0.11265  Biso   1.000  O
  O37      1.0000 0.28260  0.01369  0.16922  Biso   1.000  O
  O38      1.0000 0.29590  0.95261  0.15095  Biso   1.000  O
  O39      1.0000 0.51840  0.91671  0.35535  Biso   1.000  O
  O40      1.0000 0.49030  0.85590  0.33464  Biso   1.000  O
  O41      1.0000 0.21500  0.02510  0.08930  Biso   1.000  O
  O42      1.0000 0.19140  0.95940  0.08908  Biso   1.000  O
  O43      1.0000 0.93700  0.25873  0.09644  Biso   1.000  O
  O44      1.0000 0.99100  0.20377  0.07659  Biso   1.000  O
  O45      1.0000 0.25210  0.87784  0.11388  Biso   1.000  O
  O46      1.0000 0.31550  0.81893  0.13065  Biso   1.000  O
  O47      1.0000 0.64930  0.79607  0.14530  Biso   1.000  O
  O48      1.0000 0.69100  0.73713  0.12708  Biso   1.000  O
  S17      1.0000 0.15650  0.11046  0.24060  Biso   1.000  S
  S18      1.0000 0.08670  0.14723  0.30205  Biso   1.000  S
  S19      1.0000 0.37840  0.09321  0.04296  Biso   1.000  S
  S20      1.0000 0.47340  0.09172  0.97924  Biso   1.000  S
  S21      1.0000 0.59916  0.08215  0.11019  Biso   1.000  S
  S22      1.0000 0.82579  0.11043  0.11186  Biso   1.000  S
  S23      1.0000 0.35030  0.99940  0.23583  Biso   1.000  S
  S24      1.0000 0.42870  0.96500  0.30351  Biso   1.000  S
  S25      1.0000 0.04800  0.95130  0.03410  Biso   1.000  S
  S26      1.0000 0.86310  0.20190  0.01620  Biso   1.000  S
  S27      1.0000 0.13183  0.77670  0.13305  Biso   1.000  S
  S28      1.0000 0.90838  0.74656  0.13604  Biso   1.000  S
  C69      1.0000 0.20580  0.13160  0.18170  Biso   1.000  C
  C70      1.0000 0.04440  0.21880  0.32925  Biso   1.000  C
  C71      1.0000 0.18840  0.14740  0.21322  Biso   1.000  C
  C72      1.0000 0.19010  0.18720  0.22340  Biso   1.000  C
  C73      1.0000 0.15430  0.18650  0.25542  Biso   1.000  C
  C74      1.0000 0.13460  0.14890  0.26610  Biso   1.000  C
  C75      1.0000 0.09060  0.19970  0.30278  Biso   1.000  C
  C76      1.0000 0.12820  0.21980  0.27720  Biso   1.000  C
  C77      1.0000 0.21510  0.21660  0.21011  Biso   1.000  C
  H21      1.0000 0.23450  0.23930  0.19980  Biso   1.000  H
  C78      1.0000 0.13560  0.25470  0.27300  Biso   1.000  C
  H22      1.0000 0.14140  0.28210  0.26960  Biso   1.000  H
  C79      1.0000 0.25700  0.13820  0.07686  Biso   1.000  C
  C80      1.0000 0.48990  0.13410  0.92560  Biso   1.000  C
  C81      1.0000 0.29990  0.13440  0.04658  Biso   1.000  C
  C82      1.0000 0.28890  0.15900  0.02020  Biso   1.000  C
  C83      1.0000 0.34760  0.14400  0.99610  Biso   1.000  C
  C84      1.0000 0.39920  0.10920  0.00592  Biso   1.000  C
  C85      1.0000 0.43780  0.13250  0.95406  Biso   1.000  C
  C86      1.0000 0.37000  0.15720  0.96560  Biso   1.000  C
  C87      1.0000 0.21860  0.19430  0.01570  Biso   1.000  C
  H23      1.0000 0.15300  0.18710  0.02140  Biso   1.000  H
  H24      1.0000 0.21040  0.20260  0.99370  Biso   1.000  H
  H25      1.0000 0.24730  0.21590  0.02900  Biso   1.000  H
  C88      1.0000 0.32870  0.19480  0.94920  Biso   1.000  C
  H26      1.0000 0.34470  0.19510  0.92770  Biso   1.000  H
  H27      1.0000 0.35930  0.21770  0.96060  Biso   1.000  H
  H28      1.0000 0.25560  0.19580  0.94870  Biso   1.000  H
  C89      1.0000 0.47670  0.01650  0.10904  Biso   1.000  C
  C90      1.0000 0.02180  0.08400  0.11723  Biso   1.000  C
  C91      1.0000 0.58340  0.03070  0.10810  Biso   1.000  C
  C92      1.0000 0.67420  0.00990  0.10850  Biso   1.000  C
  C93      1.0000 0.75980  0.03690  0.11037  Biso   1.000  C
  C94      1.0000 0.72800  0.07640  0.11020  Biso   1.000  C
  C95      1.0000 0.91470  0.07100  0.11380  Biso   1.000  C
  C96      1.0000 0.86940  0.03380  0.11208  Biso   1.000  C
  C97      1.0000 0.68290  0.96510  0.10830  Biso   1.000  C
  H29      1.0000 0.61650  0.95350  0.10880  Biso   1.000  H
  H30      1.0000 0.72890  0.95660  0.12680  Biso   1.000  H
  H31      1.0000 0.70900  0.95670  0.08930  Biso   1.000  H
  C98      1.0000 0.92740  0.99490  0.11230  Biso   1.000  C
  H32      1.0000 0.90270  0.97990  0.09340  Biso   1.000  H
  H33      1.0000 0.91710  0.97960  0.13090  Biso   1.000  H
  H34      1.0000 0.99920  0.00030  0.11280  Biso   1.000  H
  C99      1.0000 0.29470  0.97670  0.17284  Biso   1.000  C
  C100     1.0000 0.48190  0.89330  0.33350  Biso   1.000  C
  C101     1.0000 0.31290  0.96120  0.20654  Biso   1.000  C
  C102     1.0000 0.30970  0.92380  0.21860  Biso   1.000  C
  C103     1.0000 0.35580  0.91620  0.24920  Biso   1.000  C
  C104     1.0000 0.37210  0.95650  0.26200  Biso   1.000  C
  C105     1.0000 0.42750  0.91090  0.30300  Biso   1.000  C
  C106     1.0000 0.37350  0.89320  0.27660  Biso   1.000  C
  C107     1.0000 0.28500  0.88880  0.19970  Biso   1.000  C
  C108     1.0000 0.37100  0.85010  0.27160  Biso   1.000  C
  C109     1.0000 0.17270  0.99390  0.07880  Biso   1.000  C
  C110     1.0000 0.10140  0.99590  0.04770  Biso   1.000  C
  C111     1.0000 0.07200  0.02940  0.02890  Biso   1.000  C
  C112     1.0000 0.99020  0.97820  0.00120  Biso   1.000  C
  C113     1.0000 0.09700  0.07310  0.03230  Biso   1.000  C
  C114     1.0000 0.93380  0.23420  0.07470  Biso   1.000  C
  C115     1.0000 0.86290  0.23900  0.04470  Biso   1.000  C
  C116     1.0000 0.79400  0.27060  0.03680  Biso   1.000  C
  C117     1.0000 0.76930  0.23120  0.99390  Biso   1.000  C
  C118     1.0000 0.76600  0.30840  0.05400  Biso   1.000  C
  C119     1.0000 0.24310  0.84290  0.12470  Biso   1.000  C
  C120     1.0000 0.71230  0.77250  0.13630  Biso   1.000  C
  C121     1.0000 0.14010  0.82890  0.12930  Biso   1.000  C
  C122     1.0000 0.05000  0.84790  0.13060  Biso   1.000  C
  C123     1.0000 0.97010  0.82000  0.13370  Biso   1.000  C
  C124     1.0000 0.00400  0.78090  0.13500  Biso   1.000  C
  C125     1.0000 0.81880  0.78430  0.13680  Biso   1.000  C
  C126     1.0000 0.86090  0.82290  0.13590  Biso   1.000  C
  C127     1.0000 0.03680  0.89260  0.12950  Biso   1.000  C
  H35      1.0000 0.10160  0.90520  0.13650  Biso   1.000  H
  H36      1.0000 0.98840  0.90030  0.14340  Biso   1.000  H
  H37      1.0000 0.01190  0.90070  0.10800  Biso   1.000  H
  C128     1.0000 0.80010  0.86070  0.13590  Biso   1.000  C
  H38      1.0000 0.72830  0.85470  0.13080  Biso   1.000  H
  H39      1.0000 0.82000  0.87870  0.12020  Biso   1.000  H
  H40      1.0000 0.81300  0.87290  0.15660  Biso   1.000  H
  S29      1.0000 0.79180  0.28600  0.04680  Biso   1.000  S
  C129     1.0000 0.84400  0.21650  0.01740  Biso   1.000  C
  C130     1.0000 0.89300  0.17810  0.01070  Biso   1.000  C
  S30      1.0000 0.09090  0.04570  0.03260  Biso   1.000  S
  C131     1.0000 0.04600  0.96650  0.03000  Biso   1.000  C
  C132     1.0000 0.04600  0.92250  0.03760  Biso   1.000  C
  S31      1.0000 0.31530  0.90710  0.20621  Biso   1.000  S
  S32      1.0000 0.39560  0.87240  0.27319  Biso   1.000  S
  C133     1.0000 0.33200  0.97890  0.23560  Biso   1.000  C
  C134     1.0000 0.40700  0.94920  0.29350  Biso   1.000  C
  C135     1.0000 0.35000  0.02090  0.23900  Biso   1.000  C
  C136     1.0000 0.43100  0.98550  0.31150  Biso   1.000  C
  Er9      1.0000 0.39681  0.68083  0.38169  Biso   1.000  Er
  Er10     1.0000 0.23046  0.56346  0.36619  Biso   1.000  Er
  Er11     1.0000 0.15278  0.43120  0.39508  Biso   1.000  Er
  Er12     1.0000 0.02036  0.30415  0.36603  Biso   1.000  Er
  O49      1.0000 0.28900  0.59455  0.32172  Biso   1.000  O
  O50      1.0000 0.29010  0.65666  0.34086  Biso   1.000  O
  O51      1.0000 0.49300  0.69526  0.15209  Biso   1.000  O
  O52      1.0000 0.45810  0.75628  0.16928  Biso   1.000  O
  O53      1.0000 0.22220  0.61107  0.40291  Biso   1.000  O
  O54      1.0000 0.29920  0.66726  0.41927  Biso   1.000  O
  O55      1.0000 0.94720  0.60818  0.57798  Biso   1.000  O
  O56      1.0000 0.02870  0.66355  0.59292  Biso   1.000  O
  O57      1.0000 0.08180  0.54131  0.38170  Biso   1.000  O
  O58      1.0000 0.04600  0.48200  0.39921  Biso   1.000  O
  O59      1.0000 0.40750  0.55933  0.37476  Biso   1.000  O
  O60      1.0000 0.46390  0.62104  0.38735  Biso   1.000  O
  O61      1.0000 0.21740  0.51369  0.33078  Biso   1.000  O
  O62      1.0000 0.20410  0.45261  0.34905  Biso   1.000  O
  O63      1.0000 0.98160  0.41671  0.14465  Biso   1.000  O
  O64      1.0000 0.00970  0.35590  0.16536  Biso   1.000  O
  O65      1.0000 0.28500  0.52510  0.41070  Biso   1.000  O
  O66      1.0000 0.30860  0.45940  0.41092  Biso   1.000  O
  O67      1.0000 0.56300  0.75873  0.40356  Biso   1.000  O
  O68      1.0000 0.50900  0.70377  0.42341  Biso   1.000  O
  O69      1.0000 0.24790  0.37784  0.38612  Biso   1.000  O
  O70      1.0000 0.18450  0.31893  0.36935  Biso   1.000  O
  O71      1.0000 0.85070  0.29607  0.35470  Biso   1.000  O
  O72      1.0000 0.80900  0.23713  0.37292  Biso   1.000  O
  S33      1.0000 0.34350  0.61046  0.25940  Biso   1.000  S
  S34      1.0000 0.41330  0.64723  0.19795  Biso   1.000  S
  S35      1.0000 0.12160  0.59321  0.45704  Biso   1.000  S
  S36      1.0000 0.02660  0.59172  0.52076  Biso   1.000  S
  S37      1.0000 0.90084  0.58215  0.38981  Biso   1.000  S
  S38      1.0000 0.67421  0.61043  0.38814  Biso   1.000  S
  S39      1.0000 0.14970  0.49940  0.26417  Biso   1.000  S
  S40      1.0000 0.07130  0.46500  0.19649  Biso   1.000  S
  S41      1.0000 0.45200  0.45130  0.46590  Biso   1.000  S
  S42      1.0000 0.63690  0.70190  0.48380  Biso   1.000  S
  S43      1.0000 0.36817  0.27670  0.36695  Biso   1.000  S
  S44      1.0000 0.59162  0.24656  0.36396  Biso   1.000  S
  C137     1.0000 0.29420  0.63160  0.31830  Biso   1.000  C
  C138     1.0000 0.45560  0.71880  0.17075  Biso   1.000  C
  C139     1.0000 0.31160  0.64740  0.28678  Biso   1.000  C
  C140     1.0000 0.30990  0.68720  0.27660  Biso   1.000  C
  C141     1.0000 0.34570  0.68650  0.24458  Biso   1.000  C
  C142     1.0000 0.36540  0.64890  0.23390  Biso   1.000  C
  C143     1.0000 0.40940  0.69970  0.19722  Biso   1.000  C
  C144     1.0000 0.37180  0.71980  0.22280  Biso   1.000  C
  C145     1.0000 0.28490  0.71660  0.28989  Biso   1.000  C
  H41      1.0000 0.26550  0.73930  0.30020  Biso   1.000  H
  C146     1.0000 0.36440  0.75470  0.22700  Biso   1.000  C
  H42      1.0000 0.35860  0.78210  0.23040  Biso   1.000  H
  C147     1.0000 0.24300  0.63820  0.42314  Biso   1.000  C
  C148     1.0000 0.01010  0.63410  0.57440  Biso   1.000  C
  C149     1.0000 0.20010  0.63440  0.45342  Biso   1.000  C
  C150     1.0000 0.21110  0.65900  0.47980  Biso   1.000  C
  C151     1.0000 0.15240  0.64400  0.50390  Biso   1.000  C
  C152     1.0000 0.10080  0.60920  0.49408  Biso   1.000  C
  C153     1.0000 0.06220  0.63250  0.54594  Biso   1.000  C
  C154     1.0000 0.13000  0.65720  0.53440  Biso   1.000  C
  C155     1.0000 0.28140  0.69430  0.48430  Biso   1.000  C
  H43      1.0000 0.34700  0.68710  0.47860  Biso   1.000  H
  H44      1.0000 0.28960  0.70260  0.50630  Biso   1.000  H
  H45      1.0000 0.25270  0.71590  0.47100  Biso   1.000  H
  C156     1.0000 0.17130  0.69480  0.55080  Biso   1.000  C
  H46      1.0000 0.15530  0.69510  0.57230  Biso   1.000  H
  H47      1.0000 0.14070  0.71770  0.53940  Biso   1.000  H
  H48      1.0000 0.24440  0.69580  0.55130  Biso   1.000  H
  C157     1.0000 0.02330  0.51650  0.39096  Biso   1.000  C
  C158     1.0000 0.47820  0.58400  0.38277  Biso   1.000  C
  C159     1.0000 0.91660  0.53070  0.39190  Biso   1.000  C
  C160     1.0000 0.82580  0.50990  0.39150  Biso   1.000  C
  C161     1.0000 0.74020  0.53690  0.38963  Biso   1.000  C
  C162     1.0000 0.77200  0.57640  0.38980  Biso   1.000  C
  C163     1.0000 0.58530  0.57100  0.38620  Biso   1.000  C
  C164     1.0000 0.63060  0.53380  0.38792  Biso   1.000  C
  C165     1.0000 0.81710  0.46510  0.39170  Biso   1.000  C
  H49      1.0000 0.88350  0.45350  0.39120  Biso   1.000  H
  H50      1.0000 0.77110  0.45660  0.37320  Biso   1.000  H
  H51      1.0000 0.79100  0.45670  0.41070  Biso   1.000  H
  C166     1.0000 0.57260  0.49490  0.38770  Biso   1.000  C
  H52      1.0000 0.59730  0.47990  0.40660  Biso   1.000  H
  H53      1.0000 0.58290  0.47960  0.36910  Biso   1.000  H
  H54      1.0000 0.50080  0.50030  0.38720  Biso   1.000  H
  C167     1.0000 0.20530  0.47670  0.32716  Biso   1.000  C
  C168     1.0000 0.01810  0.39330  0.16650  Biso   1.000  C
  C169     1.0000 0.18710  0.46120  0.29346  Biso   1.000  C
  C170     1.0000 0.19030  0.42380  0.28140  Biso   1.000  C
  C171     1.0000 0.14420  0.41620  0.25080  Biso   1.000  C
  C172     1.0000 0.12790  0.45650  0.23800  Biso   1.000  C
  C173     1.0000 0.07250  0.41090  0.19700  Biso   1.000  C
  C174     1.0000 0.12650  0.39320  0.22340  Biso   1.000  C
  C175     1.0000 0.21500  0.38880  0.30030  Biso   1.000  C
  C176     1.0000 0.12900  0.35010  0.22840  Biso   1.000  C
  C177     1.0000 0.32730  0.49390  0.42120  Biso   1.000  C
  C178     1.0000 0.39860  0.49590  0.45230  Biso   1.000  C
  C179     1.0000 0.42800  0.52940  0.47110  Biso   1.000  C
  C180     1.0000 0.50980  0.47820  0.49880  Biso   1.000  C
  C181     1.0000 0.40300  0.57310  0.46770  Biso   1.000  C
  C182     1.0000 0.56620  0.73420  0.42530  Biso   1.000  C
  C183     1.0000 0.63710  0.73900  0.45530  Biso   1.000  C
  C184     1.0000 0.70600  0.77060  0.46320  Biso   1.000  C
  C185     1.0000 0.73070  0.73120  0.50610  Biso   1.000  C
  C186     1.0000 0.73400  0.80840  0.44600  Biso   1.000  C
  C187     1.0000 0.25690  0.34290  0.37530  Biso   1.000  C
  C188     1.0000 0.78770  0.27250  0.36370  Biso   1.000  C
  C189     1.0000 0.35990  0.32890  0.37070  Biso   1.000  C
  C190     1.0000 0.45000  0.34790  0.36940  Biso   1.000  C
  C191     1.0000 0.52990  0.32000  0.36630  Biso   1.000  C
  C192     1.0000 0.49600  0.28090  0.36500  Biso   1.000  C
  C193     1.0000 0.68120  0.28430  0.36320  Biso   1.000  C
  C194     1.0000 0.63910  0.32290  0.36410  Biso   1.000  C
  C195     1.0000 0.46320  0.39260  0.37050  Biso   1.000  C
  H55      1.0000 0.39840  0.40520  0.36350  Biso   1.000  H
  H56      1.0000 0.51160  0.40030  0.35660  Biso   1.000  H
  H57      1.0000 0.48810  0.40070  0.39200  Biso   1.000  H
  C196     1.0000 0.69990  0.36070  0.36410  Biso   1.000  C
  H58      1.0000 0.77170  0.35470  0.36920  Biso   1.000  H
  H59      1.0000 0.68000  0.37870  0.37980  Biso   1.000  H
  H60      1.0000 0.68700  0.37290  0.34340  Biso   1.000  H
  S45      1.0000 0.70820  0.78600  0.45320  Biso   1.000  S
  C197     1.0000 0.65600  0.71650  0.48260  Biso   1.000  C
  C198     1.0000 0.60700  0.67810  0.48930  Biso   1.000  C
  S46      1.0000 0.40910  0.54570  0.46740  Biso   1.000  S
  C199     1.0000 0.45400  0.46650  0.47000  Biso   1.000  C
  C200     1.0000 0.45400  0.42250  0.46240  Biso   1.000  C
  S47      1.0000 0.18470  0.40710  0.29379  Biso   1.000  S
  S48      1.0000 0.10440  0.37240  0.22681  Biso   1.000  S
  C201     1.0000 0.16800  0.47890  0.26440  Biso   1.000  C
  C202     1.0000 0.09300  0.44920  0.20650  Biso   1.000  C
  C203     1.0000 0.15000  0.52090  0.26100  Biso   1.000  C
  C204     1.0000 0.06900  0.48550  0.18850  Biso   1.000  C
  Er13     1.0000 0.89681  0.18083  0.38169  Biso   1.000  Er
  Er14     1.0000 0.73046  0.06346  0.36619  Biso   1.000  Er
  Er15     1.0000 0.65278  0.93120  0.39508  Biso   1.000  Er
  Er16     1.0000 0.52036  0.80415  0.36603  Biso   1.000  Er
  O73      1.0000 0.78900  0.09455  0.32172  Biso   1.000  O
  O74      1.0000 0.79010  0.15666  0.34086  Biso   1.000  O
  O75      1.0000 0.99300  0.19526  0.15209  Biso   1.000  O
  O76      1.0000 0.95810  0.25628  0.16928  Biso   1.000  O
  O77      1.0000 0.72220  0.11107  0.40291  Biso   1.000  O
  O78      1.0000 0.79920  0.16726  0.41927  Biso   1.000  O
  O79      1.0000 0.44720  0.10818  0.57798  Biso   1.000  O
  O80      1.0000 0.52870  0.16355  0.59292  Biso   1.000  O
  O81      1.0000 0.58180  0.04131  0.38170  Biso   1.000  O
  O82      1.0000 0.54600  0.98200  0.39921  Biso   1.000  O
  O83      1.0000 0.90750  0.05933  0.37476  Biso   1.000  O
  O84      1.0000 0.96390  0.12104  0.38735  Biso   1.000  O
  O85      1.0000 0.71740  0.01369  0.33078  Biso   1.000  O
  O86      1.0000 0.70410  0.95261  0.34905  Biso   1.000  O
  O87      1.0000 0.48160  0.91671  0.14465  Biso   1.000  O
  O88      1.0000 0.50970  0.85590  0.16536  Biso   1.000  O
  O89      1.0000 0.78500  0.02510  0.41070  Biso   1.000  O
  O90      1.0000 0.80860  0.95940  0.41092  Biso   1.000  O
  O91      1.0000 0.06300  0.25873  0.40356  Biso   1.000  O
  O92      1.0000 0.00900  0.20377  0.42341  Biso   1.000  O
  O93      1.0000 0.74790  0.87784  0.38612  Biso   1.000  O
  O94      1.0000 0.68450  0.81893  0.36935  Biso   1.000  O
  O95      1.0000 0.35070  0.79607  0.35470  Biso   1.000  O
  O96      1.0000 0.30900  0.73713  0.37292  Biso   1.000  O
  S49      1.0000 0.84350  0.11046  0.25940  Biso   1.000  S
  S50      1.0000 0.91330  0.14723  0.19795  Biso   1.000  S
  S51      1.0000 0.62160  0.09321  0.45704  Biso   1.000  S
  S52      1.0000 0.52660  0.09172  0.52076  Biso   1.000  S
  S53      1.0000 0.40084  0.08215  0.38981  Biso   1.000  S
  S54      1.0000 0.17421  0.11043  0.38814  Biso   1.000  S
  S55      1.0000 0.64970  0.99940  0.26417  Biso   1.000  S
  S56      1.0000 0.57130  0.96500  0.19649  Biso   1.000  S
  S57      1.0000 0.95200  0.95130  0.46590  Biso   1.000  S
  S58      1.0000 0.13690  0.20190  0.48380  Biso   1.000  S
  S59      1.0000 0.86817  0.77670  0.36695  Biso   1.000  S
  S60      1.0000 0.09162  0.74656  0.36396  Biso   1.000  S
  C205     1.0000 0.79420  0.13160  0.31830  Biso   1.000  C
  C206     1.0000 0.95560  0.21880  0.17075  Biso   1.000  C
  C207     1.0000 0.81160  0.14740  0.28678  Biso   1.000  C
  C208     1.0000 0.80990  0.18720  0.27660  Biso   1.000  C
  C209     1.0000 0.84570  0.18650  0.24458  Biso   1.000  C
  C210     1.0000 0.86540  0.14890  0.23390  Biso   1.000  C
  C211     1.0000 0.90940  0.19970  0.19722  Biso   1.000  C
  C212     1.0000 0.87180  0.21980  0.22280  Biso   1.000  C
  C213     1.0000 0.78490  0.21660  0.28989  Biso   1.000  C
  H61      1.0000 0.76550  0.23930  0.30020  Biso   1.000  H
  C214     1.0000 0.86440  0.25470  0.22700  Biso   1.000  C
  H62      1.0000 0.85860  0.28210  0.23040  Biso   1.000  H
  C215     1.0000 0.74300  0.13820  0.42314  Biso   1.000  C
  C216     1.0000 0.51010  0.13410  0.57440  Biso   1.000  C
  C217     1.0000 0.70010  0.13440  0.45342  Biso   1.000  C
  C218     1.0000 0.71110  0.15900  0.47980  Biso   1.000  C
  C219     1.0000 0.65240  0.14400  0.50390  Biso   1.000  C
  C220     1.0000 0.60080  0.10920  0.49408  Biso   1.000  C
  C221     1.0000 0.56220  0.13250  0.54594  Biso   1.000  C
  C222     1.0000 0.63000  0.15720  0.53440  Biso   1.000  C
  C223     1.0000 0.78140  0.19430  0.48430  Biso   1.000  C
  H63      1.0000 0.84700  0.18710  0.47860  Biso   1.000  H
  H64      1.0000 0.78960  0.20260  0.50630  Biso   1.000  H
  H65      1.0000 0.75270  0.21590  0.47100  Biso   1.000  H
  C224     1.0000 0.67130  0.19480  0.55080  Biso   1.000  C
  H66      1.0000 0.65530  0.19510  0.57230  Biso   1.000  H
  H67      1.0000 0.64070  0.21770  0.53940  Biso   1.000  H
  H68      1.0000 0.74440  0.19580  0.55130  Biso   1.000  H
  C225     1.0000 0.52330  0.01650  0.39096  Biso   1.000  C
  C226     1.0000 0.97820  0.08400  0.38277  Biso   1.000  C
  C227     1.0000 0.41660  0.03070  0.39190  Biso   1.000  C
  C228     1.0000 0.32580  0.00990  0.39150  Biso   1.000  C
  C229     1.0000 0.24020  0.03690  0.38963  Biso   1.000  C
  C230     1.0000 0.27200  0.07640  0.38980  Biso   1.000  C
  C231     1.0000 0.08530  0.07100  0.38620  Biso   1.000  C
  C232     1.0000 0.13060  0.03380  0.38792  Biso   1.000  C
  C233     1.0000 0.31710  0.96510  0.39170  Biso   1.000  C
  H69      1.0000 0.38350  0.95350  0.39120  Biso   1.000  H
  H70      1.0000 0.27110  0.95660  0.37320  Biso   1.000  H
  H71      1.0000 0.29100  0.95670  0.41070  Biso   1.000  H
  C234     1.0000 0.07260  0.99490  0.38770  Biso   1.000  C
  H72      1.0000 0.09730  0.97990  0.40660  Biso   1.000  H
  H73      1.0000 0.08290  0.97960  0.36910  Biso   1.000  H
  H74      1.0000 0.00080  0.00030  0.38720  Biso   1.000  H
  C235     1.0000 0.70530  0.97670  0.32716  Biso   1.000  C
  C236     1.0000 0.51810  0.89330  0.16650  Biso   1.000  C
  C237     1.0000 0.68710  0.96120  0.29346  Biso   1.000  C
  C238     1.0000 0.69030  0.92380  0.28140  Biso   1.000  C
  C239     1.0000 0.64420  0.91620  0.25080  Biso   1.000  C
  C240     1.0000 0.62790  0.95650  0.23800  Biso   1.000  C
  C241     1.0000 0.57250  0.91090  0.19700  Biso   1.000  C
  C242     1.0000 0.62650  0.89320  0.22340  Biso   1.000  C
  C243     1.0000 0.71500  0.88880  0.30030  Biso   1.000  C
  C244     1.0000 0.62900  0.85010  0.22840  Biso   1.000  C
  C245     1.0000 0.82730  0.99390  0.42120  Biso   1.000  C
  C246     1.0000 0.89860  0.99590  0.45230  Biso   1.000  C
  C247     1.0000 0.92800  0.02940  0.47110  Biso   1.000  C
  C248     1.0000 0.00980  0.97820  0.49880  Biso   1.000  C
  C249     1.0000 0.90300  0.07310  0.46770  Biso   1.000  C
  C250     1.0000 0.06620  0.23420  0.42530  Biso   1.000  C
  C251     1.0000 0.13710  0.23900  0.45530  Biso   1.000  C
  C252     1.0000 0.20600  0.27060  0.46320  Biso   1.000  C
  C253     1.0000 0.23070  0.23120  0.50610  Biso   1.000  C
  C254     1.0000 0.23400  0.30840  0.44600  Biso   1.000  C
  C255     1.0000 0.75690  0.84290  0.37530  Biso   1.000  C
  C256     1.0000 0.28770  0.77250  0.36370  Biso   1.000  C
  C257     1.0000 0.85990  0.82890  0.37070  Biso   1.000  C
  C258     1.0000 0.95000  0.84790  0.36940  Biso   1.000  C
  C259     1.0000 0.02990  0.82000  0.36630  Biso   1.000  C
  C260     1.0000 0.99600  0.78090  0.36500  Biso   1.000  C
  C261     1.0000 0.18120  0.78430  0.36320  Biso   1.000  C
  C262     1.0000 0.13910  0.82290  0.36410  Biso   1.000  C
  C263     1.0000 0.96320  0.89260  0.37050  Biso   1.000  C
  H75      1.0000 0.89840  0.90520  0.36350  Biso   1.000  H
  H76      1.0000 0.01160  0.90030  0.35660  Biso   1.000  H
  H77      1.0000 0.98810  0.90070  0.39200  Biso   1.000  H
  C264     1.0000 0.19990  0.86070  0.36410  Biso   1.000  C
  H78      1.0000 0.27170  0.85470  0.36920  Biso   1.000  H
  H79      1.0000 0.18000  0.87870  0.37980  Biso   1.000  H
  H80      1.0000 0.18700  0.87290  0.34340  Biso   1.000  H
  S61      1.0000 0.20820  0.28600  0.45320  Biso   1.000  S
  C265     1.0000 0.15600  0.21650  0.48260  Biso   1.000  C
  C266     1.0000 0.10700  0.17810  0.48930  Biso   1.000  C
  S62      1.0000 0.90910  0.04570  0.46740  Biso   1.000  S
  C267     1.0000 0.95400  0.96650  0.47000  Biso   1.000  C
  C268     1.0000 0.95400  0.92250  0.46240  Biso   1.000  C
  S63      1.0000 0.68470  0.90710  0.29379  Biso   1.000  S
  S64      1.0000 0.60440  0.87240  0.22681  Biso   1.000  S
  C269     1.0000 0.66800  0.97890  0.26440  Biso   1.000  C
  C270     1.0000 0.59300  0.94920  0.20650  Biso   1.000  C
  C271     1.0000 0.65000  0.02090  0.26100  Biso   1.000  C
  C272     1.0000 0.56900  0.98550  0.18850  Biso   1.000  C
  Er17     1.0000 0.39681  0.31917  0.88169  Biso   1.000  Er
  Er18     1.0000 0.23046  0.43654  0.86619  Biso   1.000  Er
  Er19     1.0000 0.15278  0.56880  0.89508  Biso   1.000  Er
  Er20     1.0000 0.02036  0.69585  0.86603  Biso   1.000  Er
  O97      1.0000 0.28900  0.40545  0.82172  Biso   1.000  O
  O98      1.0000 0.29010  0.34334  0.84086  Biso   1.000  O
  O99      1.0000 0.49300  0.30474  0.65209  Biso   1.000  O
  O100     1.0000 0.45810  0.24372  0.66928  Biso   1.000  O
  O101     1.0000 0.22220  0.38893  0.90291  Biso   1.000  O
  O102     1.0000 0.29920  0.33274  0.91927  Biso   1.000  O
  O103     1.0000 0.94720  0.39182  0.07798  Biso   1.000  O
  O104     1.0000 0.02870  0.33645  0.09292  Biso   1.000  O
  O105     1.0000 0.08180  0.45869  0.88170  Biso   1.000  O
  O106     1.0000 0.04600  0.51800  0.89921  Biso   1.000  O
  O107     1.0000 0.40750  0.44067  0.87476  Biso   1.000  O
  O108     1.0000 0.46390  0.37896  0.88735  Biso   1.000  O
  O109     1.0000 0.21740  0.48631  0.83078  Biso   1.000  O
  O110     1.0000 0.20410  0.54739  0.84905  Biso   1.000  O
  O111     1.0000 0.98160  0.58329  0.64465  Biso   1.000  O
  O112     1.0000 0.00970  0.64410  0.66536  Biso   1.000  O
  O113     1.0000 0.28500  0.47490  0.91070  Biso   1.000  O
  O114     1.0000 0.30860  0.54060  0.91092  Biso   1.000  O
  O115     1.0000 0.56300  0.24127  0.90356  Biso   1.000  O
  O116     1.0000 0.50900  0.29623  0.92341  Biso   1.000  O
  O117     1.0000 0.24790  0.62216  0.88612  Biso   1.000  O
  O118     1.0000 0.18450  0.68107  0.86935  Biso   1.000  O
  O119     1.0000 0.85070  0.70393  0.85470  Biso   1.000  O
  O120     1.0000 0.80900  0.76287  0.87292  Biso   1.000  O
  S65      1.0000 0.34350  0.38954  0.75940  Biso   1.000  S
  S66      1.0000 0.41330  0.35277  0.69795  Biso   1.000  S
  S67      1.0000 0.12160  0.40679  0.95704  Biso   1.000  S
  S68      1.0000 0.02660  0.40828  0.02076  Biso   1.000  S
  S69      1.0000 0.90084  0.41785  0.88981  Biso   1.000  S
  S70      1.0000 0.67421  0.38957  0.88814  Biso   1.000  S
  S71      1.0000 0.14970  0.50060  0.76417  Biso   1.000  S
  S72      1.0000 0.07130  0.53500  0.69649  Biso   1.000  S
  S73      1.0000 0.45200  0.54870  0.96590  Biso   1.000  S
  S74      1.0000 0.63690  0.29810  0.98380  Biso   1.000  S
  S75      1.0000 0.36817  0.72330  0.86695  Biso   1.000  S
  S76      1.0000 0.59162  0.75344  0.86396  Biso   1.000  S
  C273     1.0000 0.29420  0.36840  0.81830  Biso   1.000  C
  C274     1.0000 0.45560  0.28120  0.67075  Biso   1.000  C
  C275     1.0000 0.31160  0.35260  0.78678  Biso   1.000  C
  C276     1.0000 0.30990  0.31280  0.77660  Biso   1.000  C
  C277     1.0000 0.34570  0.31350  0.74458  Biso   1.000  C
  C278     1.0000 0.36540  0.35110  0.73390  Biso   1.000  C
  C279     1.0000 0.40940  0.30030  0.69722  Biso   1.000  C
  C280     1.0000 0.37180  0.28020  0.72280  Biso   1.000  C
  C281     1.0000 0.28490  0.28340  0.78989  Biso   1.000  C
  H81      1.0000 0.26550  0.26070  0.80020  Biso   1.000  H
  C282     1.0000 0.36440  0.24530  0.72700  Biso   1.000  C
  H82      1.0000 0.35860  0.21790  0.73040  Biso   1.000  H
  C283     1.0000 0.24300  0.36180  0.92314  Biso   1.000  C
  C284     1.0000 0.01010  0.36590  0.07440  Biso   1.000  C
  C285     1.0000 0.20010  0.36560  0.95342  Biso   1.000  C
  C286     1.0000 0.21110  0.34100  0.97980  Biso   1.000  C
  C287     1.0000 0.15240  0.35600  0.00390  Biso   1.000  C
  C288     1.0000 0.10080  0.39080  0.99408  Biso   1.000  C
  C289     1.0000 0.06220  0.36750  0.04594  Biso   1.000  C
  C290     1.0000 0.13000  0.34280  0.03440  Biso   1.000  C
  C291     1.0000 0.28140  0.30570  0.98430  Biso   1.000  C
  H83      1.0000 0.34700  0.31290  0.97860  Biso   1.000  H
  H84      1.0000 0.28960  0.29740  0.00630  Biso   1.000  H
  H85      1.0000 0.25270  0.28410  0.97100  Biso   1.000  H
  C292     1.0000 0.17130  0.30520  0.05080  Biso   1.000  C
  H86      1.0000 0.15530  0.30490  0.07230  Biso   1.000  H
  H87      1.0000 0.14070  0.28230  0.03940  Biso   1.000  H
  H88      1.0000 0.24440  0.30420  0.05130  Biso   1.000  H
  C293     1.0000 0.02330  0.48350  0.89096  Biso   1.000  C
  C294     1.0000 0.47820  0.41600  0.88277  Biso   1.000  C
  C295     1.0000 0.91660  0.46930  0.89190  Biso   1.000  C
  C296     1.0000 0.82580  0.49010  0.89150  Biso   1.000  C
  C297     1.0000 0.74020  0.46310  0.88963  Biso   1.000  C
  C298     1.0000 0.77200  0.42360  0.88980  Biso   1.000  C
  C299     1.0000 0.58530  0.42900  0.88620  Biso   1.000  C
  C300     1.0000 0.63060  0.46620  0.88792  Biso   1.000  C
  C301     1.0000 0.81710  0.53490  0.89170  Biso   1.000  C
  H89      1.0000 0.88350  0.54650  0.89120  Biso   1.000  H
  H90      1.0000 0.77110  0.54340  0.87320  Biso   1.000  H
  H91      1.0000 0.79100  0.54330  0.91070  Biso   1.000  H
  C302     1.0000 0.57260  0.50510  0.88770  Biso   1.000  C
  H92      1.0000 0.59730  0.52010  0.90660  Biso   1.000  H
  H93      1.0000 0.58290  0.52040  0.86910  Biso   1.000  H
  H94      1.0000 0.50080  0.49970  0.88720  Biso   1.000  H
  C303     1.0000 0.20530  0.52330  0.82716  Biso   1.000  C
  C304     1.0000 0.01810  0.60670  0.66650  Biso   1.000  C
  C305     1.0000 0.18710  0.53880  0.79346  Biso   1.000  C
  C306     1.0000 0.19030  0.57620  0.78140  Biso   1.000  C
  C307     1.0000 0.14420  0.58380  0.75080  Biso   1.000  C
  C308     1.0000 0.12790  0.54350  0.73800  Biso   1.000  C
  C309     1.0000 0.07250  0.58910  0.69700  Biso   1.000  C
  C310     1.0000 0.12650  0.60680  0.72340  Biso   1.000  C
  C311     1.0000 0.21500  0.61120  0.80030  Biso   1.000  C
  C312     1.0000 0.12900  0.64990  0.72840  Biso   1.000  C
  C313     1.0000 0.32730  0.50610  0.92120  Biso   1.000  C
  C314     1.0000 0.39860  0.50410  0.95230  Biso   1.000  C
  C315     1.0000 0.42800  0.47060  0.97110  Biso   1.000  C
  C316     1.0000 0.50980  0.52180  0.99880  Biso   1.000  C
  C317     1.0000 0.40300  0.42690  0.96770  Biso   1.000  C
  C318     1.0000 0.56620  0.26580  0.92530  Biso   1.000  C
  C319     1.0000 0.63710  0.26100  0.95530  Biso   1.000  C
  C320     1.0000 0.70600  0.22940  0.96320  Biso   1.000  C
  C321     1.0000 0.73070  0.26880  0.00610  Biso   1.000  C
  C322     1.0000 0.73400  0.19160  0.94600  Biso   1.000  C
  C323     1.0000 0.25690  0.65710  0.87530  Biso   1.000  C
  C324     1.0000 0.78770  0.72750  0.86370  Biso   1.000  C
  C325     1.0000 0.35990  0.67110  0.87070  Biso   1.000  C
  C326     1.0000 0.45000  0.65210  0.86940  Biso   1.000  C
  C327     1.0000 0.52990  0.68000  0.86630  Biso   1.000  C
  C328     1.0000 0.49600  0.71910  0.86500  Biso   1.000  C
  C329     1.0000 0.68120  0.71570  0.86320  Biso   1.000  C
  C330     1.0000 0.63910  0.67710  0.86410  Biso   1.000  C
  C331     1.0000 0.46320  0.60740  0.87050  Biso   1.000  C
  H95      1.0000 0.39840  0.59480  0.86350  Biso   1.000  H
  H96      1.0000 0.51160  0.59970  0.85660  Biso   1.000  H
  H97      1.0000 0.48810  0.59930  0.89200  Biso   1.000  H
  C332     1.0000 0.69990  0.63930  0.86410  Biso   1.000  C
  H98      1.0000 0.77170  0.64530  0.86920  Biso   1.000  H
  H99      1.0000 0.68000  0.62130  0.87980  Biso   1.000  H
  H100     1.0000 0.68700  0.62710  0.84340  Biso   1.000  H
  S77      1.0000 0.70820  0.21400  0.95320  Biso   1.000  S
  C333     1.0000 0.65600  0.28350  0.98260  Biso   1.000  C
  C334     1.0000 0.60700  0.32190  0.98930  Biso   1.000  C
  S78      1.0000 0.40910  0.45430  0.96740  Biso   1.000  S
  C335     1.0000 0.45400  0.53350  0.97000  Biso   1.000  C
  C336     1.0000 0.45400  0.57750  0.96240  Biso   1.000  C
  S79      1.0000 0.18470  0.59290  0.79379  Biso   1.000  S
  S80      1.0000 0.10440  0.62760  0.72681  Biso   1.000  S
  C337     1.0000 0.16800  0.52110  0.76440  Biso   1.000  C
  C338     1.0000 0.09300  0.55080  0.70650  Biso   1.000  C
  C339     1.0000 0.15000  0.47910  0.76100  Biso   1.000  C
  C340     1.0000 0.06900  0.51450  0.68850  Biso   1.000  C
  Er21     1.0000 0.89681  0.81917  0.88169  Biso   1.000  Er
  Er22     1.0000 0.73046  0.93654  0.86619  Biso   1.000  Er
  Er23     1.0000 0.65278  0.06880  0.89508  Biso   1.000  Er
  Er24     1.0000 0.52036  0.19585  0.86603  Biso   1.000  Er
  O121     1.0000 0.78900  0.90545  0.82172  Biso   1.000  O
  O122     1.0000 0.79010  0.84334  0.84086  Biso   1.000  O
  O123     1.0000 0.99300  0.80474  0.65209  Biso   1.000  O
  O124     1.0000 0.95810  0.74372  0.66928  Biso   1.000  O
  O125     1.0000 0.72220  0.88893  0.90291  Biso   1.000  O
  O126     1.0000 0.79920  0.83274  0.91927  Biso   1.000  O
  O127     1.0000 0.44720  0.89182  0.07798  Biso   1.000  O
  O128     1.0000 0.52870  0.83645  0.09292  Biso   1.000  O
  O129     1.0000 0.58180  0.95869  0.88170  Biso   1.000  O
  O130     1.0000 0.54600  0.01800  0.89921  Biso   1.000  O
  O131     1.0000 0.90750  0.94067  0.87476  Biso   1.000  O
  O132     1.0000 0.96390  0.87896  0.88735  Biso   1.000  O
  O133     1.0000 0.71740  0.98631  0.83078  Biso   1.000  O
  O134     1.0000 0.70410  0.04739  0.84905  Biso   1.000  O
  O135     1.0000 0.48160  0.08329  0.64465  Biso   1.000  O
  O136     1.0000 0.50970  0.14410  0.66536  Biso   1.000  O
  O137     1.0000 0.78500  0.97490  0.91070  Biso   1.000  O
  O138     1.0000 0.80860  0.04060  0.91092  Biso   1.000  O
  O139     1.0000 0.06300  0.74127  0.90356  Biso   1.000  O
  O140     1.0000 0.00900  0.79623  0.92341  Biso   1.000  O
  O141     1.0000 0.74790  0.12216  0.88612  Biso   1.000  O
  O142     1.0000 0.68450  0.18107  0.86935  Biso   1.000  O
  O143     1.0000 0.35070  0.20393  0.85470  Biso   1.000  O
  O144     1.0000 0.30900  0.26287  0.87292  Biso   1.000  O
  S81      1.0000 0.84350  0.88954  0.75940  Biso   1.000  S
  S82      1.0000 0.91330  0.85277  0.69795  Biso   1.000  S
  S83      1.0000 0.62160  0.90679  0.95704  Biso   1.000  S
  S84      1.0000 0.52660  0.90828  0.02076  Biso   1.000  S
  S85      1.0000 0.40084  0.91785  0.88981  Biso   1.000  S
  S86      1.0000 0.17421  0.88957  0.88814  Biso   1.000  S
  S87      1.0000 0.64970  0.00060  0.76417  Biso   1.000  S
  S88      1.0000 0.57130  0.03500  0.69649  Biso   1.000  S
  S89      1.0000 0.95200  0.04870  0.96590  Biso   1.000  S
  S90      1.0000 0.13690  0.79810  0.98380  Biso   1.000  S
  S91      1.0000 0.86817  0.22330  0.86695  Biso   1.000  S
  S92      1.0000 0.09162  0.25344  0.86396  Biso   1.000  S
  C341     1.0000 0.79420  0.86840  0.81830  Biso   1.000  C
  C342     1.0000 0.95560  0.78120  0.67075  Biso   1.000  C
  C343     1.0000 0.81160  0.85260  0.78678  Biso   1.000  C
  C344     1.0000 0.80990  0.81280  0.77660  Biso   1.000  C
  C345     1.0000 0.84570  0.81350  0.74458  Biso   1.000  C
  C346     1.0000 0.86540  0.85110  0.73390  Biso   1.000  C
  C347     1.0000 0.90940  0.80030  0.69722  Biso   1.000  C
  C348     1.0000 0.87180  0.78020  0.72280  Biso   1.000  C
  C349     1.0000 0.78490  0.78340  0.78989  Biso   1.000  C
  H101     1.0000 0.76550  0.76070  0.80020  Biso   1.000  H
  C350     1.0000 0.86440  0.74530  0.72700  Biso   1.000  C
  H102     1.0000 0.85860  0.71790  0.73040  Biso   1.000  H
  C351     1.0000 0.74300  0.86180  0.92314  Biso   1.000  C
  C352     1.0000 0.51010  0.86590  0.07440  Biso   1.000  C
  C353     1.0000 0.70010  0.86560  0.95342  Biso   1.000  C
  C354     1.0000 0.71110  0.84100  0.97980  Biso   1.000  C
  C355     1.0000 0.65240  0.85600  0.00390  Biso   1.000  C
  C356     1.0000 0.60080  0.89080  0.99408  Biso   1.000  C
  C357     1.0000 0.56220  0.86750  0.04594  Biso   1.000  C
  C358     1.0000 0.63000  0.84280  0.03440  Biso   1.000  C
  C359     1.0000 0.78140  0.80570  0.98430  Biso   1.000  C
  H103     1.0000 0.84700  0.81290  0.97860  Biso   1.000  H
  H104     1.0000 0.78960  0.79740  0.00630  Biso   1.000  H
  H105     1.0000 0.75270  0.78410  0.97100  Biso   1.000  H
  C360     1.0000 0.67130  0.80520  0.05080  Biso   1.000  C
  H106     1.0000 0.65530  0.80490  0.07230  Biso   1.000  H
  H107     1.0000 0.64070  0.78230  0.03940  Biso   1.000  H
  H108     1.0000 0.74440  0.80420  0.05130  Biso   1.000  H
  C361     1.0000 0.52330  0.98350  0.89096  Biso   1.000  C
  C362     1.0000 0.97820  0.91600  0.88277  Biso   1.000  C
  C363     1.0000 0.41660  0.96930  0.89190  Biso   1.000  C
  C364     1.0000 0.32580  0.99010  0.89150  Biso   1.000  C
  C365     1.0000 0.24020  0.96310  0.88963  Biso   1.000  C
  C366     1.0000 0.27200  0.92360  0.88980  Biso   1.000  C
  C367     1.0000 0.08530  0.92900  0.88620  Biso   1.000  C
  C368     1.0000 0.13060  0.96620  0.88792  Biso   1.000  C
  C369     1.0000 0.31710  0.03490  0.89170  Biso   1.000  C
  H109     1.0000 0.38350  0.04650  0.89120  Biso   1.000  H
  H110     1.0000 0.27110  0.04340  0.87320  Biso   1.000  H
  H111     1.0000 0.29100  0.04330  0.91070  Biso   1.000  H
  C370     1.0000 0.07260  0.00510  0.88770  Biso   1.000  C
  H112     1.0000 0.09730  0.02010  0.90660  Biso   1.000  H
  H113     1.0000 0.08290  0.02040  0.86910  Biso   1.000  H
  H114     1.0000 0.00080  0.99970  0.88720  Biso   1.000  H
  C371     1.0000 0.70530  0.02330  0.82716  Biso   1.000  C
  C372     1.0000 0.51810  0.10670  0.66650  Biso   1.000  C
  C373     1.0000 0.68710  0.03880  0.79346  Biso   1.000  C
  C374     1.0000 0.69030  0.07620  0.78140  Biso   1.000  C
  C375     1.0000 0.64420  0.08380  0.75080  Biso   1.000  C
  C376     1.0000 0.62790  0.04350  0.73800  Biso   1.000  C
  C377     1.0000 0.57250  0.08910  0.69700  Biso   1.000  C
  C378     1.0000 0.62650  0.10680  0.72340  Biso   1.000  C
  C379     1.0000 0.71500  0.11120  0.80030  Biso   1.000  C
  C380     1.0000 0.62900  0.14990  0.72840  Biso   1.000  C
  C381     1.0000 0.82730  0.00610  0.92120  Biso   1.000  C
  C382     1.0000 0.89860  0.00410  0.95230  Biso   1.000  C
  C383     1.0000 0.92800  0.97060  0.97110  Biso   1.000  C
  C384     1.0000 0.00980  0.02180  0.99880  Biso   1.000  C
  C385     1.0000 0.90300  0.92690  0.96770  Biso   1.000  C
  C386     1.0000 0.06620  0.76580  0.92530  Biso   1.000  C
  C387     1.0000 0.13710  0.76100  0.95530  Biso   1.000  C
  C388     1.0000 0.20600  0.72940  0.96320  Biso   1.000  C
  C389     1.0000 0.23070  0.76880  0.00610  Biso   1.000  C
  C390     1.0000 0.23400  0.69160  0.94600  Biso   1.000  C
  C391     1.0000 0.75690  0.15710  0.87530  Biso   1.000  C
  C392     1.0000 0.28770  0.22750  0.86370  Biso   1.000  C
  C393     1.0000 0.85990  0.17110  0.87070  Biso   1.000  C
  C394     1.0000 0.95000  0.15210  0.86940  Biso   1.000  C
  C395     1.0000 0.02990  0.18000  0.86630  Biso   1.000  C
  C396     1.0000 0.99600  0.21910  0.86500  Biso   1.000  C
  C397     1.0000 0.18120  0.21570  0.86320  Biso   1.000  C
  C398     1.0000 0.13910  0.17710  0.86410  Biso   1.000  C
  C399     1.0000 0.96320  0.10740  0.87050  Biso   1.000  C
  H115     1.0000 0.89840  0.09480  0.86350  Biso   1.000  H
  H116     1.0000 0.01160  0.09970  0.85660  Biso   1.000  H
  H117     1.0000 0.98810  0.09930  0.89200  Biso   1.000  H
  C400     1.0000 0.19990  0.13930  0.86410  Biso   1.000  C
  H118     1.0000 0.27170  0.14530  0.86920  Biso   1.000  H
  H119     1.0000 0.18000  0.12130  0.87980  Biso   1.000  H
  H120     1.0000 0.18700  0.12710  0.84340  Biso   1.000  H
  S93      1.0000 0.20820  0.71400  0.95320  Biso   1.000  S
  C401     1.0000 0.15600  0.78350  0.98260  Biso   1.000  C
  C402     1.0000 0.10700  0.82190  0.98930  Biso   1.000  C
  S94      1.0000 0.90910  0.95430  0.96740  Biso   1.000  S
  C403     1.0000 0.95400  0.03350  0.97000  Biso   1.000  C
  C404     1.0000 0.95400  0.07750  0.96240  Biso   1.000  C
  S95      1.0000 0.68470  0.09290  0.79379  Biso   1.000  S
  S96      1.0000 0.60440  0.12760  0.72681  Biso   1.000  S
  C405     1.0000 0.66800  0.02110  0.76440  Biso   1.000  C
  C406     1.0000 0.59300  0.05080  0.70650  Biso   1.000  C
  C407     1.0000 0.65000  0.97910  0.76100  Biso   1.000  C
  C408     1.0000 0.56900  0.01450  0.68850  Biso   1.000  C
  Er25     1.0000 0.60319  0.31917  0.61831  Biso   1.000  Er
  Er26     1.0000 0.76954  0.43654  0.63381  Biso   1.000  Er
  Er27     1.0000 0.84722  0.56880  0.60492  Biso   1.000  Er
  Er28     1.0000 0.97964  0.69585  0.63397  Biso   1.000  Er
  O145     1.0000 0.71100  0.40545  0.67828  Biso   1.000  O
  O146     1.0000 0.70990  0.34334  0.65914  Biso   1.000  O
  O147     1.0000 0.50700  0.30474  0.84791  Biso   1.000  O
  O148     1.0000 0.54190  0.24372  0.83072  Biso   1.000  O
  O149     1.0000 0.77780  0.38893  0.59709  Biso   1.000  O
  O150     1.0000 0.70080  0.33274  0.58073  Biso   1.000  O
  O151     1.0000 0.05280  0.39182  0.42202  Biso   1.000  O
  O152     1.0000 0.97130  0.33645  0.40708  Biso   1.000  O
  O153     1.0000 0.91820  0.45869  0.61830  Biso   1.000  O
  O154     1.0000 0.95400  0.51800  0.60079  Biso   1.000  O
  O155     1.0000 0.59250  0.44067  0.62524  Biso   1.000  O
  O156     1.0000 0.53610  0.37896  0.61265  Biso   1.000  O
  O157     1.0000 0.78260  0.48631  0.66922  Biso   1.000  O
  O158     1.0000 0.79590  0.54739  0.65095  Biso   1.000  O
  O159     1.0000 0.01840  0.58329  0.85535  Biso   1.000  O
  O160     1.0000 0.99030  0.64410  0.83464  Biso   1.000  O
  O161     1.0000 0.71500  0.47490  0.58930  Biso   1.000  O
  O162     1.0000 0.69140  0.54060  0.58908  Biso   1.000  O
  O163     1.0000 0.43700  0.24127  0.59644  Biso   1.000  O
  O164     1.0000 0.49100  0.29623  0.57659  Biso   1.000  O
  O165     1.0000 0.75210  0.62216  0.61388  Biso   1.000  O
  O166     1.0000 0.81550  0.68107  0.63065  Biso   1.000  O
  O167     1.0000 0.14930  0.70393  0.64530  Biso   1.000  O
  O168     1.0000 0.19100  0.76287  0.62708  Biso   1.000  O
  S97      1.0000 0.65650  0.38954  0.74060  Biso   1.000  S
  S98      1.0000 0.58670  0.35277  0.80205  Biso   1.000  S
  S99      1.0000 0.87840  0.40679  0.54296  Biso   1.000  S
  S100     1.0000 0.97340  0.40828  0.47924  Biso   1.000  S
  S101     1.0000 0.09916  0.41785  0.61019  Biso   1.000  S
  S102     1.0000 0.32579  0.38957  0.61186  Biso   1.000  S
  S103     1.0000 0.85030  0.50060  0.73583  Biso   1.000  S
  S104     1.0000 0.92870  0.53500  0.80351  Biso   1.000  S
  S105     1.0000 0.54800  0.54870  0.53410  Biso   1.000  S
  S106     1.0000 0.36310  0.29810  0.51620  Biso   1.000  S
  S107     1.0000 0.63183  0.72330  0.63305  Biso   1.000  S
  S108     1.0000 0.40838  0.75344  0.63604  Biso   1.000  S
  C409     1.0000 0.70580  0.36840  0.68170  Biso   1.000  C
  C410     1.0000 0.54440  0.28120  0.82925  Biso   1.000  C
  C411     1.0000 0.68840  0.35260  0.71322  Biso   1.000  C
  C412     1.0000 0.69010  0.31280  0.72340  Biso   1.000  C
  C413     1.0000 0.65430  0.31350  0.75542  Biso   1.000  C
  C414     1.0000 0.63460  0.35110  0.76610  Biso   1.000  C
  C415     1.0000 0.59060  0.30030  0.80278  Biso   1.000  C
  C416     1.0000 0.62820  0.28020  0.77720  Biso   1.000  C
  C417     1.0000 0.71510  0.28340  0.71011  Biso   1.000  C
  H121     1.0000 0.73450  0.26070  0.69980  Biso   1.000  H
  C418     1.0000 0.63560  0.24530  0.77300  Biso   1.000  C
  H122     1.0000 0.64140  0.21790  0.76960  Biso   1.000  H
  C419     1.0000 0.75700  0.36180  0.57686  Biso   1.000  C
  C420     1.0000 0.98990  0.36590  0.42560  Biso   1.000  C
  C421     1.0000 0.79990  0.36560  0.54658  Biso   1.000  C
  C422     1.0000 0.78890  0.34100  0.52020  Biso   1.000  C
  C423     1.0000 0.84760  0.35600  0.49610  Biso   1.000  C
  C424     1.0000 0.89920  0.39080  0.50592  Biso   1.000  C
  C425     1.0000 0.93780  0.36750  0.45406  Biso   1.000  C
  C426     1.0000 0.87000  0.34280  0.46560  Biso   1.000  C
  C427     1.0000 0.71860  0.30570  0.51570  Biso   1.000  C
  H123     1.0000 0.65300  0.31290  0.52140  Biso   1.000  H
  H124     1.0000 0.71040  0.29740  0.49370  Biso   1.000  H
  H125     1.0000 0.74730  0.28410  0.52900  Biso   1.000  H
  C428     1.0000 0.82870  0.30520  0.44920  Biso   1.000  C
  H126     1.0000 0.84470  0.30490  0.42770  Biso   1.000  H
  H127     1.0000 0.85930  0.28230  0.46060  Biso   1.000  H
  H128     1.0000 0.75560  0.30420  0.44870  Biso   1.000  H
  C429     1.0000 0.97670  0.48350  0.60904  Biso   1.000  C
  C430     1.0000 0.52180  0.41600  0.61723  Biso   1.000  C
  C431     1.0000 0.08340  0.46930  0.60810  Biso   1.000  C
  C432     1.0000 0.17420  0.49010  0.60850  Biso   1.000  C
  C433     1.0000 0.25980  0.46310  0.61037  Biso   1.000  C
  C434     1.0000 0.22800  0.42360  0.61020  Biso   1.000  C
  C435     1.0000 0.41470  0.42900  0.61380  Biso   1.000  C
  C436     1.0000 0.36940  0.46620  0.61208  Biso   1.000  C
  C437     1.0000 0.18290  0.53490  0.60830  Biso   1.000  C
  H129     1.0000 0.11650  0.54650  0.60880  Biso   1.000  H
  H130     1.0000 0.22890  0.54340  0.62680  Biso   1.000  H
  H131     1.0000 0.20900  0.54330  0.58930  Biso   1.000  H
  C438     1.0000 0.42740  0.50510  0.61230  Biso   1.000  C
  H132     1.0000 0.40270  0.52010  0.59340  Biso   1.000  H
  H133     1.0000 0.41710  0.52040  0.63090  Biso   1.000  H
  H134     1.0000 0.49920  0.49970  0.61280  Biso   1.000  H
  C439     1.0000 0.79470  0.52330  0.67284  Biso   1.000  C
  C440     1.0000 0.98190  0.60670  0.83350  Biso   1.000  C
  C441     1.0000 0.81290  0.53880  0.70654  Biso   1.000  C
  C442     1.0000 0.80970  0.57620  0.71860  Biso   1.000  C
  C443     1.0000 0.85580  0.58380  0.74920  Biso   1.000  C
  C444     1.0000 0.87210  0.54350  0.76200  Biso   1.000  C
  C445     1.0000 0.92750  0.58910  0.80300  Biso   1.000  C
  C446     1.0000 0.87350  0.60680  0.77660  Biso   1.000  C
  C447     1.0000 0.78500  0.61120  0.69970  Biso   1.000  C
  C448     1.0000 0.87100  0.64990  0.77160  Biso   1.000  C
  C449     1.0000 0.67270  0.50610  0.57880  Biso   1.000  C
  C450     1.0000 0.60140  0.50410  0.54770  Biso   1.000  C
  C451     1.0000 0.57200  0.47060  0.52890  Biso   1.000  C
  C452     1.0000 0.49020  0.52180  0.50120  Biso   1.000  C
  C453     1.0000 0.59700  0.42690  0.53230  Biso   1.000  C
  C454     1.0000 0.43380  0.26580  0.57470  Biso   1.000  C
  C455     1.0000 0.36290  0.26100  0.54470  Biso   1.000  C
  C456     1.0000 0.29400  0.22940  0.53680  Biso   1.000  C
  C457     1.0000 0.26930  0.26880  0.49390  Biso   1.000  C
  C458     1.0000 0.26600  0.19160  0.55400  Biso   1.000  C
  C459     1.0000 0.74310  0.65710  0.62470  Biso   1.000  C
  C460     1.0000 0.21230  0.72750  0.63630  Biso   1.000  C
  C461     1.0000 0.64010  0.67110  0.62930  Biso   1.000  C
  C462     1.0000 0.55000  0.65210  0.63060  Biso   1.000  C
  C463     1.0000 0.47010  0.68000  0.63370  Biso   1.000  C
  C464     1.0000 0.50400  0.71910  0.63500  Biso   1.000  C
  C465     1.0000 0.31880  0.71570  0.63680  Biso   1.000  C
  C466     1.0000 0.36090  0.67710  0.63590  Biso   1.000  C
  C467     1.0000 0.53680  0.60740  0.62950  Biso   1.000  C
  H135     1.0000 0.60160  0.59480  0.63650  Biso   1.000  H
  H136     1.0000 0.48840  0.59970  0.64340  Biso   1.000  H
  H137     1.0000 0.51190  0.59930  0.60800  Biso   1.000  H
  C468     1.0000 0.30010  0.63930  0.63590  Biso   1.000  C
  H138     1.0000 0.22830  0.64530  0.63080  Biso   1.000  H
  H139     1.0000 0.32000  0.62130  0.62020  Biso   1.000  H
  H140     1.0000 0.31300  0.62710  0.65660  Biso   1.000  H
  S109     1.0000 0.29180  0.21400  0.54680  Biso   1.000  S
  C469     1.0000 0.34400  0.28350  0.51740  Biso   1.000  C
  C470     1.0000 0.39300  0.32190  0.51070  Biso   1.000  C
  S110     1.0000 0.59090  0.45430  0.53260  Biso   1.000  S
  C471     1.0000 0.54600  0.53350  0.53000  Biso   1.000  C
  C472     1.0000 0.54600  0.57750  0.53760  Biso   1.000  C
  S111     1.0000 0.81530  0.59290  0.70621  Biso   1.000  S
  S112     1.0000 0.89560  0.62760  0.77319  Biso   1.000  S
  C473     1.0000 0.83200  0.52110  0.73560  Biso   1.000  C
  C474     1.0000 0.90700  0.55080  0.79350  Biso   1.000  C
  C475     1.0000 0.85000  0.47910  0.73900  Biso   1.000  C
  C476     1.0000 0.93100  0.51450  0.81150  Biso   1.000  C
  Er29     1.0000 0.10319  0.81917  0.61831  Biso   1.000  Er
  Er30     1.0000 0.26954  0.93654  0.63381  Biso   1.000  Er
  Er31     1.0000 0.34722  0.06880  0.60492  Biso   1.000  Er
  Er32     1.0000 0.47964  0.19585  0.63397  Biso   1.000  Er
  O169     1.0000 0.21100  0.90545  0.67828  Biso   1.000  O
  O170     1.0000 0.20990  0.84334  0.65914  Biso   1.000  O
  O171     1.0000 0.00700  0.80474  0.84791  Biso   1.000  O
  O172     1.0000 0.04190  0.74372  0.83072  Biso   1.000  O
  O173     1.0000 0.27780  0.88893  0.59709  Biso   1.000  O
  O174     1.0000 0.20080  0.83274  0.58073  Biso   1.000  O
  O175     1.0000 0.55280  0.89182  0.42202  Biso   1.000  O
  O176     1.0000 0.47130  0.83645  0.40708  Biso   1.000  O
  O177     1.0000 0.41820  0.95869  0.61830  Biso   1.000  O
  O178     1.0000 0.45400  0.01800  0.60079  Biso   1.000  O
  O179     1.0000 0.09250  0.94067  0.62524  Biso   1.000  O
  O180     1.0000 0.03610  0.87896  0.61265  Biso   1.000  O
  O181     1.0000 0.28260  0.98631  0.66922  Biso   1.000  O
  O182     1.0000 0.29590  0.04739  0.65095  Biso   1.000  O
  O183     1.0000 0.51840  0.08329  0.85535  Biso   1.000  O
  O184     1.0000 0.49030  0.14410  0.83464  Biso   1.000  O
  O185     1.0000 0.21500  0.97490  0.58930  Biso   1.000  O
  O186     1.0000 0.19140  0.04060  0.58908  Biso   1.000  O
  O187     1.0000 0.93700  0.74127  0.59644  Biso   1.000  O
  O188     1.0000 0.99100  0.79623  0.57659  Biso   1.000  O
  O189     1.0000 0.25210  0.12216  0.61388  Biso   1.000  O
  O190     1.0000 0.31550  0.18107  0.63065  Biso   1.000  O
  O191     1.0000 0.64930  0.20393  0.64530  Biso   1.000  O
  O192     1.0000 0.69100  0.26287  0.62708  Biso   1.000  O
  S113     1.0000 0.15650  0.88954  0.74060  Biso   1.000  S
  S114     1.0000 0.08670  0.85277  0.80205  Biso   1.000  S
  S115     1.0000 0.37840  0.90679  0.54296  Biso   1.000  S
  S116     1.0000 0.47340  0.90828  0.47924  Biso   1.000  S
  S117     1.0000 0.59916  0.91785  0.61019  Biso   1.000  S
  S118     1.0000 0.82579  0.88957  0.61186  Biso   1.000  S
  S119     1.0000 0.35030  0.00060  0.73583  Biso   1.000  S
  S120     1.0000 0.42870  0.03500  0.80351  Biso   1.000  S
  S121     1.0000 0.04800  0.04870  0.53410  Biso   1.000  S
  S122     1.0000 0.86310  0.79810  0.51620  Biso   1.000  S
  S123     1.0000 0.13183  0.22330  0.63305  Biso   1.000  S
  S124     1.0000 0.90838  0.25344  0.63604  Biso   1.000  S
  C477     1.0000 0.20580  0.86840  0.68170  Biso   1.000  C
  C478     1.0000 0.04440  0.78120  0.82925  Biso   1.000  C
  C479     1.0000 0.18840  0.85260  0.71322  Biso   1.000  C
  C480     1.0000 0.19010  0.81280  0.72340  Biso   1.000  C
  C481     1.0000 0.15430  0.81350  0.75542  Biso   1.000  C
  C482     1.0000 0.13460  0.85110  0.76610  Biso   1.000  C
  C483     1.0000 0.09060  0.80030  0.80278  Biso   1.000  C
  C484     1.0000 0.12820  0.78020  0.77720  Biso   1.000  C
  C485     1.0000 0.21510  0.78340  0.71011  Biso   1.000  C
  H141     1.0000 0.23450  0.76070  0.69980  Biso   1.000  H
  C486     1.0000 0.13560  0.74530  0.77300  Biso   1.000  C
  H142     1.0000 0.14140  0.71790  0.76960  Biso   1.000  H
  C487     1.0000 0.25700  0.86180  0.57686  Biso   1.000  C
  C488     1.0000 0.48990  0.86590  0.42560  Biso   1.000  C
  C489     1.0000 0.29990  0.86560  0.54658  Biso   1.000  C
  C490     1.0000 0.28890  0.84100  0.52020  Biso   1.000  C
  C491     1.0000 0.34760  0.85600  0.49610  Biso   1.000  C
  C492     1.0000 0.39920  0.89080  0.50592  Biso   1.000  C
  C493     1.0000 0.43780  0.86750  0.45406  Biso   1.000  C
  C494     1.0000 0.37000  0.84280  0.46560  Biso   1.000  C
  C495     1.0000 0.21860  0.80570  0.51570  Biso   1.000  C
  H143     1.0000 0.15300  0.81290  0.52140  Biso   1.000  H
  H144     1.0000 0.21040  0.79740  0.49370  Biso   1.000  H
  H145     1.0000 0.24730  0.78410  0.52900  Biso   1.000  H
  C496     1.0000 0.32870  0.80520  0.44920  Biso   1.000  C
  H146     1.0000 0.34470  0.80490  0.42770  Biso   1.000  H
  H147     1.0000 0.35930  0.78230  0.46060  Biso   1.000  H
  H148     1.0000 0.25560  0.80420  0.44870  Biso   1.000  H
  C497     1.0000 0.47670  0.98350  0.60904  Biso   1.000  C
  C498     1.0000 0.02180  0.91600  0.61723  Biso   1.000  C
  C499     1.0000 0.58340  0.96930  0.60810  Biso   1.000  C
  C500     1.0000 0.67420  0.99010  0.60850  Biso   1.000  C
  C501     1.0000 0.75980  0.96310  0.61037  Biso   1.000  C
  C502     1.0000 0.72800  0.92360  0.61020  Biso   1.000  C
  C503     1.0000 0.91470  0.92900  0.61380  Biso   1.000  C
  C504     1.0000 0.86940  0.96620  0.61208  Biso   1.000  C
  C505     1.0000 0.68290  0.03490  0.60830  Biso   1.000  C
  H149     1.0000 0.61650  0.04650  0.60880  Biso   1.000  H
  H150     1.0000 0.72890  0.04340  0.62680  Biso   1.000  H
  H151     1.0000 0.70900  0.04330  0.58930  Biso   1.000  H
  C506     1.0000 0.92740  0.00510  0.61230  Biso   1.000  C
  H152     1.0000 0.90270  0.02010  0.59340  Biso   1.000  H
  H153     1.0000 0.91710  0.02040  0.63090  Biso   1.000  H
  H154     1.0000 0.99920  0.99970  0.61280  Biso   1.000  H
  C507     1.0000 0.29470  0.02330  0.67284  Biso   1.000  C
  C508     1.0000 0.48190  0.10670  0.83350  Biso   1.000  C
  C509     1.0000 0.31290  0.03880  0.70654  Biso   1.000  C
  C510     1.0000 0.30970  0.07620  0.71860  Biso   1.000  C
  C511     1.0000 0.35580  0.08380  0.74920  Biso   1.000  C
  C512     1.0000 0.37210  0.04350  0.76200  Biso   1.000  C
  C513     1.0000 0.42750  0.08910  0.80300  Biso   1.000  C
  C514     1.0000 0.37350  0.10680  0.77660  Biso   1.000  C
  C515     1.0000 0.28500  0.11120  0.69970  Biso   1.000  C
  C516     1.0000 0.37100  0.14990  0.77160  Biso   1.000  C
  C517     1.0000 0.17270  0.00610  0.57880  Biso   1.000  C
  C518     1.0000 0.10140  0.00410  0.54770  Biso   1.000  C
  C519     1.0000 0.07200  0.97060  0.52890  Biso   1.000  C
  C520     1.0000 0.99020  0.02180  0.50120  Biso   1.000  C
  C521     1.0000 0.09700  0.92690  0.53230  Biso   1.000  C
  C522     1.0000 0.93380  0.76580  0.57470  Biso   1.000  C
  C523     1.0000 0.86290  0.76100  0.54470  Biso   1.000  C
  C524     1.0000 0.79400  0.72940  0.53680  Biso   1.000  C
  C525     1.0000 0.76930  0.76880  0.49390  Biso   1.000  C
  C526     1.0000 0.76600  0.69160  0.55400  Biso   1.000  C
  C527     1.0000 0.24310  0.15710  0.62470  Biso   1.000  C
  C528     1.0000 0.71230  0.22750  0.63630  Biso   1.000  C
  C529     1.0000 0.14010  0.17110  0.62930  Biso   1.000  C
  C530     1.0000 0.05000  0.15210  0.63060  Biso   1.000  C
  C531     1.0000 0.97010  0.18000  0.63370  Biso   1.000  C
  C532     1.0000 0.00400  0.21910  0.63500  Biso   1.000  C
  C533     1.0000 0.81880  0.21570  0.63680  Biso   1.000  C
  C534     1.0000 0.86090  0.17710  0.63590  Biso   1.000  C
  C535     1.0000 0.03680  0.10740  0.62950  Biso   1.000  C
  H155     1.0000 0.10160  0.09480  0.63650  Biso   1.000  H
  H156     1.0000 0.98840  0.09970  0.64340  Biso   1.000  H
  H157     1.0000 0.01190  0.09930  0.60800  Biso   1.000  H
  C536     1.0000 0.80010  0.13930  0.63590  Biso   1.000  C
  H158     1.0000 0.72830  0.14530  0.63080  Biso   1.000  H
  H159     1.0000 0.82000  0.12130  0.62020  Biso   1.000  H
  H160     1.0000 0.81300  0.12710  0.65660  Biso   1.000  H
  S125     1.0000 0.79180  0.71400  0.54680  Biso   1.000  S
  C537     1.0000 0.84400  0.78350  0.51740  Biso   1.000  C
  C538     1.0000 0.89300  0.82190  0.51070  Biso   1.000  C
  S126     1.0000 0.09090  0.95430  0.53260  Biso   1.000  S
  C539     1.0000 0.04600  0.03350  0.53000  Biso   1.000  C
  C540     1.0000 0.04600  0.07750  0.53760  Biso   1.000  C
  S127     1.0000 0.31530  0.09290  0.70621  Biso   1.000  S
  S128     1.0000 0.39560  0.12760  0.77319  Biso   1.000  S
  C541     1.0000 0.33200  0.02110  0.73560  Biso   1.000  C
  C542     1.0000 0.40700  0.05080  0.79350  Biso   1.000  C
  C543     1.0000 0.35000  0.97910  0.73900  Biso   1.000  C
  C544     1.0000 0.43100  0.01450  0.81150  Biso   1.000  C
