data_image0
_cell_length_a       34.9115
_cell_length_b       41.3131
_cell_length_c       28.971
_cell_angle_alpha    90
_cell_angle_beta     90
_cell_angle_gamma    90

_symmetry_space_group_name_H-M    "P 1"
_symmetry_int_tables_number       1

loop_
  _symmetry_equiv_pos_as_xyz
  'x, y, z'

loop_
  _atom_site_label
  _atom_site_occupancy
  _atom_site_fract_x
  _atom_site_fract_y
  _atom_site_fract_z
  _atom_site_thermal_displace_type
  _atom_site_B_iso_or_equiv
  _atom_site_type_symbol
  H1       1.0000 0.11760  0.99480  0.47290  Biso   1.000  H
  C1       1.0000 0.14630  0.06210  0.45330  Biso   1.000  C
  H2       1.0000 0.16120  0.05150  0.42940  Biso   1.000  H
  H3       1.0000 0.14600  0.08520  0.44680  Biso   1.000  H
  C2       1.0000 0.10540  0.04900  0.45320  Biso   1.000  C
  H4       1.0000 0.08790  0.06630  0.44500  Biso   1.000  H
  H5       1.0000 0.10320  0.03220  0.43000  Biso   1.000  H
  H6       1.0000 0.17630  0.01250  0.52710  Biso   1.000  H
  C3       1.0000 0.45124  0.98850  0.93860  Biso   1.000  C
  C4       1.0000 0.42103  0.98112  0.90310  Biso   1.000  C
  C5       1.0000 0.40100  0.00584  0.88160  Biso   1.000  C
  H7       1.0000 0.40670  0.02720  0.88890  Biso   1.000  H
  C6       1.0000 0.37280  0.99932  0.84980  Biso   1.000  C
  H8       1.0000 0.36010  0.01620  0.83530  Biso   1.000  H
  C7       1.0000 0.36326  0.96726  0.83930  Biso   1.000  C
  C8       1.0000 0.38330  0.94274  0.86040  Biso   1.000  C
  H9       1.0000 0.37760  0.92120  0.85380  Biso   1.000  H
  C9       1.0000 0.41240  0.95043  0.89190  Biso   1.000  C
  H10      1.0000 0.42610  0.93370  0.90560  Biso   1.000  H
  C10      1.0000 0.33191  0.95918  0.80593  Biso   1.000  C
  C11      1.0000 0.30690  0.93441  0.81520  Biso   1.000  C
  H11      1.0000 0.31010  0.92290  0.84250  Biso   1.000  H
  C12      1.0000 0.27392  0.94215  0.74880  Biso   1.000  C
  H12      1.0000 0.25420  0.93580  0.72910  Biso   1.000  H
  C13      1.0000 0.29631  0.96775  0.73579  Biso   1.000  C
  C14      1.0000 0.32613  0.97592  0.76540  Biso   1.000  C
  H13      1.0000 0.34240  0.99290  0.75770  Biso   1.000  H
  C15      1.0000 0.29060  0.98515  0.69007  Biso   1.000  C
  C16      1.0000 0.25439  0.98912  0.67150  Biso   1.000  C
  H14      1.0000 0.23310  0.98070  0.68670  Biso   1.000  H
  C17      1.0000 0.24989  0.00551  0.63055  Biso   1.000  C
  H15      1.0000 0.22550  0.00780  0.61820  Biso   1.000  H
  C18      1.0000 0.28017  0.01837  0.60787  Biso   1.000  C
  C19      1.0000 0.31604  0.01361  0.62440  Biso   1.000  C
  H16      1.0000 0.33700  0.02120  0.60790  Biso   1.000  H
  C20      1.0000 0.32153  0.99776  0.66500  Biso   1.000  C
  H17      1.0000 0.34630  0.99520  0.67640  Biso   1.000  H
  C21      1.0000 0.27420  0.03812  0.56631  Biso   1.000  C
  C22      1.0000 0.25330  0.12143  0.44094  Biso   1.000  C
  C23      1.0000 0.24740  0.14960  0.40827  Biso   1.000  C
  C24      1.0000 0.21320  0.15481  0.38640  Biso   1.000  C
  H18      1.0000 0.19260  0.14120  0.39230  Biso   1.000  H
  C25      1.0000 0.20900  0.17967  0.35610  Biso   1.000  C
  H19      1.0000 0.18560  0.18290  0.34160  Biso   1.000  H
  C26      1.0000 0.23900  0.20001  0.34680  Biso   1.000  C
  C27      1.0000 0.27330  0.19538  0.37020  Biso   1.000  C
  H20      1.0000 0.29380  0.20930  0.36510  Biso   1.000  H
  C28      1.0000 0.27680  0.17045  0.40050  Biso   1.000  C
  H21      1.0000 0.29970  0.16760  0.41630  Biso   1.000  H
  C29      1.0000 0.23685  0.22658  0.31134  Biso   1.000  C
  C30      1.0000 0.25049  0.25723  0.32012  Biso   1.000  C
  H22      1.0000 0.26130  0.26130  0.34890  Biso   1.000  H
  C31      1.0000 0.23285  0.27521  0.24843  Biso   1.000  C
  H23      1.0000 0.23180  0.29190  0.22690  Biso   1.000  H
  C32      1.0000 0.21776  0.24554  0.23670  Biso   1.000  C
  C33      1.0000 0.21965  0.22116  0.26940  Biso   1.000  C
  H24      1.0000 0.20920  0.20100  0.26300  Biso   1.000  H
  C34      1.0000 0.20070  0.24012  0.19070  Biso   1.000  C
  C35      1.0000 0.17700  0.26254  0.16950  Biso   1.000  C
  H25      1.0000 0.17300  0.28240  0.18380  Biso   1.000  H
  C36      1.0000 0.15900  0.25628  0.12720  Biso   1.000  C
  H26      1.0000 0.14330  0.27170  0.11340  Biso   1.000  H
  C37      1.0000 0.16506  0.22686  0.10690  Biso   1.000  C
  C38      1.0000 0.18890  0.20365  0.12680  Biso   1.000  C
  H27      1.0000 0.19300  0.18390  0.11230  Biso   1.000  H
  C39      1.0000 0.20620  0.21069  0.16830  Biso   1.000  C
  H28      1.0000 0.22210  0.19530  0.18180  Biso   1.000  H
  C40      1.0000 0.14330  0.21670  0.06379  Biso   1.000  C
  C41      1.0000 0.97834  0.03718  0.43605  Biso   1.000  C
  C42      1.0000 0.96584  0.05583  0.39457  Biso   1.000  C
  C43      1.0000 0.93093  0.04997  0.37415  Biso   1.000  C
  H29      1.0000 0.91440  0.03490  0.38730  Biso   1.000  H
  C44      1.0000 0.92004  0.06587  0.33490  Biso   1.000  C
  H30      1.0000 0.89660  0.06090  0.32150  Biso   1.000  H
  C45      1.0000 0.94276  0.08893  0.31487  Biso   1.000  C
  C46      1.0000 0.97760  0.09577  0.33570  Biso   1.000  C
  H31      1.0000 0.99360  0.11160  0.32340  Biso   1.000  H
  C47      1.0000 0.98858  0.07897  0.37509  Biso   1.000  C
  H32      1.0000 0.01210  0.08360  0.38860  Biso   1.000  H
  C48      1.0000 0.93209  0.10568  0.27094  Biso   1.000  C
  C49      1.0000 0.89439  0.11113  0.25905  Biso   1.000  C
  H33      1.0000 0.87530  0.10460  0.27950  Biso   1.000  H
  C50      1.0000 0.96022  0.11535  0.23850  Biso   1.000  C
  H34      1.0000 0.98590  0.11170  0.24500  Biso   1.000  H
  C51      1.0000 0.95026  0.12994  0.19820  Biso   1.000  C
  C52      1.0000 0.91137  0.13418  0.18950  Biso   1.000  C
  H35      1.0000 0.90410  0.14360  0.16170  Biso   1.000  H
  C53      1.0000 0.97825  0.14139  0.16450  Biso   1.000  C
  C54      1.0000 0.00880  0.12345  0.15140  Biso   1.000  C
  H36      1.0000 0.01290  0.10340  0.16500  Biso   1.000  H
  C55      1.0000 0.03389  0.13430  0.11840  Biso   1.000  C
  H37      1.0000 0.05450  0.12140  0.10960  Biso   1.000  H
  C56      1.0000 0.02870  0.16452  0.09800  Biso   1.000  C
  C57      1.0000 0.99790  0.18310  0.11140  Biso   1.000  C
  H38      1.0000 0.99400  0.20340  0.09860  Biso   1.000  H
  C58      1.0000 0.97343  0.17140  0.14360  Biso   1.000  C
  H39      1.0000 0.95250  0.18400  0.15200  Biso   1.000  H
  C59      1.0000 0.05650  0.17647  0.06020  Biso   1.000  C
  C60      1.0000 0.82726  0.13403  0.02670  Biso   1.000  C
  H40      1.0000 0.83680  0.11340  0.03790  Biso   1.000  H
  H41      1.0000 0.84420  0.15090  0.03790  Biso   1.000  H
  C61      1.0000 0.77520  0.17142  0.02671  Biso   1.000  C
  H42      1.0000 0.79180  0.18850  0.03800  Biso   1.000  H
  H43      1.0000 0.74950  0.17550  0.03800  Biso   1.000  H
  C62      1.0000 0.76480  0.11320  0.02737  Biso   1.000  C
  H44      1.0000 0.73880  0.11600  0.03870  Biso   1.000  H
  H45      1.0000 0.77430  0.09260  0.03870  Biso   1.000  H
  Cu1      1.0000 0.82860  0.13266  0.19857  Biso   1.000  Cu
  Cu2      1.0000 0.75748  0.11063  0.19252  Biso   1.000  Cu
  Cu3      1.0000 0.78785  0.13938  0.11713  Biso   1.000  Cu
  Cu4      1.0000 0.77007  0.17406  0.19302  Biso   1.000  Cu
  I1       1.0000 0.83336  0.18769  0.14358  Biso   1.000  I
  I2       1.0000 0.78260  0.13984  0.27006  Biso   1.000  I
  I3       1.0000 0.81372  0.08180  0.14346  Biso   1.000  I
  I4       1.0000 0.71401  0.14942  0.13907  Biso   1.000  I
  N1       1.0000 0.27860  0.92597  0.78752  Biso   1.000  N
  N2       1.0000 0.24917  0.28125  0.29005  Biso   1.000  N
  N3       1.0000 0.88390  0.12535  0.21947  Biso   1.000  N
  N4       1.0000 0.78896  0.13944  0.04437  Biso   1.000  N
  O1       1.0000 0.47017  0.96497  0.95248  Biso   1.000  O
  O2       1.0000 0.45361  0.01779  0.95186  Biso   1.000  O
  O3       1.0000 0.30336  0.05085  0.54839  Biso   1.000  O
  O4       1.0000 0.24077  0.04073  0.54970  Biso   1.000  O
  O5       1.0000 0.28705  0.11545  0.45354  Biso   1.000  O
  O6       1.0000 0.22309  0.10607  0.45283  Biso   1.000  O
  O7       1.0000 0.01090  0.04318  0.45165  Biso   1.000  O
  O8       1.0000 0.95475  0.01656  0.45149  Biso   1.000  O
  O9       1.0000 0.08172  0.15675  0.04675  Biso   1.000  O
  O10      1.0000 0.05178  0.20497  0.04691  Biso   1.000  O
  O11      1.0000 0.14969  0.18905  0.04806  Biso   1.000  O
  O12      1.0000 0.12024  0.23752  0.04868  Biso   1.000  O
  C63      1.0000 0.14100  0.08030  0.47350  Biso   1.000  C
  H46      1.0000 0.15930  0.06530  0.46010  Biso   1.000  H
  H47      1.0000 0.14390  0.10170  0.46010  Biso   1.000  H
  C64      1.0000 0.09860  0.06750  0.47290  Biso   1.000  C
  H48      1.0000 0.08040  0.08260  0.45940  Biso   1.000  H
  H49      1.0000 0.09580  0.04610  0.45940  Biso   1.000  H
  H50      1.0000 0.88240  0.00520  0.47290  Biso   1.000  H
  C65      1.0000 0.85370  0.93790  0.45330  Biso   1.000  C
  H51      1.0000 0.83880  0.94850  0.42940  Biso   1.000  H
  H52      1.0000 0.85400  0.91480  0.44680  Biso   1.000  H
  C66      1.0000 0.89460  0.95100  0.45320  Biso   1.000  C
  H53      1.0000 0.91210  0.93370  0.44500  Biso   1.000  H
  H54      1.0000 0.89680  0.96780  0.43000  Biso   1.000  H
  H55      1.0000 0.82370  0.98750  0.52710  Biso   1.000  H
  C67      1.0000 0.54876  0.01150  0.93860  Biso   1.000  C
  C68      1.0000 0.57897  0.01888  0.90310  Biso   1.000  C
  C69      1.0000 0.59900  0.99416  0.88160  Biso   1.000  C
  H56      1.0000 0.59330  0.97280  0.88890  Biso   1.000  H
  C70      1.0000 0.62720  0.00068  0.84980  Biso   1.000  C
  H57      1.0000 0.63990  0.98380  0.83530  Biso   1.000  H
  C71      1.0000 0.63674  0.03274  0.83930  Biso   1.000  C
  C72      1.0000 0.61670  0.05726  0.86040  Biso   1.000  C
  H58      1.0000 0.62240  0.07880  0.85380  Biso   1.000  H
  C73      1.0000 0.58760  0.04957  0.89190  Biso   1.000  C
  H59      1.0000 0.57390  0.06630  0.90560  Biso   1.000  H
  C74      1.0000 0.66809  0.04082  0.80593  Biso   1.000  C
  C75      1.0000 0.69310  0.06559  0.81520  Biso   1.000  C
  H60      1.0000 0.68990  0.07710  0.84250  Biso   1.000  H
  C76      1.0000 0.72608  0.05785  0.74880  Biso   1.000  C
  H61      1.0000 0.74580  0.06420  0.72910  Biso   1.000  H
  C77      1.0000 0.70369  0.03225  0.73579  Biso   1.000  C
  C78      1.0000 0.67387  0.02408  0.76540  Biso   1.000  C
  H62      1.0000 0.65760  0.00710  0.75770  Biso   1.000  H
  C79      1.0000 0.70940  0.01485  0.69007  Biso   1.000  C
  C80      1.0000 0.74561  0.01088  0.67150  Biso   1.000  C
  H63      1.0000 0.76690  0.01930  0.68670  Biso   1.000  H
  C81      1.0000 0.75011  0.99449  0.63055  Biso   1.000  C
  H64      1.0000 0.77450  0.99220  0.61820  Biso   1.000  H
  C82      1.0000 0.71983  0.98163  0.60787  Biso   1.000  C
  C83      1.0000 0.68396  0.98639  0.62440  Biso   1.000  C
  H65      1.0000 0.66300  0.97880  0.60790  Biso   1.000  H
  C84      1.0000 0.67847  0.00224  0.66500  Biso   1.000  C
  H66      1.0000 0.65370  0.00480  0.67640  Biso   1.000  H
  C85      1.0000 0.72580  0.96188  0.56631  Biso   1.000  C
  C86      1.0000 0.74670  0.87857  0.44094  Biso   1.000  C
  C87      1.0000 0.75260  0.85040  0.40827  Biso   1.000  C
  C88      1.0000 0.78680  0.84519  0.38640  Biso   1.000  C
  H67      1.0000 0.80740  0.85880  0.39230  Biso   1.000  H
  C89      1.0000 0.79100  0.82033  0.35610  Biso   1.000  C
  H68      1.0000 0.81440  0.81710  0.34160  Biso   1.000  H
  C90      1.0000 0.76100  0.79999  0.34680  Biso   1.000  C
  C91      1.0000 0.72670  0.80462  0.37020  Biso   1.000  C
  H69      1.0000 0.70620  0.79070  0.36510  Biso   1.000  H
  C92      1.0000 0.72320  0.82955  0.40050  Biso   1.000  C
  H70      1.0000 0.70030  0.83240  0.41630  Biso   1.000  H
  C93      1.0000 0.76315  0.77342  0.31134  Biso   1.000  C
  C94      1.0000 0.74951  0.74277  0.32012  Biso   1.000  C
  H71      1.0000 0.73870  0.73870  0.34890  Biso   1.000  H
  C95      1.0000 0.76715  0.72479  0.24843  Biso   1.000  C
  H72      1.0000 0.76820  0.70810  0.22690  Biso   1.000  H
  C96      1.0000 0.78224  0.75446  0.23670  Biso   1.000  C
  C97      1.0000 0.78035  0.77884  0.26940  Biso   1.000  C
  H73      1.0000 0.79080  0.79900  0.26300  Biso   1.000  H
  C98      1.0000 0.79930  0.75988  0.19070  Biso   1.000  C
  C99      1.0000 0.82300  0.73746  0.16950  Biso   1.000  C
  H74      1.0000 0.82700  0.71760  0.18380  Biso   1.000  H
  C100     1.0000 0.84100  0.74372  0.12720  Biso   1.000  C
  H75      1.0000 0.85670  0.72830  0.11340  Biso   1.000  H
  C101     1.0000 0.83494  0.77314  0.10690  Biso   1.000  C
  C102     1.0000 0.81110  0.79635  0.12680  Biso   1.000  C
  H76      1.0000 0.80700  0.81610  0.11230  Biso   1.000  H
  C103     1.0000 0.79380  0.78931  0.16830  Biso   1.000  C
  H77      1.0000 0.77790  0.80470  0.18180  Biso   1.000  H
  C104     1.0000 0.85670  0.78330  0.06379  Biso   1.000  C
  C105     1.0000 0.02166  0.96282  0.43605  Biso   1.000  C
  C106     1.0000 0.03416  0.94417  0.39457  Biso   1.000  C
  C107     1.0000 0.06907  0.95003  0.37415  Biso   1.000  C
  H78      1.0000 0.08560  0.96510  0.38730  Biso   1.000  H
  C108     1.0000 0.07996  0.93413  0.33490  Biso   1.000  C
  H79      1.0000 0.10340  0.93910  0.32150  Biso   1.000  H
  C109     1.0000 0.05724  0.91107  0.31487  Biso   1.000  C
  C110     1.0000 0.02240  0.90423  0.33570  Biso   1.000  C
  H80      1.0000 0.00640  0.88840  0.32340  Biso   1.000  H
  C111     1.0000 0.01142  0.92103  0.37509  Biso   1.000  C
  H81      1.0000 0.98790  0.91640  0.38860  Biso   1.000  H
  C112     1.0000 0.06791  0.89432  0.27094  Biso   1.000  C
  C113     1.0000 0.10561  0.88887  0.25905  Biso   1.000  C
  H82      1.0000 0.12470  0.89540  0.27950  Biso   1.000  H
  C114     1.0000 0.03978  0.88465  0.23850  Biso   1.000  C
  H83      1.0000 0.01410  0.88830  0.24500  Biso   1.000  H
  C115     1.0000 0.04974  0.87006  0.19820  Biso   1.000  C
  C116     1.0000 0.08863  0.86582  0.18950  Biso   1.000  C
  H84      1.0000 0.09590  0.85640  0.16170  Biso   1.000  H
  C117     1.0000 0.02175  0.85861  0.16450  Biso   1.000  C
  C118     1.0000 0.99120  0.87655  0.15140  Biso   1.000  C
  H85      1.0000 0.98710  0.89660  0.16500  Biso   1.000  H
  C119     1.0000 0.96611  0.86570  0.11840  Biso   1.000  C
  H86      1.0000 0.94550  0.87860  0.10960  Biso   1.000  H
  C120     1.0000 0.97130  0.83548  0.09800  Biso   1.000  C
  C121     1.0000 0.00210  0.81690  0.11140  Biso   1.000  C
  H87      1.0000 0.00600  0.79660  0.09860  Biso   1.000  H
  C122     1.0000 0.02657  0.82860  0.14360  Biso   1.000  C
  H88      1.0000 0.04750  0.81600  0.15200  Biso   1.000  H
  C123     1.0000 0.94350  0.82353  0.06020  Biso   1.000  C
  C124     1.0000 0.17274  0.86597  0.02670  Biso   1.000  C
  H89      1.0000 0.16320  0.88660  0.03790  Biso   1.000  H
  H90      1.0000 0.15580  0.84910  0.03790  Biso   1.000  H
  C125     1.0000 0.22480  0.82858  0.02671  Biso   1.000  C
  H91      1.0000 0.20820  0.81150  0.03800  Biso   1.000  H
  H92      1.0000 0.25050  0.82450  0.03800  Biso   1.000  H
  C126     1.0000 0.23520  0.88680  0.02737  Biso   1.000  C
  H93      1.0000 0.26120  0.88400  0.03870  Biso   1.000  H
  H94      1.0000 0.22570  0.90740  0.03870  Biso   1.000  H
  Cu5      1.0000 0.17140  0.86734  0.19857  Biso   1.000  Cu
  Cu6      1.0000 0.24252  0.88937  0.19252  Biso   1.000  Cu
  Cu7      1.0000 0.21215  0.86062  0.11713  Biso   1.000  Cu
  Cu8      1.0000 0.22993  0.82594  0.19302  Biso   1.000  Cu
  I5       1.0000 0.16664  0.81231  0.14358  Biso   1.000  I
  I6       1.0000 0.21740  0.86016  0.27006  Biso   1.000  I
  I7       1.0000 0.18628  0.91820  0.14346  Biso   1.000  I
  I8       1.0000 0.28599  0.85058  0.13907  Biso   1.000  I
  N5       1.0000 0.72140  0.07403  0.78752  Biso   1.000  N
  N6       1.0000 0.75083  0.71875  0.29005  Biso   1.000  N
  N7       1.0000 0.11610  0.87465  0.21947  Biso   1.000  N
  N8       1.0000 0.21104  0.86056  0.04437  Biso   1.000  N
  O13      1.0000 0.52983  0.03503  0.95248  Biso   1.000  O
  O14      1.0000 0.54639  0.98221  0.95186  Biso   1.000  O
  O15      1.0000 0.69664  0.94915  0.54839  Biso   1.000  O
  O16      1.0000 0.75923  0.95927  0.54970  Biso   1.000  O
  O17      1.0000 0.71295  0.88455  0.45354  Biso   1.000  O
  O18      1.0000 0.77691  0.89393  0.45283  Biso   1.000  O
  O19      1.0000 0.98910  0.95682  0.45165  Biso   1.000  O
  O20      1.0000 0.04525  0.98344  0.45149  Biso   1.000  O
  O21      1.0000 0.91828  0.84325  0.04675  Biso   1.000  O
  O22      1.0000 0.94822  0.79503  0.04691  Biso   1.000  O
  O23      1.0000 0.85031  0.81095  0.04806  Biso   1.000  O
  O24      1.0000 0.87976  0.76248  0.04868  Biso   1.000  O
  C127     1.0000 0.85900  0.91970  0.47350  Biso   1.000  C
  H95      1.0000 0.84070  0.93470  0.46010  Biso   1.000  H
  H96      1.0000 0.85610  0.89830  0.46010  Biso   1.000  H
  C128     1.0000 0.90140  0.93250  0.47290  Biso   1.000  C
  H97      1.0000 0.91960  0.91740  0.45940  Biso   1.000  H
  H98      1.0000 0.90420  0.95390  0.45940  Biso   1.000  H
  H99      1.0000 0.38240  0.49480  0.02710  Biso   1.000  H
  C129     1.0000 0.35370  0.56210  0.04670  Biso   1.000  C
  H100     1.0000 0.33880  0.55150  0.07060  Biso   1.000  H
  H101     1.0000 0.35400  0.58520  0.05320  Biso   1.000  H
  C130     1.0000 0.39460  0.54900  0.04680  Biso   1.000  C
  H102     1.0000 0.41210  0.56630  0.05500  Biso   1.000  H
  H103     1.0000 0.39680  0.53220  0.07000  Biso   1.000  H
  H104     1.0000 0.32370  0.51250  0.97290  Biso   1.000  H
  C131     1.0000 0.04876  0.48850  0.56140  Biso   1.000  C
  C132     1.0000 0.07897  0.48112  0.59690  Biso   1.000  C
  C133     1.0000 0.09900  0.50584  0.61840  Biso   1.000  C
  H105     1.0000 0.09330  0.52720  0.61110  Biso   1.000  H
  C134     1.0000 0.12720  0.49932  0.65020  Biso   1.000  C
  H106     1.0000 0.13990  0.51620  0.66470  Biso   1.000  H
  C135     1.0000 0.13674  0.46726  0.66070  Biso   1.000  C
  C136     1.0000 0.11670  0.44274  0.63960  Biso   1.000  C
  H107     1.0000 0.12240  0.42120  0.64620  Biso   1.000  H
  C137     1.0000 0.08760  0.45043  0.60810  Biso   1.000  C
  H108     1.0000 0.07390  0.43370  0.59440  Biso   1.000  H
  C138     1.0000 0.16809  0.45918  0.69407  Biso   1.000  C
  C139     1.0000 0.19310  0.43441  0.68480  Biso   1.000  C
  H109     1.0000 0.18990  0.42290  0.65750  Biso   1.000  H
  C140     1.0000 0.22608  0.44215  0.75120  Biso   1.000  C
  H110     1.0000 0.24580  0.43580  0.77090  Biso   1.000  H
  C141     1.0000 0.20369  0.46775  0.76421  Biso   1.000  C
  C142     1.0000 0.17387  0.47592  0.73460  Biso   1.000  C
  H111     1.0000 0.15760  0.49290  0.74230  Biso   1.000  H
  C143     1.0000 0.20940  0.48515  0.80993  Biso   1.000  C
  C144     1.0000 0.24561  0.48912  0.82850  Biso   1.000  C
  H112     1.0000 0.26690  0.48070  0.81330  Biso   1.000  H
  C145     1.0000 0.25011  0.50551  0.86945  Biso   1.000  C
  H113     1.0000 0.27450  0.50780  0.88180  Biso   1.000  H
  C146     1.0000 0.21983  0.51837  0.89213  Biso   1.000  C
  C147     1.0000 0.18396  0.51361  0.87560  Biso   1.000  C
  H114     1.0000 0.16300  0.52120  0.89210  Biso   1.000  H
  C148     1.0000 0.17847  0.49776  0.83500  Biso   1.000  C
  H115     1.0000 0.15370  0.49520  0.82360  Biso   1.000  H
  C149     1.0000 0.22580  0.53812  0.93369  Biso   1.000  C
  C150     1.0000 0.24670  0.62143  0.05906  Biso   1.000  C
  C151     1.0000 0.25260  0.64960  0.09173  Biso   1.000  C
  C152     1.0000 0.28680  0.65481  0.11360  Biso   1.000  C
  H116     1.0000 0.30740  0.64120  0.10770  Biso   1.000  H
  C153     1.0000 0.29100  0.67967  0.14390  Biso   1.000  C
  H117     1.0000 0.31440  0.68290  0.15840  Biso   1.000  H
  C154     1.0000 0.26100  0.70001  0.15320  Biso   1.000  C
  C155     1.0000 0.22670  0.69538  0.12980  Biso   1.000  C
  H118     1.0000 0.20620  0.70930  0.13490  Biso   1.000  H
  C156     1.0000 0.22320  0.67045  0.09950  Biso   1.000  C
  H119     1.0000 0.20030  0.66760  0.08370  Biso   1.000  H
  C157     1.0000 0.26315  0.72658  0.18866  Biso   1.000  C
  C158     1.0000 0.24951  0.75723  0.17988  Biso   1.000  C
  H120     1.0000 0.23870  0.76130  0.15110  Biso   1.000  H
  C159     1.0000 0.26715  0.77521  0.25157  Biso   1.000  C
  H121     1.0000 0.26820  0.79190  0.27310  Biso   1.000  H
  C160     1.0000 0.28224  0.74554  0.26330  Biso   1.000  C
  C161     1.0000 0.28035  0.72116  0.23060  Biso   1.000  C
  H122     1.0000 0.29080  0.70100  0.23700  Biso   1.000  H
  C162     1.0000 0.29930  0.74012  0.30930  Biso   1.000  C
  C163     1.0000 0.32300  0.76254  0.33050  Biso   1.000  C
  H123     1.0000 0.32700  0.78240  0.31620  Biso   1.000  H
  C164     1.0000 0.34100  0.75628  0.37280  Biso   1.000  C
  H124     1.0000 0.35670  0.77170  0.38660  Biso   1.000  H
  C165     1.0000 0.33494  0.72686  0.39310  Biso   1.000  C
  C166     1.0000 0.31110  0.70365  0.37320  Biso   1.000  C
  H125     1.0000 0.30700  0.68390  0.38770  Biso   1.000  H
  C167     1.0000 0.29380  0.71069  0.33170  Biso   1.000  C
  H126     1.0000 0.27790  0.69530  0.31820  Biso   1.000  H
  C168     1.0000 0.35670  0.71670  0.43621  Biso   1.000  C
  C169     1.0000 0.52166  0.53718  0.06395  Biso   1.000  C
  C170     1.0000 0.53416  0.55583  0.10543  Biso   1.000  C
  C171     1.0000 0.56907  0.54997  0.12585  Biso   1.000  C
  H127     1.0000 0.58560  0.53490  0.11270  Biso   1.000  H
  C172     1.0000 0.57996  0.56587  0.16510  Biso   1.000  C
  H128     1.0000 0.60340  0.56090  0.17850  Biso   1.000  H
  C173     1.0000 0.55724  0.58893  0.18513  Biso   1.000  C
  C174     1.0000 0.52240  0.59577  0.16430  Biso   1.000  C
  H129     1.0000 0.50640  0.61160  0.17660  Biso   1.000  H
  C175     1.0000 0.51142  0.57897  0.12491  Biso   1.000  C
  H130     1.0000 0.48790  0.58360  0.11140  Biso   1.000  H
  C176     1.0000 0.56791  0.60568  0.22906  Biso   1.000  C
  C177     1.0000 0.60561  0.61113  0.24095  Biso   1.000  C
  H131     1.0000 0.62470  0.60460  0.22050  Biso   1.000  H
  C178     1.0000 0.53978  0.61535  0.26150  Biso   1.000  C
  H132     1.0000 0.51410  0.61170  0.25500  Biso   1.000  H
  C179     1.0000 0.54974  0.62994  0.30180  Biso   1.000  C
  C180     1.0000 0.58863  0.63418  0.31050  Biso   1.000  C
  H133     1.0000 0.59590  0.64360  0.33830  Biso   1.000  H
  C181     1.0000 0.52175  0.64139  0.33550  Biso   1.000  C
  C182     1.0000 0.49120  0.62345  0.34860  Biso   1.000  C
  H134     1.0000 0.48710  0.60340  0.33500  Biso   1.000  H
  C183     1.0000 0.46611  0.63430  0.38160  Biso   1.000  C
  H135     1.0000 0.44550  0.62140  0.39040  Biso   1.000  H
  C184     1.0000 0.47130  0.66452  0.40200  Biso   1.000  C
  C185     1.0000 0.50210  0.68310  0.38860  Biso   1.000  C
  H136     1.0000 0.50600  0.70340  0.40140  Biso   1.000  H
  C186     1.0000 0.52657  0.67140  0.35640  Biso   1.000  C
  H137     1.0000 0.54750  0.68400  0.34800  Biso   1.000  H
  C187     1.0000 0.44350  0.67647  0.43980  Biso   1.000  C
  C188     1.0000 0.67274  0.63403  0.47330  Biso   1.000  C
  H138     1.0000 0.66320  0.61340  0.46210  Biso   1.000  H
  H139     1.0000 0.65580  0.65090  0.46210  Biso   1.000  H
  C189     1.0000 0.72480  0.67142  0.47329  Biso   1.000  C
  H140     1.0000 0.70820  0.68850  0.46200  Biso   1.000  H
  H141     1.0000 0.75050  0.67550  0.46200  Biso   1.000  H
  C190     1.0000 0.73520  0.61320  0.47263  Biso   1.000  C
  H142     1.0000 0.76120  0.61600  0.46130  Biso   1.000  H
  H143     1.0000 0.72570  0.59260  0.46130  Biso   1.000  H
  Cu9      1.0000 0.67140  0.63266  0.30143  Biso   1.000  Cu
  Cu10     1.0000 0.74252  0.61063  0.30748  Biso   1.000  Cu
  Cu11     1.0000 0.71215  0.63938  0.38287  Biso   1.000  Cu
  Cu12     1.0000 0.72993  0.67406  0.30698  Biso   1.000  Cu
  I9       1.0000 0.66664  0.68769  0.35642  Biso   1.000  I
  I10      1.0000 0.71740  0.63984  0.22994  Biso   1.000  I
  I11      1.0000 0.68628  0.58180  0.35654  Biso   1.000  I
  I12      1.0000 0.78599  0.64942  0.36093  Biso   1.000  I
  N9       1.0000 0.22140  0.42597  0.71248  Biso   1.000  N
  N10      1.0000 0.25083  0.78125  0.20995  Biso   1.000  N
  N11      1.0000 0.61610  0.62535  0.28053  Biso   1.000  N
  N12      1.0000 0.71104  0.63944  0.45563  Biso   1.000  N
  O25      1.0000 0.02983  0.46497  0.54752  Biso   1.000  O
  O26      1.0000 0.04639  0.51779  0.54814  Biso   1.000  O
  O27      1.0000 0.19664  0.55085  0.95161  Biso   1.000  O
  O28      1.0000 0.25923  0.54073  0.95030  Biso   1.000  O
  O29      1.0000 0.21295  0.61545  0.04646  Biso   1.000  O
  O30      1.0000 0.27691  0.60607  0.04717  Biso   1.000  O
  O31      1.0000 0.48910  0.54318  0.04835  Biso   1.000  O
  O32      1.0000 0.54525  0.51656  0.04851  Biso   1.000  O
  O33      1.0000 0.41828  0.65675  0.45325  Biso   1.000  O
  O34      1.0000 0.44822  0.70497  0.45309  Biso   1.000  O
  O35      1.0000 0.35031  0.68905  0.45194  Biso   1.000  O
  O36      1.0000 0.37976  0.73752  0.45132  Biso   1.000  O
  C191     1.0000 0.35900  0.58030  0.02650  Biso   1.000  C
  H144     1.0000 0.34070  0.56530  0.03990  Biso   1.000  H
  H145     1.0000 0.35610  0.60170  0.03990  Biso   1.000  H
  C192     1.0000 0.40140  0.56750  0.02710  Biso   1.000  C
  H146     1.0000 0.41960  0.58260  0.04060  Biso   1.000  H
  H147     1.0000 0.40420  0.54610  0.04060  Biso   1.000  H
  H148     1.0000 0.61760  0.50520  0.02710  Biso   1.000  H
  C193     1.0000 0.64630  0.43790  0.04670  Biso   1.000  C
  H149     1.0000 0.66120  0.44850  0.07060  Biso   1.000  H
  H150     1.0000 0.64600  0.41480  0.05320  Biso   1.000  H
  C194     1.0000 0.60540  0.45100  0.04680  Biso   1.000  C
  H151     1.0000 0.58790  0.43370  0.05500  Biso   1.000  H
  H152     1.0000 0.60320  0.46780  0.07000  Biso   1.000  H
  H153     1.0000 0.67630  0.48750  0.97290  Biso   1.000  H
  C195     1.0000 0.95124  0.51150  0.56140  Biso   1.000  C
  C196     1.0000 0.92103  0.51888  0.59690  Biso   1.000  C
  C197     1.0000 0.90100  0.49416  0.61840  Biso   1.000  C
  H154     1.0000 0.90670  0.47280  0.61110  Biso   1.000  H
  C198     1.0000 0.87280  0.50068  0.65020  Biso   1.000  C
  H155     1.0000 0.86010  0.48380  0.66470  Biso   1.000  H
  C199     1.0000 0.86326  0.53274  0.66070  Biso   1.000  C
  C200     1.0000 0.88330  0.55726  0.63960  Biso   1.000  C
  H156     1.0000 0.87760  0.57880  0.64620  Biso   1.000  H
  C201     1.0000 0.91240  0.54957  0.60810  Biso   1.000  C
  H157     1.0000 0.92610  0.56630  0.59440  Biso   1.000  H
  C202     1.0000 0.83191  0.54082  0.69407  Biso   1.000  C
  C203     1.0000 0.80690  0.56559  0.68480  Biso   1.000  C
  H158     1.0000 0.81010  0.57710  0.65750  Biso   1.000  H
  C204     1.0000 0.77392  0.55785  0.75120  Biso   1.000  C
  H159     1.0000 0.75420  0.56420  0.77090  Biso   1.000  H
  C205     1.0000 0.79631  0.53225  0.76421  Biso   1.000  C
  C206     1.0000 0.82613  0.52408  0.73460  Biso   1.000  C
  H160     1.0000 0.84240  0.50710  0.74230  Biso   1.000  H
  C207     1.0000 0.79060  0.51485  0.80993  Biso   1.000  C
  C208     1.0000 0.75439  0.51088  0.82850  Biso   1.000  C
  H161     1.0000 0.73310  0.51930  0.81330  Biso   1.000  H
  C209     1.0000 0.74989  0.49449  0.86945  Biso   1.000  C
  H162     1.0000 0.72550  0.49220  0.88180  Biso   1.000  H
  C210     1.0000 0.78017  0.48163  0.89213  Biso   1.000  C
  C211     1.0000 0.81604  0.48639  0.87560  Biso   1.000  C
  H163     1.0000 0.83700  0.47880  0.89210  Biso   1.000  H
  C212     1.0000 0.82153  0.50224  0.83500  Biso   1.000  C
  H164     1.0000 0.84630  0.50480  0.82360  Biso   1.000  H
  C213     1.0000 0.77420  0.46188  0.93369  Biso   1.000  C
  C214     1.0000 0.75330  0.37857  0.05906  Biso   1.000  C
  C215     1.0000 0.74740  0.35040  0.09173  Biso   1.000  C
  C216     1.0000 0.71320  0.34519  0.11360  Biso   1.000  C
  H165     1.0000 0.69260  0.35880  0.10770  Biso   1.000  H
  C217     1.0000 0.70900  0.32033  0.14390  Biso   1.000  C
  H166     1.0000 0.68560  0.31710  0.15840  Biso   1.000  H
  C218     1.0000 0.73900  0.29999  0.15320  Biso   1.000  C
  C219     1.0000 0.77330  0.30462  0.12980  Biso   1.000  C
  H167     1.0000 0.79380  0.29070  0.13490  Biso   1.000  H
  C220     1.0000 0.77680  0.32955  0.09950  Biso   1.000  C
  H168     1.0000 0.79970  0.33240  0.08370  Biso   1.000  H
  C221     1.0000 0.73685  0.27342  0.18866  Biso   1.000  C
  C222     1.0000 0.75049  0.24277  0.17988  Biso   1.000  C
  H169     1.0000 0.76130  0.23870  0.15110  Biso   1.000  H
  C223     1.0000 0.73285  0.22479  0.25157  Biso   1.000  C
  H170     1.0000 0.73180  0.20810  0.27310  Biso   1.000  H
  C224     1.0000 0.71776  0.25446  0.26330  Biso   1.000  C
  C225     1.0000 0.71965  0.27884  0.23060  Biso   1.000  C
  H171     1.0000 0.70920  0.29900  0.23700  Biso   1.000  H
  C226     1.0000 0.70070  0.25988  0.30930  Biso   1.000  C
  C227     1.0000 0.67700  0.23746  0.33050  Biso   1.000  C
  H172     1.0000 0.67300  0.21760  0.31620  Biso   1.000  H
  C228     1.0000 0.65900  0.24372  0.37280  Biso   1.000  C
  H173     1.0000 0.64330  0.22830  0.38660  Biso   1.000  H
  C229     1.0000 0.66506  0.27314  0.39310  Biso   1.000  C
  C230     1.0000 0.68890  0.29635  0.37320  Biso   1.000  C
  H174     1.0000 0.69300  0.31610  0.38770  Biso   1.000  H
  C231     1.0000 0.70620  0.28931  0.33170  Biso   1.000  C
  H175     1.0000 0.72210  0.30470  0.31820  Biso   1.000  H
  C232     1.0000 0.64330  0.28330  0.43621  Biso   1.000  C
  C233     1.0000 0.47834  0.46282  0.06395  Biso   1.000  C
  C234     1.0000 0.46584  0.44417  0.10543  Biso   1.000  C
  C235     1.0000 0.43093  0.45003  0.12585  Biso   1.000  C
  H176     1.0000 0.41440  0.46510  0.11270  Biso   1.000  H
  C236     1.0000 0.42004  0.43413  0.16510  Biso   1.000  C
  H177     1.0000 0.39660  0.43910  0.17850  Biso   1.000  H
  C237     1.0000 0.44276  0.41107  0.18513  Biso   1.000  C
  C238     1.0000 0.47760  0.40423  0.16430  Biso   1.000  C
  H178     1.0000 0.49360  0.38840  0.17660  Biso   1.000  H
  C239     1.0000 0.48858  0.42103  0.12491  Biso   1.000  C
  H179     1.0000 0.51210  0.41640  0.11140  Biso   1.000  H
  C240     1.0000 0.43209  0.39432  0.22906  Biso   1.000  C
  C241     1.0000 0.39439  0.38887  0.24095  Biso   1.000  C
  H180     1.0000 0.37530  0.39540  0.22050  Biso   1.000  H
  C242     1.0000 0.46022  0.38465  0.26150  Biso   1.000  C
  H181     1.0000 0.48590  0.38830  0.25500  Biso   1.000  H
  C243     1.0000 0.45026  0.37006  0.30180  Biso   1.000  C
  C244     1.0000 0.41137  0.36582  0.31050  Biso   1.000  C
  H182     1.0000 0.40410  0.35640  0.33830  Biso   1.000  H
  C245     1.0000 0.47825  0.35861  0.33550  Biso   1.000  C
  C246     1.0000 0.50880  0.37655  0.34860  Biso   1.000  C
  H183     1.0000 0.51290  0.39660  0.33500  Biso   1.000  H
  C247     1.0000 0.53389  0.36570  0.38160  Biso   1.000  C
  H184     1.0000 0.55450  0.37860  0.39040  Biso   1.000  H
  C248     1.0000 0.52870  0.33548  0.40200  Biso   1.000  C
  C249     1.0000 0.49790  0.31690  0.38860  Biso   1.000  C
  H185     1.0000 0.49400  0.29660  0.40140  Biso   1.000  H
  C250     1.0000 0.47343  0.32860  0.35640  Biso   1.000  C
  H186     1.0000 0.45250  0.31600  0.34800  Biso   1.000  H
  C251     1.0000 0.55650  0.32353  0.43980  Biso   1.000  C
  C252     1.0000 0.32726  0.36597  0.47330  Biso   1.000  C
  H187     1.0000 0.33680  0.38660  0.46210  Biso   1.000  H
  H188     1.0000 0.34420  0.34910  0.46210  Biso   1.000  H
  C253     1.0000 0.27520  0.32858  0.47329  Biso   1.000  C
  H189     1.0000 0.29180  0.31150  0.46200  Biso   1.000  H
  H190     1.0000 0.24950  0.32450  0.46200  Biso   1.000  H
  C254     1.0000 0.26480  0.38680  0.47263  Biso   1.000  C
  H191     1.0000 0.23880  0.38400  0.46130  Biso   1.000  H
  H192     1.0000 0.27430  0.40740  0.46130  Biso   1.000  H
  Cu13     1.0000 0.32860  0.36734  0.30143  Biso   1.000  Cu
  Cu14     1.0000 0.25748  0.38937  0.30748  Biso   1.000  Cu
  Cu15     1.0000 0.28785  0.36062  0.38287  Biso   1.000  Cu
  Cu16     1.0000 0.27007  0.32594  0.30698  Biso   1.000  Cu
  I13      1.0000 0.33336  0.31231  0.35642  Biso   1.000  I
  I14      1.0000 0.28260  0.36016  0.22994  Biso   1.000  I
  I15      1.0000 0.31372  0.41820  0.35654  Biso   1.000  I
  I16      1.0000 0.21401  0.35058  0.36093  Biso   1.000  I
  N13      1.0000 0.77860  0.57403  0.71248  Biso   1.000  N
  N14      1.0000 0.74917  0.21875  0.20995  Biso   1.000  N
  N15      1.0000 0.38390  0.37465  0.28053  Biso   1.000  N
  N16      1.0000 0.28896  0.36056  0.45563  Biso   1.000  N
  O37      1.0000 0.97017  0.53503  0.54752  Biso   1.000  O
  O38      1.0000 0.95361  0.48221  0.54814  Biso   1.000  O
  O39      1.0000 0.80336  0.44915  0.95161  Biso   1.000  O
  O40      1.0000 0.74077  0.45927  0.95030  Biso   1.000  O
  O41      1.0000 0.78705  0.38455  0.04646  Biso   1.000  O
  O42      1.0000 0.72309  0.39393  0.04717  Biso   1.000  O
  O43      1.0000 0.51090  0.45682  0.04835  Biso   1.000  O
  O44      1.0000 0.45475  0.48344  0.04851  Biso   1.000  O
  O45      1.0000 0.58172  0.34325  0.45325  Biso   1.000  O
  O46      1.0000 0.55178  0.29503  0.45309  Biso   1.000  O
  O47      1.0000 0.64969  0.31095  0.45194  Biso   1.000  O
  O48      1.0000 0.62024  0.26248  0.45132  Biso   1.000  O
  C255     1.0000 0.64100  0.41970  0.02650  Biso   1.000  C
  H193     1.0000 0.65930  0.43470  0.03990  Biso   1.000  H
  H194     1.0000 0.64390  0.39830  0.03990  Biso   1.000  H
  C256     1.0000 0.59860  0.43250  0.02710  Biso   1.000  C
  H195     1.0000 0.58040  0.41740  0.04060  Biso   1.000  H
  H196     1.0000 0.59580  0.45390  0.04060  Biso   1.000  H
  H197     1.0000 0.88240  0.00520  0.52710  Biso   1.000  H
  C257     1.0000 0.85370  0.93790  0.54670  Biso   1.000  C
  H198     1.0000 0.83880  0.94850  0.57060  Biso   1.000  H
  H199     1.0000 0.85400  0.91480  0.55320  Biso   1.000  H
  C258     1.0000 0.89460  0.95100  0.54680  Biso   1.000  C
  H200     1.0000 0.91210  0.93370  0.55500  Biso   1.000  H
  H201     1.0000 0.89680  0.96780  0.57000  Biso   1.000  H
  H202     1.0000 0.82370  0.98750  0.47290  Biso   1.000  H
  C259     1.0000 0.54876  0.01150  0.06140  Biso   1.000  C
  C260     1.0000 0.57897  0.01888  0.09690  Biso   1.000  C
  C261     1.0000 0.59900  0.99416  0.11840  Biso   1.000  C
  H203     1.0000 0.59330  0.97280  0.11110  Biso   1.000  H
  C262     1.0000 0.62720  0.00068  0.15020  Biso   1.000  C
  H204     1.0000 0.63990  0.98380  0.16470  Biso   1.000  H
  C263     1.0000 0.63674  0.03274  0.16070  Biso   1.000  C
  C264     1.0000 0.61670  0.05726  0.13960  Biso   1.000  C
  H205     1.0000 0.62240  0.07880  0.14620  Biso   1.000  H
  C265     1.0000 0.58760  0.04957  0.10810  Biso   1.000  C
  H206     1.0000 0.57390  0.06630  0.09440  Biso   1.000  H
  C266     1.0000 0.66809  0.04082  0.19407  Biso   1.000  C
  C267     1.0000 0.69310  0.06559  0.18480  Biso   1.000  C
  H207     1.0000 0.68990  0.07710  0.15750  Biso   1.000  H
  C268     1.0000 0.72608  0.05785  0.25120  Biso   1.000  C
  H208     1.0000 0.74580  0.06420  0.27090  Biso   1.000  H
  C269     1.0000 0.70369  0.03225  0.26421  Biso   1.000  C
  C270     1.0000 0.67387  0.02408  0.23460  Biso   1.000  C
  H209     1.0000 0.65760  0.00710  0.24230  Biso   1.000  H
  C271     1.0000 0.70940  0.01485  0.30993  Biso   1.000  C
  C272     1.0000 0.74561  0.01088  0.32850  Biso   1.000  C
  H210     1.0000 0.76690  0.01930  0.31330  Biso   1.000  H
  C273     1.0000 0.75011  0.99449  0.36945  Biso   1.000  C
  H211     1.0000 0.77450  0.99220  0.38180  Biso   1.000  H
  C274     1.0000 0.71983  0.98163  0.39213  Biso   1.000  C
  C275     1.0000 0.68396  0.98639  0.37560  Biso   1.000  C
  H212     1.0000 0.66300  0.97880  0.39210  Biso   1.000  H
  C276     1.0000 0.67847  0.00224  0.33500  Biso   1.000  C
  H213     1.0000 0.65370  0.00480  0.32360  Biso   1.000  H
  C277     1.0000 0.72580  0.96188  0.43369  Biso   1.000  C
  C278     1.0000 0.74670  0.87857  0.55906  Biso   1.000  C
  C279     1.0000 0.75260  0.85040  0.59173  Biso   1.000  C
  C280     1.0000 0.78680  0.84519  0.61360  Biso   1.000  C
  H214     1.0000 0.80740  0.85880  0.60770  Biso   1.000  H
  C281     1.0000 0.79100  0.82033  0.64390  Biso   1.000  C
  H215     1.0000 0.81440  0.81710  0.65840  Biso   1.000  H
  C282     1.0000 0.76100  0.79999  0.65320  Biso   1.000  C
  C283     1.0000 0.72670  0.80462  0.62980  Biso   1.000  C
  H216     1.0000 0.70620  0.79070  0.63490  Biso   1.000  H
  C284     1.0000 0.72320  0.82955  0.59950  Biso   1.000  C
  H217     1.0000 0.70030  0.83240  0.58370  Biso   1.000  H
  C285     1.0000 0.76315  0.77342  0.68866  Biso   1.000  C
  C286     1.0000 0.74951  0.74277  0.67988  Biso   1.000  C
  H218     1.0000 0.73870  0.73870  0.65110  Biso   1.000  H
  C287     1.0000 0.76715  0.72479  0.75157  Biso   1.000  C
  H219     1.0000 0.76820  0.70810  0.77310  Biso   1.000  H
  C288     1.0000 0.78224  0.75446  0.76330  Biso   1.000  C
  C289     1.0000 0.78035  0.77884  0.73060  Biso   1.000  C
  H220     1.0000 0.79080  0.79900  0.73700  Biso   1.000  H
  C290     1.0000 0.79930  0.75988  0.80930  Biso   1.000  C
  C291     1.0000 0.82300  0.73746  0.83050  Biso   1.000  C
  H221     1.0000 0.82700  0.71760  0.81620  Biso   1.000  H
  C292     1.0000 0.84100  0.74372  0.87280  Biso   1.000  C
  H222     1.0000 0.85670  0.72830  0.88660  Biso   1.000  H
  C293     1.0000 0.83494  0.77314  0.89310  Biso   1.000  C
  C294     1.0000 0.81110  0.79635  0.87320  Biso   1.000  C
  H223     1.0000 0.80700  0.81610  0.88770  Biso   1.000  H
  C295     1.0000 0.79380  0.78931  0.83170  Biso   1.000  C
  H224     1.0000 0.77790  0.80470  0.81820  Biso   1.000  H
  C296     1.0000 0.85670  0.78330  0.93621  Biso   1.000  C
  C297     1.0000 0.02166  0.96282  0.56395  Biso   1.000  C
  C298     1.0000 0.03416  0.94417  0.60543  Biso   1.000  C
  C299     1.0000 0.06907  0.95003  0.62585  Biso   1.000  C
  H225     1.0000 0.08560  0.96510  0.61270  Biso   1.000  H
  C300     1.0000 0.07996  0.93413  0.66510  Biso   1.000  C
  H226     1.0000 0.10340  0.93910  0.67850  Biso   1.000  H
  C301     1.0000 0.05724  0.91107  0.68513  Biso   1.000  C
  C302     1.0000 0.02240  0.90423  0.66430  Biso   1.000  C
  H227     1.0000 0.00640  0.88840  0.67660  Biso   1.000  H
  C303     1.0000 0.01142  0.92103  0.62491  Biso   1.000  C
  H228     1.0000 0.98790  0.91640  0.61140  Biso   1.000  H
  C304     1.0000 0.06791  0.89432  0.72906  Biso   1.000  C
  C305     1.0000 0.10561  0.88887  0.74095  Biso   1.000  C
  H229     1.0000 0.12470  0.89540  0.72050  Biso   1.000  H
  C306     1.0000 0.03978  0.88465  0.76150  Biso   1.000  C
  H230     1.0000 0.01410  0.88830  0.75500  Biso   1.000  H
  C307     1.0000 0.04974  0.87006  0.80180  Biso   1.000  C
  C308     1.0000 0.08863  0.86582  0.81050  Biso   1.000  C
  H231     1.0000 0.09590  0.85640  0.83830  Biso   1.000  H
  C309     1.0000 0.02175  0.85861  0.83550  Biso   1.000  C
  C310     1.0000 0.99120  0.87655  0.84860  Biso   1.000  C
  H232     1.0000 0.98710  0.89660  0.83500  Biso   1.000  H
  C311     1.0000 0.96611  0.86570  0.88160  Biso   1.000  C
  H233     1.0000 0.94550  0.87860  0.89040  Biso   1.000  H
  C312     1.0000 0.97130  0.83548  0.90200  Biso   1.000  C
  C313     1.0000 0.00210  0.81690  0.88860  Biso   1.000  C
  H234     1.0000 0.00600  0.79660  0.90140  Biso   1.000  H
  C314     1.0000 0.02657  0.82860  0.85640  Biso   1.000  C
  H235     1.0000 0.04750  0.81600  0.84800  Biso   1.000  H
  C315     1.0000 0.94350  0.82353  0.93980  Biso   1.000  C
  C316     1.0000 0.17274  0.86597  0.97330  Biso   1.000  C
  H236     1.0000 0.16320  0.88660  0.96210  Biso   1.000  H
  H237     1.0000 0.15580  0.84910  0.96210  Biso   1.000  H
  C317     1.0000 0.22480  0.82858  0.97329  Biso   1.000  C
  H238     1.0000 0.20820  0.81150  0.96200  Biso   1.000  H
  H239     1.0000 0.25050  0.82450  0.96200  Biso   1.000  H
  C318     1.0000 0.23520  0.88680  0.97263  Biso   1.000  C
  H240     1.0000 0.26120  0.88400  0.96130  Biso   1.000  H
  H241     1.0000 0.22570  0.90740  0.96130  Biso   1.000  H
  Cu17     1.0000 0.17140  0.86734  0.80143  Biso   1.000  Cu
  Cu18     1.0000 0.24252  0.88937  0.80748  Biso   1.000  Cu
  Cu19     1.0000 0.21215  0.86062  0.88287  Biso   1.000  Cu
  Cu20     1.0000 0.22993  0.82594  0.80698  Biso   1.000  Cu
  I17      1.0000 0.16664  0.81231  0.85642  Biso   1.000  I
  I18      1.0000 0.21740  0.86016  0.72994  Biso   1.000  I
  I19      1.0000 0.18628  0.91820  0.85654  Biso   1.000  I
  I20      1.0000 0.28599  0.85058  0.86093  Biso   1.000  I
  N17      1.0000 0.72140  0.07403  0.21248  Biso   1.000  N
  N18      1.0000 0.75083  0.71875  0.70995  Biso   1.000  N
  N19      1.0000 0.11610  0.87465  0.78053  Biso   1.000  N
  N20      1.0000 0.21104  0.86056  0.95563  Biso   1.000  N
  O49      1.0000 0.52983  0.03503  0.04752  Biso   1.000  O
  O50      1.0000 0.54639  0.98221  0.04814  Biso   1.000  O
  O51      1.0000 0.69664  0.94915  0.45161  Biso   1.000  O
  O52      1.0000 0.75923  0.95927  0.45030  Biso   1.000  O
  O53      1.0000 0.71295  0.88455  0.54646  Biso   1.000  O
  O54      1.0000 0.77691  0.89393  0.54717  Biso   1.000  O
  O55      1.0000 0.98910  0.95682  0.54835  Biso   1.000  O
  O56      1.0000 0.04525  0.98344  0.54851  Biso   1.000  O
  O57      1.0000 0.91828  0.84325  0.95325  Biso   1.000  O
  O58      1.0000 0.94822  0.79503  0.95309  Biso   1.000  O
  O59      1.0000 0.85031  0.81095  0.95194  Biso   1.000  O
  O60      1.0000 0.87976  0.76248  0.95132  Biso   1.000  O
  C319     1.0000 0.85900  0.91970  0.52650  Biso   1.000  C
  H242     1.0000 0.84070  0.93470  0.53990  Biso   1.000  H
  H243     1.0000 0.85610  0.89830  0.53990  Biso   1.000  H
  C320     1.0000 0.90140  0.93250  0.52710  Biso   1.000  C
  H244     1.0000 0.91960  0.91740  0.54060  Biso   1.000  H
  H245     1.0000 0.90420  0.95390  0.54060  Biso   1.000  H
  H246     1.0000 0.11760  0.99480  0.52710  Biso   1.000  H
  C321     1.0000 0.14630  0.06210  0.54670  Biso   1.000  C
  H247     1.0000 0.16120  0.05150  0.57060  Biso   1.000  H
  H248     1.0000 0.14600  0.08520  0.55320  Biso   1.000  H
  C322     1.0000 0.10540  0.04900  0.54680  Biso   1.000  C
  H249     1.0000 0.08790  0.06630  0.55500  Biso   1.000  H
  H250     1.0000 0.10320  0.03220  0.57000  Biso   1.000  H
  H251     1.0000 0.17630  0.01250  0.47290  Biso   1.000  H
  C323     1.0000 0.45124  0.98850  0.06140  Biso   1.000  C
  C324     1.0000 0.42103  0.98112  0.09690  Biso   1.000  C
  C325     1.0000 0.40100  0.00584  0.11840  Biso   1.000  C
  H252     1.0000 0.40670  0.02720  0.11110  Biso   1.000  H
  C326     1.0000 0.37280  0.99932  0.15020  Biso   1.000  C
  H253     1.0000 0.36010  0.01620  0.16470  Biso   1.000  H
  C327     1.0000 0.36326  0.96726  0.16070  Biso   1.000  C
  C328     1.0000 0.38330  0.94274  0.13960  Biso   1.000  C
  H254     1.0000 0.37760  0.92120  0.14620  Biso   1.000  H
  C329     1.0000 0.41240  0.95043  0.10810  Biso   1.000  C
  H255     1.0000 0.42610  0.93370  0.09440  Biso   1.000  H
  C330     1.0000 0.33191  0.95918  0.19407  Biso   1.000  C
  C331     1.0000 0.30690  0.93441  0.18480  Biso   1.000  C
  H256     1.0000 0.31010  0.92290  0.15750  Biso   1.000  H
  C332     1.0000 0.27392  0.94215  0.25120  Biso   1.000  C
  H257     1.0000 0.25420  0.93580  0.27090  Biso   1.000  H
  C333     1.0000 0.29631  0.96775  0.26421  Biso   1.000  C
  C334     1.0000 0.32613  0.97592  0.23460  Biso   1.000  C
  H258     1.0000 0.34240  0.99290  0.24230  Biso   1.000  H
  C335     1.0000 0.29060  0.98515  0.30993  Biso   1.000  C
  C336     1.0000 0.25439  0.98912  0.32850  Biso   1.000  C
  H259     1.0000 0.23310  0.98070  0.31330  Biso   1.000  H
  C337     1.0000 0.24989  0.00551  0.36945  Biso   1.000  C
  H260     1.0000 0.22550  0.00780  0.38180  Biso   1.000  H
  C338     1.0000 0.28017  0.01837  0.39213  Biso   1.000  C
  C339     1.0000 0.31604  0.01361  0.37560  Biso   1.000  C
  H261     1.0000 0.33700  0.02120  0.39210  Biso   1.000  H
  C340     1.0000 0.32153  0.99776  0.33500  Biso   1.000  C
  H262     1.0000 0.34630  0.99520  0.32360  Biso   1.000  H
  C341     1.0000 0.27420  0.03812  0.43369  Biso   1.000  C
  C342     1.0000 0.25330  0.12143  0.55906  Biso   1.000  C
  C343     1.0000 0.24740  0.14960  0.59173  Biso   1.000  C
  C344     1.0000 0.21320  0.15481  0.61360  Biso   1.000  C
  H263     1.0000 0.19260  0.14120  0.60770  Biso   1.000  H
  C345     1.0000 0.20900  0.17967  0.64390  Biso   1.000  C
  H264     1.0000 0.18560  0.18290  0.65840  Biso   1.000  H
  C346     1.0000 0.23900  0.20001  0.65320  Biso   1.000  C
  C347     1.0000 0.27330  0.19538  0.62980  Biso   1.000  C
  H265     1.0000 0.29380  0.20930  0.63490  Biso   1.000  H
  C348     1.0000 0.27680  0.17045  0.59950  Biso   1.000  C
  H266     1.0000 0.29970  0.16760  0.58370  Biso   1.000  H
  C349     1.0000 0.23685  0.22658  0.68866  Biso   1.000  C
  C350     1.0000 0.25049  0.25723  0.67988  Biso   1.000  C
  H267     1.0000 0.26130  0.26130  0.65110  Biso   1.000  H
  C351     1.0000 0.23285  0.27521  0.75157  Biso   1.000  C
  H268     1.0000 0.23180  0.29190  0.77310  Biso   1.000  H
  C352     1.0000 0.21776  0.24554  0.76330  Biso   1.000  C
  C353     1.0000 0.21965  0.22116  0.73060  Biso   1.000  C
  H269     1.0000 0.20920  0.20100  0.73700  Biso   1.000  H
  C354     1.0000 0.20070  0.24012  0.80930  Biso   1.000  C
  C355     1.0000 0.17700  0.26254  0.83050  Biso   1.000  C
  H270     1.0000 0.17300  0.28240  0.81620  Biso   1.000  H
  C356     1.0000 0.15900  0.25628  0.87280  Biso   1.000  C
  H271     1.0000 0.14330  0.27170  0.88660  Biso   1.000  H
  C357     1.0000 0.16506  0.22686  0.89310  Biso   1.000  C
  C358     1.0000 0.18890  0.20365  0.87320  Biso   1.000  C
  H272     1.0000 0.19300  0.18390  0.88770  Biso   1.000  H
  C359     1.0000 0.20620  0.21069  0.83170  Biso   1.000  C
  H273     1.0000 0.22210  0.19530  0.81820  Biso   1.000  H
  C360     1.0000 0.14330  0.21670  0.93621  Biso   1.000  C
  C361     1.0000 0.97834  0.03718  0.56395  Biso   1.000  C
  C362     1.0000 0.96584  0.05583  0.60543  Biso   1.000  C
  C363     1.0000 0.93093  0.04997  0.62585  Biso   1.000  C
  H274     1.0000 0.91440  0.03490  0.61270  Biso   1.000  H
  C364     1.0000 0.92004  0.06587  0.66510  Biso   1.000  C
  H275     1.0000 0.89660  0.06090  0.67850  Biso   1.000  H
  C365     1.0000 0.94276  0.08893  0.68513  Biso   1.000  C
  C366     1.0000 0.97760  0.09577  0.66430  Biso   1.000  C
  H276     1.0000 0.99360  0.11160  0.67660  Biso   1.000  H
  C367     1.0000 0.98858  0.07897  0.62491  Biso   1.000  C
  H277     1.0000 0.01210  0.08360  0.61140  Biso   1.000  H
  C368     1.0000 0.93209  0.10568  0.72906  Biso   1.000  C
  C369     1.0000 0.89439  0.11113  0.74095  Biso   1.000  C
  H278     1.0000 0.87530  0.10460  0.72050  Biso   1.000  H
  C370     1.0000 0.96022  0.11535  0.76150  Biso   1.000  C
  H279     1.0000 0.98590  0.11170  0.75500  Biso   1.000  H
  C371     1.0000 0.95026  0.12994  0.80180  Biso   1.000  C
  C372     1.0000 0.91137  0.13418  0.81050  Biso   1.000  C
  H280     1.0000 0.90410  0.14360  0.83830  Biso   1.000  H
  C373     1.0000 0.97825  0.14139  0.83550  Biso   1.000  C
  C374     1.0000 0.00880  0.12345  0.84860  Biso   1.000  C
  H281     1.0000 0.01290  0.10340  0.83500  Biso   1.000  H
  C375     1.0000 0.03389  0.13430  0.88160  Biso   1.000  C
  H282     1.0000 0.05450  0.12140  0.89040  Biso   1.000  H
  C376     1.0000 0.02870  0.16452  0.90200  Biso   1.000  C
  C377     1.0000 0.99790  0.18310  0.88860  Biso   1.000  C
  H283     1.0000 0.99400  0.20340  0.90140  Biso   1.000  H
  C378     1.0000 0.97343  0.17140  0.85640  Biso   1.000  C
  H284     1.0000 0.95250  0.18400  0.84800  Biso   1.000  H
  C379     1.0000 0.05650  0.17647  0.93980  Biso   1.000  C
  C380     1.0000 0.82726  0.13403  0.97330  Biso   1.000  C
  H285     1.0000 0.83680  0.11340  0.96210  Biso   1.000  H
  H286     1.0000 0.84420  0.15090  0.96210  Biso   1.000  H
  C381     1.0000 0.77520  0.17142  0.97329  Biso   1.000  C
  H287     1.0000 0.79180  0.18850  0.96200  Biso   1.000  H
  H288     1.0000 0.74950  0.17550  0.96200  Biso   1.000  H
  C382     1.0000 0.76480  0.11320  0.97263  Biso   1.000  C
  H289     1.0000 0.73880  0.11600  0.96130  Biso   1.000  H
  H290     1.0000 0.77430  0.09260  0.96130  Biso   1.000  H
  Cu21     1.0000 0.82860  0.13266  0.80143  Biso   1.000  Cu
  Cu22     1.0000 0.75748  0.11063  0.80748  Biso   1.000  Cu
  Cu23     1.0000 0.78785  0.13938  0.88287  Biso   1.000  Cu
  Cu24     1.0000 0.77007  0.17406  0.80698  Biso   1.000  Cu
  I21      1.0000 0.83336  0.18769  0.85642  Biso   1.000  I
  I22      1.0000 0.78260  0.13984  0.72994  Biso   1.000  I
  I23      1.0000 0.81372  0.08180  0.85654  Biso   1.000  I
  I24      1.0000 0.71401  0.14942  0.86093  Biso   1.000  I
  N21      1.0000 0.27860  0.92597  0.21248  Biso   1.000  N
  N22      1.0000 0.24917  0.28125  0.70995  Biso   1.000  N
  N23      1.0000 0.88390  0.12535  0.78053  Biso   1.000  N
  N24      1.0000 0.78896  0.13944  0.95563  Biso   1.000  N
  O61      1.0000 0.47017  0.96497  0.04752  Biso   1.000  O
  O62      1.0000 0.45361  0.01779  0.04814  Biso   1.000  O
  O63      1.0000 0.30336  0.05085  0.45161  Biso   1.000  O
  O64      1.0000 0.24077  0.04073  0.45030  Biso   1.000  O
  O65      1.0000 0.28705  0.11545  0.54646  Biso   1.000  O
  O66      1.0000 0.22309  0.10607  0.54717  Biso   1.000  O
  O67      1.0000 0.01090  0.04318  0.54835  Biso   1.000  O
  O68      1.0000 0.95475  0.01656  0.54851  Biso   1.000  O
  O69      1.0000 0.08172  0.15675  0.95325  Biso   1.000  O
  O70      1.0000 0.05178  0.20497  0.95309  Biso   1.000  O
  O71      1.0000 0.14969  0.18905  0.95194  Biso   1.000  O
  O72      1.0000 0.12024  0.23752  0.95132  Biso   1.000  O
  C383     1.0000 0.14100  0.08030  0.52650  Biso   1.000  C
  H291     1.0000 0.15930  0.06530  0.53990  Biso   1.000  H
  H292     1.0000 0.14390  0.10170  0.53990  Biso   1.000  H
  C384     1.0000 0.09860  0.06750  0.52710  Biso   1.000  C
  H293     1.0000 0.08040  0.08260  0.54060  Biso   1.000  H
  H294     1.0000 0.09580  0.04610  0.54060  Biso   1.000  H
  H295     1.0000 0.61760  0.50520  0.97290  Biso   1.000  H
  C385     1.0000 0.64630  0.43790  0.95330  Biso   1.000  C
  H296     1.0000 0.66120  0.44850  0.92940  Biso   1.000  H
  H297     1.0000 0.64600  0.41480  0.94680  Biso   1.000  H
  C386     1.0000 0.60540  0.45100  0.95320  Biso   1.000  C
  H298     1.0000 0.58790  0.43370  0.94500  Biso   1.000  H
  H299     1.0000 0.60320  0.46780  0.93000  Biso   1.000  H
  H300     1.0000 0.67630  0.48750  0.02710  Biso   1.000  H
  C387     1.0000 0.95124  0.51150  0.43860  Biso   1.000  C
  C388     1.0000 0.92103  0.51888  0.40310  Biso   1.000  C
  C389     1.0000 0.90100  0.49416  0.38160  Biso   1.000  C
  H301     1.0000 0.90670  0.47280  0.38890  Biso   1.000  H
  C390     1.0000 0.87280  0.50068  0.34980  Biso   1.000  C
  H302     1.0000 0.86010  0.48380  0.33530  Biso   1.000  H
  C391     1.0000 0.86326  0.53274  0.33930  Biso   1.000  C
  C392     1.0000 0.88330  0.55726  0.36040  Biso   1.000  C
  H303     1.0000 0.87760  0.57880  0.35380  Biso   1.000  H
  C393     1.0000 0.91240  0.54957  0.39190  Biso   1.000  C
  H304     1.0000 0.92610  0.56630  0.40560  Biso   1.000  H
  C394     1.0000 0.83191  0.54082  0.30593  Biso   1.000  C
  C395     1.0000 0.80690  0.56559  0.31520  Biso   1.000  C
  H305     1.0000 0.81010  0.57710  0.34250  Biso   1.000  H
  C396     1.0000 0.77392  0.55785  0.24880  Biso   1.000  C
  H306     1.0000 0.75420  0.56420  0.22910  Biso   1.000  H
  C397     1.0000 0.79631  0.53225  0.23579  Biso   1.000  C
  C398     1.0000 0.82613  0.52408  0.26540  Biso   1.000  C
  H307     1.0000 0.84240  0.50710  0.25770  Biso   1.000  H
  C399     1.0000 0.79060  0.51485  0.19007  Biso   1.000  C
  C400     1.0000 0.75439  0.51088  0.17150  Biso   1.000  C
  H308     1.0000 0.73310  0.51930  0.18670  Biso   1.000  H
  C401     1.0000 0.74989  0.49449  0.13055  Biso   1.000  C
  H309     1.0000 0.72550  0.49220  0.11820  Biso   1.000  H
  C402     1.0000 0.78017  0.48163  0.10787  Biso   1.000  C
  C403     1.0000 0.81604  0.48639  0.12440  Biso   1.000  C
  H310     1.0000 0.83700  0.47880  0.10790  Biso   1.000  H
  C404     1.0000 0.82153  0.50224  0.16500  Biso   1.000  C
  H311     1.0000 0.84630  0.50480  0.17640  Biso   1.000  H
  C405     1.0000 0.77420  0.46188  0.06631  Biso   1.000  C
  C406     1.0000 0.75330  0.37857  0.94094  Biso   1.000  C
  C407     1.0000 0.74740  0.35040  0.90827  Biso   1.000  C
  C408     1.0000 0.71320  0.34519  0.88640  Biso   1.000  C
  H312     1.0000 0.69260  0.35880  0.89230  Biso   1.000  H
  C409     1.0000 0.70900  0.32033  0.85610  Biso   1.000  C
  H313     1.0000 0.68560  0.31710  0.84160  Biso   1.000  H
  C410     1.0000 0.73900  0.29999  0.84680  Biso   1.000  C
  C411     1.0000 0.77330  0.30462  0.87020  Biso   1.000  C
  H314     1.0000 0.79380  0.29070  0.86510  Biso   1.000  H
  C412     1.0000 0.77680  0.32955  0.90050  Biso   1.000  C
  H315     1.0000 0.79970  0.33240  0.91630  Biso   1.000  H
  C413     1.0000 0.73685  0.27342  0.81134  Biso   1.000  C
  C414     1.0000 0.75049  0.24277  0.82012  Biso   1.000  C
  H316     1.0000 0.76130  0.23870  0.84890  Biso   1.000  H
  C415     1.0000 0.73285  0.22479  0.74843  Biso   1.000  C
  H317     1.0000 0.73180  0.20810  0.72690  Biso   1.000  H
  C416     1.0000 0.71776  0.25446  0.73670  Biso   1.000  C
  C417     1.0000 0.71965  0.27884  0.76940  Biso   1.000  C
  H318     1.0000 0.70920  0.29900  0.76300  Biso   1.000  H
  C418     1.0000 0.70070  0.25988  0.69070  Biso   1.000  C
  C419     1.0000 0.67700  0.23746  0.66950  Biso   1.000  C
  H319     1.0000 0.67300  0.21760  0.68380  Biso   1.000  H
  C420     1.0000 0.65900  0.24372  0.62720  Biso   1.000  C
  H320     1.0000 0.64330  0.22830  0.61340  Biso   1.000  H
  C421     1.0000 0.66506  0.27314  0.60690  Biso   1.000  C
  C422     1.0000 0.68890  0.29635  0.62680  Biso   1.000  C
  H321     1.0000 0.69300  0.31610  0.61230  Biso   1.000  H
  C423     1.0000 0.70620  0.28931  0.66830  Biso   1.000  C
  H322     1.0000 0.72210  0.30470  0.68180  Biso   1.000  H
  C424     1.0000 0.64330  0.28330  0.56379  Biso   1.000  C
  C425     1.0000 0.47834  0.46282  0.93605  Biso   1.000  C
  C426     1.0000 0.46584  0.44417  0.89457  Biso   1.000  C
  C427     1.0000 0.43093  0.45003  0.87415  Biso   1.000  C
  H323     1.0000 0.41440  0.46510  0.88730  Biso   1.000  H
  C428     1.0000 0.42004  0.43413  0.83490  Biso   1.000  C
  H324     1.0000 0.39660  0.43910  0.82150  Biso   1.000  H
  C429     1.0000 0.44276  0.41107  0.81487  Biso   1.000  C
  C430     1.0000 0.47760  0.40423  0.83570  Biso   1.000  C
  H325     1.0000 0.49360  0.38840  0.82340  Biso   1.000  H
  C431     1.0000 0.48858  0.42103  0.87509  Biso   1.000  C
  H326     1.0000 0.51210  0.41640  0.88860  Biso   1.000  H
  C432     1.0000 0.43209  0.39432  0.77094  Biso   1.000  C
  C433     1.0000 0.39439  0.38887  0.75905  Biso   1.000  C
  H327     1.0000 0.37530  0.39540  0.77950  Biso   1.000  H
  C434     1.0000 0.46022  0.38465  0.73850  Biso   1.000  C
  H328     1.0000 0.48590  0.38830  0.74500  Biso   1.000  H
  C435     1.0000 0.45026  0.37006  0.69820  Biso   1.000  C
  C436     1.0000 0.41137  0.36582  0.68950  Biso   1.000  C
  H329     1.0000 0.40410  0.35640  0.66170  Biso   1.000  H
  C437     1.0000 0.47825  0.35861  0.66450  Biso   1.000  C
  C438     1.0000 0.50880  0.37655  0.65140  Biso   1.000  C
  H330     1.0000 0.51290  0.39660  0.66500  Biso   1.000  H
  C439     1.0000 0.53389  0.36570  0.61840  Biso   1.000  C
  H331     1.0000 0.55450  0.37860  0.60960  Biso   1.000  H
  C440     1.0000 0.52870  0.33548  0.59800  Biso   1.000  C
  C441     1.0000 0.49790  0.31690  0.61140  Biso   1.000  C
  H332     1.0000 0.49400  0.29660  0.59860  Biso   1.000  H
  C442     1.0000 0.47343  0.32860  0.64360  Biso   1.000  C
  H333     1.0000 0.45250  0.31600  0.65200  Biso   1.000  H
  C443     1.0000 0.55650  0.32353  0.56020  Biso   1.000  C
  C444     1.0000 0.32726  0.36597  0.52670  Biso   1.000  C
  H334     1.0000 0.33680  0.38660  0.53790  Biso   1.000  H
  H335     1.0000 0.34420  0.34910  0.53790  Biso   1.000  H
  C445     1.0000 0.27520  0.32858  0.52671  Biso   1.000  C
  H336     1.0000 0.29180  0.31150  0.53800  Biso   1.000  H
  H337     1.0000 0.24950  0.32450  0.53800  Biso   1.000  H
  C446     1.0000 0.26480  0.38680  0.52737  Biso   1.000  C
  H338     1.0000 0.23880  0.38400  0.53870  Biso   1.000  H
  H339     1.0000 0.27430  0.40740  0.53870  Biso   1.000  H
  Cu25     1.0000 0.32860  0.36734  0.69857  Biso   1.000  Cu
  Cu26     1.0000 0.25748  0.38937  0.69252  Biso   1.000  Cu
  Cu27     1.0000 0.28785  0.36062  0.61713  Biso   1.000  Cu
  Cu28     1.0000 0.27007  0.32594  0.69302  Biso   1.000  Cu
  I25      1.0000 0.33336  0.31231  0.64358  Biso   1.000  I
  I26      1.0000 0.28260  0.36016  0.77006  Biso   1.000  I
  I27      1.0000 0.31372  0.41820  0.64346  Biso   1.000  I
  I28      1.0000 0.21401  0.35058  0.63907  Biso   1.000  I
  N25      1.0000 0.77860  0.57403  0.28752  Biso   1.000  N
  N26      1.0000 0.74917  0.21875  0.79005  Biso   1.000  N
  N27      1.0000 0.38390  0.37465  0.71947  Biso   1.000  N
  N28      1.0000 0.28896  0.36056  0.54437  Biso   1.000  N
  O73      1.0000 0.97017  0.53503  0.45248  Biso   1.000  O
  O74      1.0000 0.95361  0.48221  0.45186  Biso   1.000  O
  O75      1.0000 0.80336  0.44915  0.04839  Biso   1.000  O
  O76      1.0000 0.74077  0.45927  0.04970  Biso   1.000  O
  O77      1.0000 0.78705  0.38455  0.95354  Biso   1.000  O
  O78      1.0000 0.72309  0.39393  0.95283  Biso   1.000  O
  O79      1.0000 0.51090  0.45682  0.95165  Biso   1.000  O
  O80      1.0000 0.45475  0.48344  0.95149  Biso   1.000  O
  O81      1.0000 0.58172  0.34325  0.54675  Biso   1.000  O
  O82      1.0000 0.55178  0.29503  0.54691  Biso   1.000  O
  O83      1.0000 0.64969  0.31095  0.54806  Biso   1.000  O
  O84      1.0000 0.62024  0.26248  0.54868  Biso   1.000  O
  C447     1.0000 0.64100  0.41970  0.97350  Biso   1.000  C
  H340     1.0000 0.65930  0.43470  0.96010  Biso   1.000  H
  H341     1.0000 0.64390  0.39830  0.96010  Biso   1.000  H
  C448     1.0000 0.59860  0.43250  0.97290  Biso   1.000  C
  H342     1.0000 0.58040  0.41740  0.95940  Biso   1.000  H
  H343     1.0000 0.59580  0.45390  0.95940  Biso   1.000  H
  H344     1.0000 0.38240  0.49480  0.97290  Biso   1.000  H
  C449     1.0000 0.35370  0.56210  0.95330  Biso   1.000  C
  H345     1.0000 0.33880  0.55150  0.92940  Biso   1.000  H
  H346     1.0000 0.35400  0.58520  0.94680  Biso   1.000  H
  C450     1.0000 0.39460  0.54900  0.95320  Biso   1.000  C
  H347     1.0000 0.41210  0.56630  0.94500  Biso   1.000  H
  H348     1.0000 0.39680  0.53220  0.93000  Biso   1.000  H
  H349     1.0000 0.32370  0.51250  0.02710  Biso   1.000  H
  C451     1.0000 0.04876  0.48850  0.43860  Biso   1.000  C
  C452     1.0000 0.07897  0.48112  0.40310  Biso   1.000  C
  C453     1.0000 0.09900  0.50584  0.38160  Biso   1.000  C
  H350     1.0000 0.09330  0.52720  0.38890  Biso   1.000  H
  C454     1.0000 0.12720  0.49932  0.34980  Biso   1.000  C
  H351     1.0000 0.13990  0.51620  0.33530  Biso   1.000  H
  C455     1.0000 0.13674  0.46726  0.33930  Biso   1.000  C
  C456     1.0000 0.11670  0.44274  0.36040  Biso   1.000  C
  H352     1.0000 0.12240  0.42120  0.35380  Biso   1.000  H
  C457     1.0000 0.08760  0.45043  0.39190  Biso   1.000  C
  H353     1.0000 0.07390  0.43370  0.40560  Biso   1.000  H
  C458     1.0000 0.16809  0.45918  0.30593  Biso   1.000  C
  C459     1.0000 0.19310  0.43441  0.31520  Biso   1.000  C
  H354     1.0000 0.18990  0.42290  0.34250  Biso   1.000  H
  C460     1.0000 0.22608  0.44215  0.24880  Biso   1.000  C
  H355     1.0000 0.24580  0.43580  0.22910  Biso   1.000  H
  C461     1.0000 0.20369  0.46775  0.23579  Biso   1.000  C
  C462     1.0000 0.17387  0.47592  0.26540  Biso   1.000  C
  H356     1.0000 0.15760  0.49290  0.25770  Biso   1.000  H
  C463     1.0000 0.20940  0.48515  0.19007  Biso   1.000  C
  C464     1.0000 0.24561  0.48912  0.17150  Biso   1.000  C
  H357     1.0000 0.26690  0.48070  0.18670  Biso   1.000  H
  C465     1.0000 0.25011  0.50551  0.13055  Biso   1.000  C
  H358     1.0000 0.27450  0.50780  0.11820  Biso   1.000  H
  C466     1.0000 0.21983  0.51837  0.10787  Biso   1.000  C
  C467     1.0000 0.18396  0.51361  0.12440  Biso   1.000  C
  H359     1.0000 0.16300  0.52120  0.10790  Biso   1.000  H
  C468     1.0000 0.17847  0.49776  0.16500  Biso   1.000  C
  H360     1.0000 0.15370  0.49520  0.17640  Biso   1.000  H
  C469     1.0000 0.22580  0.53812  0.06631  Biso   1.000  C
  C470     1.0000 0.24670  0.62143  0.94094  Biso   1.000  C
  C471     1.0000 0.25260  0.64960  0.90827  Biso   1.000  C
  C472     1.0000 0.28680  0.65481  0.88640  Biso   1.000  C
  H361     1.0000 0.30740  0.64120  0.89230  Biso   1.000  H
  C473     1.0000 0.29100  0.67967  0.85610  Biso   1.000  C
  H362     1.0000 0.31440  0.68290  0.84160  Biso   1.000  H
  C474     1.0000 0.26100  0.70001  0.84680  Biso   1.000  C
  C475     1.0000 0.22670  0.69538  0.87020  Biso   1.000  C
  H363     1.0000 0.20620  0.70930  0.86510  Biso   1.000  H
  C476     1.0000 0.22320  0.67045  0.90050  Biso   1.000  C
  H364     1.0000 0.20030  0.66760  0.91630  Biso   1.000  H
  C477     1.0000 0.26315  0.72658  0.81134  Biso   1.000  C
  C478     1.0000 0.24951  0.75723  0.82012  Biso   1.000  C
  H365     1.0000 0.23870  0.76130  0.84890  Biso   1.000  H
  C479     1.0000 0.26715  0.77521  0.74843  Biso   1.000  C
  H366     1.0000 0.26820  0.79190  0.72690  Biso   1.000  H
  C480     1.0000 0.28224  0.74554  0.73670  Biso   1.000  C
  C481     1.0000 0.28035  0.72116  0.76940  Biso   1.000  C
  H367     1.0000 0.29080  0.70100  0.76300  Biso   1.000  H
  C482     1.0000 0.29930  0.74012  0.69070  Biso   1.000  C
  C483     1.0000 0.32300  0.76254  0.66950  Biso   1.000  C
  H368     1.0000 0.32700  0.78240  0.68380  Biso   1.000  H
  C484     1.0000 0.34100  0.75628  0.62720  Biso   1.000  C
  H369     1.0000 0.35670  0.77170  0.61340  Biso   1.000  H
  C485     1.0000 0.33494  0.72686  0.60690  Biso   1.000  C
  C486     1.0000 0.31110  0.70365  0.62680  Biso   1.000  C
  H370     1.0000 0.30700  0.68390  0.61230  Biso   1.000  H
  C487     1.0000 0.29380  0.71069  0.66830  Biso   1.000  C
  H371     1.0000 0.27790  0.69530  0.68180  Biso   1.000  H
  C488     1.0000 0.35670  0.71670  0.56379  Biso   1.000  C
  C489     1.0000 0.52166  0.53718  0.93605  Biso   1.000  C
  C490     1.0000 0.53416  0.55583  0.89457  Biso   1.000  C
  C491     1.0000 0.56907  0.54997  0.87415  Biso   1.000  C
  H372     1.0000 0.58560  0.53490  0.88730  Biso   1.000  H
  C492     1.0000 0.57996  0.56587  0.83490  Biso   1.000  C
  H373     1.0000 0.60340  0.56090  0.82150  Biso   1.000  H
  C493     1.0000 0.55724  0.58893  0.81487  Biso   1.000  C
  C494     1.0000 0.52240  0.59577  0.83570  Biso   1.000  C
  H374     1.0000 0.50640  0.61160  0.82340  Biso   1.000  H
  C495     1.0000 0.51142  0.57897  0.87509  Biso   1.000  C
  H375     1.0000 0.48790  0.58360  0.88860  Biso   1.000  H
  C496     1.0000 0.56791  0.60568  0.77094  Biso   1.000  C
  C497     1.0000 0.60561  0.61113  0.75905  Biso   1.000  C
  H376     1.0000 0.62470  0.60460  0.77950  Biso   1.000  H
  C498     1.0000 0.53978  0.61535  0.73850  Biso   1.000  C
  H377     1.0000 0.51410  0.61170  0.74500  Biso   1.000  H
  C499     1.0000 0.54974  0.62994  0.69820  Biso   1.000  C
  C500     1.0000 0.58863  0.63418  0.68950  Biso   1.000  C
  H378     1.0000 0.59590  0.64360  0.66170  Biso   1.000  H
  C501     1.0000 0.52175  0.64139  0.66450  Biso   1.000  C
  C502     1.0000 0.49120  0.62345  0.65140  Biso   1.000  C
  H379     1.0000 0.48710  0.60340  0.66500  Biso   1.000  H
  C503     1.0000 0.46611  0.63430  0.61840  Biso   1.000  C
  H380     1.0000 0.44550  0.62140  0.60960  Biso   1.000  H
  C504     1.0000 0.47130  0.66452  0.59800  Biso   1.000  C
  C505     1.0000 0.50210  0.68310  0.61140  Biso   1.000  C
  H381     1.0000 0.50600  0.70340  0.59860  Biso   1.000  H
  C506     1.0000 0.52657  0.67140  0.64360  Biso   1.000  C
  H382     1.0000 0.54750  0.68400  0.65200  Biso   1.000  H
  C507     1.0000 0.44350  0.67647  0.56020  Biso   1.000  C
  C508     1.0000 0.67274  0.63403  0.52670  Biso   1.000  C
  H383     1.0000 0.66320  0.61340  0.53790  Biso   1.000  H
  H384     1.0000 0.65580  0.65090  0.53790  Biso   1.000  H
  C509     1.0000 0.72480  0.67142  0.52671  Biso   1.000  C
  H385     1.0000 0.70820  0.68850  0.53800  Biso   1.000  H
  H386     1.0000 0.75050  0.67550  0.53800  Biso   1.000  H
  C510     1.0000 0.73520  0.61320  0.52737  Biso   1.000  C
  H387     1.0000 0.76120  0.61600  0.53870  Biso   1.000  H
  H388     1.0000 0.72570  0.59260  0.53870  Biso   1.000  H
  Cu29     1.0000 0.67140  0.63266  0.69857  Biso   1.000  Cu
  Cu30     1.0000 0.74252  0.61063  0.69252  Biso   1.000  Cu
  Cu31     1.0000 0.71215  0.63938  0.61713  Biso   1.000  Cu
  Cu32     1.0000 0.72993  0.67406  0.69302  Biso   1.000  Cu
  I29      1.0000 0.66664  0.68769  0.64358  Biso   1.000  I
  I30      1.0000 0.71740  0.63984  0.77006  Biso   1.000  I
  I31      1.0000 0.68628  0.58180  0.64346  Biso   1.000  I
  I32      1.0000 0.78599  0.64942  0.63907  Biso   1.000  I
  N29      1.0000 0.22140  0.42597  0.28752  Biso   1.000  N
  N30      1.0000 0.25083  0.78125  0.79005  Biso   1.000  N
  N31      1.0000 0.61610  0.62535  0.71947  Biso   1.000  N
  N32      1.0000 0.71104  0.63944  0.54437  Biso   1.000  N
  O85      1.0000 0.02983  0.46497  0.45248  Biso   1.000  O
  O86      1.0000 0.04639  0.51779  0.45186  Biso   1.000  O
  O87      1.0000 0.19664  0.55085  0.04839  Biso   1.000  O
  O88      1.0000 0.25923  0.54073  0.04970  Biso   1.000  O
  O89      1.0000 0.21295  0.61545  0.95354  Biso   1.000  O
  O90      1.0000 0.27691  0.60607  0.95283  Biso   1.000  O
  O91      1.0000 0.48910  0.54318  0.95165  Biso   1.000  O
  O92      1.0000 0.54525  0.51656  0.95149  Biso   1.000  O
  O93      1.0000 0.41828  0.65675  0.54675  Biso   1.000  O
  O94      1.0000 0.44822  0.70497  0.54691  Biso   1.000  O
  O95      1.0000 0.35031  0.68905  0.54806  Biso   1.000  O
  O96      1.0000 0.37976  0.73752  0.54868  Biso   1.000  O
  C511     1.0000 0.35900  0.58030  0.97350  Biso   1.000  C
  H389     1.0000 0.34070  0.56530  0.96010  Biso   1.000  H
  H390     1.0000 0.35610  0.60170  0.96010  Biso   1.000  H
  C512     1.0000 0.40140  0.56750  0.97290  Biso   1.000  C
  H391     1.0000 0.41960  0.58260  0.95940  Biso   1.000  H
  H392     1.0000 0.40420  0.54610  0.95940  Biso   1.000  H
  C513     1.0000 0.12180  0.00809  0.50000  Biso   1.000  C
  C514     1.0000 0.16310  0.02063  0.50000  Biso   1.000  C
  Cu33     1.0000 0.30037  0.08384  0.50000  Biso   1.000  Cu
  Cu34     1.0000 0.22510  0.07135  0.50000  Biso   1.000  Cu
  Cu35     1.0000 0.03411  0.01564  0.50000  Biso   1.000  Cu
  N33      1.0000 0.16450  0.05616  0.50000  Biso   1.000  N
  N34      1.0000 0.09424  0.03526  0.50000  Biso   1.000  N
  C515     1.0000 0.87820  0.99191  0.50000  Biso   1.000  C
  C516     1.0000 0.83690  0.97937  0.50000  Biso   1.000  C
  Cu36     1.0000 0.69963  0.91616  0.50000  Biso   1.000  Cu
  Cu37     1.0000 0.77490  0.92865  0.50000  Biso   1.000  Cu
  Cu38     1.0000 0.96589  0.98436  0.50000  Biso   1.000  Cu
  N35      1.0000 0.83550  0.94384  0.50000  Biso   1.000  N
  N36      1.0000 0.90576  0.96474  0.50000  Biso   1.000  N
  C517     1.0000 0.37820  0.50809  0.00000  Biso   1.000  C
  C518     1.0000 0.33690  0.52063  0.00000  Biso   1.000  C
  Cu39     1.0000 0.19963  0.58384  0.00000  Biso   1.000  Cu
  Cu40     1.0000 0.27490  0.57135  0.00000  Biso   1.000  Cu
  Cu41     1.0000 0.46589  0.51564  0.00000  Biso   1.000  Cu
  N37      1.0000 0.33550  0.55616  0.00000  Biso   1.000  N
  N38      1.0000 0.40576  0.53526  0.00000  Biso   1.000  N
  C519     1.0000 0.62180  0.49191  0.00000  Biso   1.000  C
  C520     1.0000 0.66310  0.47937  0.00000  Biso   1.000  C
  Cu42     1.0000 0.80037  0.41616  0.00000  Biso   1.000  Cu
  Cu43     1.0000 0.72510  0.42865  0.00000  Biso   1.000  Cu
  Cu44     1.0000 0.53411  0.48436  0.00000  Biso   1.000  Cu
  N39      1.0000 0.66450  0.44384  0.00000  Biso   1.000  N
  N40      1.0000 0.59424  0.46474  0.00000  Biso   1.000  N
  Cu45     1.0000 0.50997  0.96920  0.00000  Biso   1.000  Cu
  Cu46     1.0000 0.49003  0.03080  0.00000  Biso   1.000  Cu
  Cu47     1.0000 0.99003  0.46920  0.50000  Biso   1.000  Cu
  Cu48     1.0000 0.00997  0.53080  0.50000  Biso   1.000  Cu
  Cu49     1.0000 0.11861  0.16926  0.00000  Biso   1.000  Cu
  Cu50     1.0000 0.08325  0.22577  0.00000  Biso   1.000  Cu
  Cu51     1.0000 0.88139  0.83074  0.00000  Biso   1.000  Cu
  Cu52     1.0000 0.91675  0.77423  0.00000  Biso   1.000  Cu
  Cu53     1.0000 0.38139  0.66926  0.50000  Biso   1.000  Cu
  Cu54     1.0000 0.41675  0.72577  0.50000  Biso   1.000  Cu
  Cu55     1.0000 0.61861  0.33074  0.50000  Biso   1.000  Cu
  Cu56     1.0000 0.58325  0.27423  0.50000  Biso   1.000  Cu
