data_image0
_cell_length_a       31.654
_cell_length_b       9.7728
_cell_length_c       37.31
_cell_angle_alpha    90
_cell_angle_beta     90
_cell_angle_gamma    90

_symmetry_space_group_name_H-M    "P 1"
_symmetry_int_tables_number       1

loop_
  _symmetry_equiv_pos_as_xyz
  'x, y, z'

loop_
  _atom_site_label
  _atom_site_occupancy
  _atom_site_fract_x
  _atom_site_fract_y
  _atom_site_fract_z
  _atom_site_thermal_displace_type
  _atom_site_B_iso_or_equiv
  _atom_site_type_symbol
  C1       1.0000 0.70070  0.13180  0.56620  Biso   1.000  C
  H1       1.0000 0.71710  0.04930  0.57280  Biso   1.000  H
  H2       1.0000 0.67420  0.10020  0.55470  Biso   1.000  H
  Zn1      1.0000 0.93133  0.85330  0.82180  Biso   1.000  Zn
  O1       1.0000 0.70210  0.46070  0.46590  Biso   1.000  O
  C2       1.0000 0.79800  0.12860  0.56130  Biso   1.000  C
  H3       1.0000 0.78200  0.04790  0.56990  Biso   1.000  H
  H4       1.0000 0.82280  0.09480  0.54770  Biso   1.000  H
  Zn2      1.0000 0.89185  0.55560  0.85674  Biso   1.000  Zn
  O2       1.0000 0.86070  0.78340  0.37410  Biso   1.000  O
  C3       1.0000 0.75400  0.11790  0.63470  Biso   1.000  C
  H5       1.0000 0.75590  0.07720  0.65890  Biso   1.000  H
  H6       1.0000 0.75240  0.04150  0.61730  Biso   1.000  H
  O3       1.0000 0.89130  0.58740  0.35910  Biso   1.000  O
  O4       1.0000 0.90170  0.44170  0.61540  Biso   1.000  O
  O5       1.0000 0.90920  0.75640  0.77960  Biso   1.000  O
  O6       1.0000 0.91240  0.55740  0.80720  Biso   1.000  O
  O7       1.0000 0.65220  0.42610  0.69220  Biso   1.000  O
  O8       1.0000 0.48070  0.76130  0.65780  Biso   1.000  O
  O9       1.0000 0.44770  0.60640  0.62370  Biso   1.000  O
  C4       1.0000 0.72560  0.21090  0.53890  Biso   1.000  C
  C5       1.0000 0.77020  0.20930  0.53620  Biso   1.000  C
  C6       1.0000 0.78880  0.28800  0.51020  Biso   1.000  C
  H7       1.0000 0.81880  0.28540  0.50880  Biso   1.000  H
  C7       1.0000 0.76810  0.37060  0.48590  Biso   1.000  C
  C8       1.0000 0.72410  0.37890  0.48980  Biso   1.000  C
  C9       1.0000 0.70450  0.30280  0.51650  Biso   1.000  C
  H8       1.0000 0.67490  0.31390  0.51970  Biso   1.000  H
  C10      1.0000 0.65610  0.46400  0.46680  Biso   1.000  C
  H9       1.0000 0.64570  0.52650  0.44830  Biso   1.000  H
  H10      1.0000 0.64510  0.37180  0.46230  Biso   1.000  H
  H11      1.0000 0.64660  0.49560  0.49040  Biso   1.000  H
  C11      1.0000 0.79050  0.44500  0.45590  Biso   1.000  C
  C12      1.0000 0.82320  0.38000  0.43730  Biso   1.000  C
  H12      1.0000 0.83020  0.28810  0.44270  Biso   1.000  H
  C13      1.0000 0.84570  0.44900  0.41080  Biso   1.000  C
  H13      1.0000 0.86620  0.40110  0.39720  Biso   1.000  H
  C14      1.0000 0.83880  0.58400  0.40420  Biso   1.000  C
  C15      1.0000 0.80780  0.65200  0.42290  Biso   1.000  C
  H14      1.0000 0.80340  0.74670  0.41900  Biso   1.000  H
  C16      1.0000 0.78210  0.58100  0.44830  Biso   1.000  C
  H15      1.0000 0.75950  0.62660  0.45990  Biso   1.000  H
  C17      1.0000 0.86620  0.66300  0.37850  Biso   1.000  C
  C18      1.0000 0.81330  0.20840  0.59330  Biso   1.000  C
  C19      1.0000 0.79410  0.19670  0.62760  Biso   1.000  C
  C20      1.0000 0.81060  0.27830  0.65580  Biso   1.000  C
  H16      1.0000 0.79560  0.28060  0.67780  Biso   1.000  H
  C21      1.0000 0.84610  0.35270  0.65300  Biso   1.000  C
  C22      1.0000 0.86460  0.36690  0.61730  Biso   1.000  C
  C23      1.0000 0.84900  0.29040  0.58930  Biso   1.000  C
  H17      1.0000 0.86290  0.29360  0.56680  Biso   1.000  H
  C24      1.0000 0.92500  0.43700  0.58120  Biso   1.000  C
  H18      1.0000 0.95050  0.49290  0.58300  Biso   1.000  H
  H19      1.0000 0.93300  0.34180  0.57590  Biso   1.000  H
  H20      1.0000 0.90700  0.47170  0.56190  Biso   1.000  H
  C25      1.0000 0.86420  0.42900  0.68420  Biso   1.000  C
  C26      1.0000 0.86580  0.36000  0.71550  Biso   1.000  C
  H21      1.0000 0.85650  0.26740  0.71700  Biso   1.000  H
  C27      1.0000 0.88210  0.43000  0.74650  Biso   1.000  C
  H22      1.0000 0.88460  0.38000  0.76820  Biso   1.000  H
  C28      1.0000 0.89390  0.56100  0.74700  Biso   1.000  C
  C29      1.0000 0.89210  0.62800  0.71390  Biso   1.000  C
  H23      1.0000 0.90050  0.72120  0.71270  Biso   1.000  H
  C30      1.0000 0.87890  0.56600  0.68360  Biso   1.000  C
  H24      1.0000 0.87950  0.61440  0.66160  Biso   1.000  H
  C31      1.0000 0.90590  0.63600  0.78080  Biso   1.000  C
  C32      1.0000 0.71340  0.19860  0.63240  Biso   1.000  C
  C33      1.0000 0.68900  0.20720  0.60060  Biso   1.000  C
  C34      1.0000 0.65290  0.28900  0.60290  Biso   1.000  C
  H25      1.0000 0.63560  0.29350  0.58220  Biso   1.000  H
  C35      1.0000 0.64060  0.36100  0.63070  Biso   1.000  C
  C36      1.0000 0.66620  0.35300  0.66250  Biso   1.000  C
  C37      1.0000 0.70120  0.28050  0.66330  Biso   1.000  C
  H26      1.0000 0.71850  0.28140  0.68410  Biso   1.000  H
  C38      1.0000 0.67880  0.40600  0.72230  Biso   1.000  C
  H27      1.0000 0.66790  0.45920  0.74260  Biso   1.000  H
  H28      1.0000 0.67940  0.30900  0.72850  Biso   1.000  H
  H29      1.0000 0.70740  0.43730  0.71650  Biso   1.000  H
  C39      1.0000 0.60010  0.44200  0.63070  Biso   1.000  C
  C40      1.0000 0.56400  0.39300  0.61410  Biso   1.000  C
  H30      1.0000 0.56520  0.30750  0.60180  Biso   1.000  H
  C41      1.0000 0.52640  0.46400  0.61480  Biso   1.000  C
  H31      1.0000 0.50270  0.42910  0.60210  Biso   1.000  H
  C42      1.0000 0.52230  0.59100  0.63470  Biso   1.000  C
  C43      1.0000 0.55770  0.63700  0.64940  Biso   1.000  C
  H32      1.0000 0.55690  0.72310  0.66120  Biso   1.000  H
  C44      1.0000 0.59580  0.56800  0.64880  Biso   1.000  C
  H33      1.0000 0.61950  0.60540  0.66080  Biso   1.000  H
  C45      1.0000 0.47900  0.65300  0.63680  Biso   1.000  C
  O10      1.0000 0.83780  0.48500  0.83110  Biso   1.000  O
  C46      1.0000 0.79920  0.47700  0.83420  Biso   1.000  C
  C47      1.0000 0.78500  0.44700  0.87190  Biso   1.000  C
  H34      1.0000 0.75440  0.44160  0.87270  Biso   1.000  H
  H35      1.0000 0.79740  0.35980  0.87970  Biso   1.000  H
  H36      1.0000 0.79500  0.52040  0.88780  Biso   1.000  H
  N1       1.0000 0.77090  0.49100  0.80910  Biso   1.000  N
  C48      1.0000 0.78400  0.51600  0.77190  Biso   1.000  C
  H37      1.0000 0.75820  0.52370  0.75690  Biso   1.000  H
  H38      1.0000 0.79960  0.60160  0.77060  Biso   1.000  H
  H39      1.0000 0.80100  0.44020  0.76340  Biso   1.000  H
  C49      1.0000 0.72560  0.47600  0.81580  Biso   1.000  C
  H40      1.0000 0.71000  0.49020  0.79340  Biso   1.000  H
  H41      1.0000 0.71980  0.38380  0.82490  Biso   1.000  H
  H42      1.0000 0.71650  0.54380  0.83360  Biso   1.000  H
  C50      1.0000 0.81660  0.39700  0.84620  Biso   1.000  C
  C51      1.0000 0.79700  0.45000  0.88000  Biso   1.000  C
  H43      1.0000 0.78000  0.37710  0.89120  Biso   1.000  H
  H44      1.0000 0.81870  0.48050  0.89660  Biso   1.000  H
  H45      1.0000 0.77810  0.52730  0.87420  Biso   1.000  H
  N2       1.0000 0.80950  0.26900  0.83840  Biso   1.000  N
  C52      1.0000 0.82800  0.19900  0.80800  Biso   1.000  C
  H46      1.0000 0.81860  0.10370  0.80720  Biso   1.000  H
  H47      1.0000 0.81990  0.24510  0.78550  Biso   1.000  H
  H48      1.0000 0.85920  0.20070  0.80990  Biso   1.000  H
  C53      1.0000 0.77600  0.19100  0.85700  Biso   1.000  C
  H49      1.0000 0.77580  0.09740  0.84710  Biso   1.000  H
  H50      1.0000 0.78190  0.18870  0.88230  Biso   1.000  H
  H51      1.0000 0.74880  0.23470  0.85220  Biso   1.000  H
  C54      1.0000 0.79930  0.86820  0.06620  Biso   1.000  C
  H52      1.0000 0.78290  0.95070  0.07280  Biso   1.000  H
  H53      1.0000 0.82580  0.89980  0.05470  Biso   1.000  H
  Zn3      1.0000 0.56867  0.14670  0.32180  Biso   1.000  Zn
  O11      1.0000 0.79790  0.53930  0.96590  Biso   1.000  O
  C55      1.0000 0.70200  0.87140  0.06130  Biso   1.000  C
  H54      1.0000 0.71800  0.95210  0.06990  Biso   1.000  H
  H55      1.0000 0.67720  0.90520  0.04770  Biso   1.000  H
  Zn4      1.0000 0.60815  0.44440  0.35674  Biso   1.000  Zn
  O12      1.0000 0.63930  0.21660  0.87410  Biso   1.000  O
  C56      1.0000 0.74600  0.88210  0.13470  Biso   1.000  C
  H56      1.0000 0.74410  0.92280  0.15890  Biso   1.000  H
  H57      1.0000 0.74760  0.95850  0.11730  Biso   1.000  H
  O13      1.0000 0.60870  0.41260  0.85910  Biso   1.000  O
  O14      1.0000 0.59830  0.55830  0.11540  Biso   1.000  O
  O15      1.0000 0.59080  0.24360  0.27960  Biso   1.000  O
  O16      1.0000 0.58760  0.44260  0.30720  Biso   1.000  O
  O17      1.0000 0.84780  0.57390  0.19220  Biso   1.000  O
  O18      1.0000 0.01930  0.23870  0.15780  Biso   1.000  O
  O19      1.0000 0.05230  0.39360  0.12370  Biso   1.000  O
  C57      1.0000 0.77440  0.78910  0.03890  Biso   1.000  C
  C58      1.0000 0.72980  0.79070  0.03620  Biso   1.000  C
  C59      1.0000 0.71120  0.71200  0.01020  Biso   1.000  C
  H58      1.0000 0.68120  0.71460  0.00880  Biso   1.000  H
  C60      1.0000 0.73190  0.62940  0.98590  Biso   1.000  C
  C61      1.0000 0.77590  0.62110  0.98980  Biso   1.000  C
  C62      1.0000 0.79550  0.69720  0.01650  Biso   1.000  C
  H59      1.0000 0.82510  0.68610  0.01970  Biso   1.000  H
  C63      1.0000 0.84390  0.53600  0.96680  Biso   1.000  C
  H60      1.0000 0.85430  0.47350  0.94830  Biso   1.000  H
  H61      1.0000 0.85490  0.62820  0.96230  Biso   1.000  H
  H62      1.0000 0.85340  0.50440  0.99040  Biso   1.000  H
  C64      1.0000 0.70950  0.55500  0.95590  Biso   1.000  C
  C65      1.0000 0.67680  0.62000  0.93730  Biso   1.000  C
  H63      1.0000 0.66980  0.71190  0.94270  Biso   1.000  H
  C66      1.0000 0.65430  0.55100  0.91080  Biso   1.000  C
  H64      1.0000 0.63380  0.59890  0.89720  Biso   1.000  H
  C67      1.0000 0.66120  0.41600  0.90420  Biso   1.000  C
  C68      1.0000 0.69220  0.34800  0.92290  Biso   1.000  C
  H65      1.0000 0.69660  0.25330  0.91900  Biso   1.000  H
  C69      1.0000 0.71790  0.41900  0.94830  Biso   1.000  C
  H66      1.0000 0.74050  0.37340  0.95990  Biso   1.000  H
  C70      1.0000 0.63380  0.33700  0.87850  Biso   1.000  C
  C71      1.0000 0.68670  0.79160  0.09330  Biso   1.000  C
  C72      1.0000 0.70590  0.80330  0.12760  Biso   1.000  C
  C73      1.0000 0.68940  0.72170  0.15580  Biso   1.000  C
  H67      1.0000 0.70440  0.71940  0.17780  Biso   1.000  H
  C74      1.0000 0.65390  0.64730  0.15300  Biso   1.000  C
  C75      1.0000 0.63540  0.63310  0.11730  Biso   1.000  C
  C76      1.0000 0.65100  0.70960  0.08930  Biso   1.000  C
  H68      1.0000 0.63710  0.70640  0.06680  Biso   1.000  H
  C77      1.0000 0.57500  0.56300  0.08120  Biso   1.000  C
  H69      1.0000 0.54950  0.50710  0.08300  Biso   1.000  H
  H70      1.0000 0.56700  0.65820  0.07590  Biso   1.000  H
  H71      1.0000 0.59300  0.52830  0.06190  Biso   1.000  H
  C78      1.0000 0.63580  0.57100  0.18420  Biso   1.000  C
  C79      1.0000 0.63420  0.64000  0.21550  Biso   1.000  C
  H72      1.0000 0.64350  0.73260  0.21700  Biso   1.000  H
  C80      1.0000 0.61790  0.57000  0.24650  Biso   1.000  C
  H73      1.0000 0.61540  0.62000  0.26820  Biso   1.000  H
  C81      1.0000 0.60610  0.43900  0.24700  Biso   1.000  C
  C82      1.0000 0.60790  0.37200  0.21390  Biso   1.000  C
  H74      1.0000 0.59950  0.27880  0.21270  Biso   1.000  H
  C83      1.0000 0.62110  0.43400  0.18360  Biso   1.000  C
  H75      1.0000 0.62050  0.38560  0.16160  Biso   1.000  H
  C84      1.0000 0.59410  0.36400  0.28080  Biso   1.000  C
  C85      1.0000 0.78660  0.80140  0.13240  Biso   1.000  C
  C86      1.0000 0.81100  0.79280  0.10060  Biso   1.000  C
  C87      1.0000 0.84710  0.71100  0.10290  Biso   1.000  C
  H76      1.0000 0.86440  0.70650  0.08220  Biso   1.000  H
  C88      1.0000 0.85940  0.63900  0.13070  Biso   1.000  C
  C89      1.0000 0.83380  0.64700  0.16250  Biso   1.000  C
  C90      1.0000 0.79880  0.71950  0.16330  Biso   1.000  C
  H77      1.0000 0.78150  0.71860  0.18410  Biso   1.000  H
  C91      1.0000 0.82120  0.59400  0.22230  Biso   1.000  C
  H78      1.0000 0.83210  0.54080  0.24260  Biso   1.000  H
  H79      1.0000 0.82060  0.69100  0.22850  Biso   1.000  H
  H80      1.0000 0.79260  0.56270  0.21650  Biso   1.000  H
  C92      1.0000 0.89990  0.55800  0.13070  Biso   1.000  C
  C93      1.0000 0.93600  0.60700  0.11410  Biso   1.000  C
  H81      1.0000 0.93480  0.69250  0.10180  Biso   1.000  H
  C94      1.0000 0.97360  0.53600  0.11480  Biso   1.000  C
  H82      1.0000 0.99730  0.57090  0.10210  Biso   1.000  H
  C95      1.0000 0.97770  0.40900  0.13470  Biso   1.000  C
  C96      1.0000 0.94230  0.36300  0.14940  Biso   1.000  C
  H83      1.0000 0.94310  0.27690  0.16120  Biso   1.000  H
  C97      1.0000 0.90420  0.43200  0.14880  Biso   1.000  C
  H84      1.0000 0.88050  0.39460  0.16080  Biso   1.000  H
  C98      1.0000 0.02100  0.34700  0.13680  Biso   1.000  C
  O20      1.0000 0.66220  0.51500  0.33110  Biso   1.000  O
  C99      1.0000 0.70080  0.52300  0.33420  Biso   1.000  C
  C100     1.0000 0.71500  0.55300  0.37190  Biso   1.000  C
  H85      1.0000 0.74560  0.55840  0.37270  Biso   1.000  H
  H86      1.0000 0.70260  0.64020  0.37970  Biso   1.000  H
  H87      1.0000 0.70500  0.47960  0.38780  Biso   1.000  H
  N3       1.0000 0.72910  0.50900  0.30910  Biso   1.000  N
  C101     1.0000 0.71600  0.48400  0.27190  Biso   1.000  C
  H88      1.0000 0.74180  0.47630  0.25690  Biso   1.000  H
  H89      1.0000 0.70040  0.39840  0.27060  Biso   1.000  H
  H90      1.0000 0.69900  0.55980  0.26340  Biso   1.000  H
  C102     1.0000 0.77440  0.52400  0.31580  Biso   1.000  C
  H91      1.0000 0.79000  0.50980  0.29340  Biso   1.000  H
  H92      1.0000 0.78020  0.61620  0.32490  Biso   1.000  H
  H93      1.0000 0.78350  0.45620  0.33360  Biso   1.000  H
  C103     1.0000 0.68340  0.60300  0.34620  Biso   1.000  C
  C104     1.0000 0.70300  0.55000  0.38000  Biso   1.000  C
  H94      1.0000 0.72000  0.62290  0.39120  Biso   1.000  H
  H95      1.0000 0.68130  0.51950  0.39660  Biso   1.000  H
  H96      1.0000 0.72190  0.47270  0.37420  Biso   1.000  H
  N4       1.0000 0.69050  0.73100  0.33840  Biso   1.000  N
  C105     1.0000 0.67200  0.80100  0.30800  Biso   1.000  C
  H97      1.0000 0.68140  0.89630  0.30720  Biso   1.000  H
  H98      1.0000 0.68010  0.75490  0.28550  Biso   1.000  H
  H99      1.0000 0.64080  0.79930  0.30990  Biso   1.000  H
  C106     1.0000 0.72400  0.80900  0.35700  Biso   1.000  C
  H100     1.0000 0.72420  0.90260  0.34710  Biso   1.000  H
  H101     1.0000 0.71810  0.81130  0.38230  Biso   1.000  H
  H102     1.0000 0.75120  0.76530  0.35220  Biso   1.000  H
  C107     1.0000 0.29930  0.63180  0.93380  Biso   1.000  C
  H103     1.0000 0.28290  0.54930  0.92720  Biso   1.000  H
  H104     1.0000 0.32580  0.60020  0.94530  Biso   1.000  H
  Zn5      1.0000 0.06867  0.35330  0.67820  Biso   1.000  Zn
  O21      1.0000 0.29790  0.96070  0.03410  Biso   1.000  O
  C108     1.0000 0.20200  0.62860  0.93870  Biso   1.000  C
  H105     1.0000 0.21800  0.54790  0.93010  Biso   1.000  H
  H106     1.0000 0.17720  0.59480  0.95230  Biso   1.000  H
  Zn6      1.0000 0.10815  0.05560  0.64326  Biso   1.000  Zn
  O22      1.0000 0.13930  0.28340  0.12590  Biso   1.000  O
  C109     1.0000 0.24600  0.61790  0.86530  Biso   1.000  C
  H107     1.0000 0.24410  0.57720  0.84110  Biso   1.000  H
  H108     1.0000 0.24760  0.54150  0.88270  Biso   1.000  H
  O23      1.0000 0.10870  0.08740  0.14090  Biso   1.000  O
  O24      1.0000 0.09830  0.94170  0.88460  Biso   1.000  O
  O25      1.0000 0.09080  0.25640  0.72040  Biso   1.000  O
  O26      1.0000 0.08760  0.05740  0.69280  Biso   1.000  O
  O27      1.0000 0.34780  0.92610  0.80780  Biso   1.000  O
  O28      1.0000 0.51930  0.26130  0.84220  Biso   1.000  O
  O29      1.0000 0.55230  0.10640  0.87630  Biso   1.000  O
  C110     1.0000 0.27440  0.71090  0.96110  Biso   1.000  C
  C111     1.0000 0.22980  0.70930  0.96380  Biso   1.000  C
  C112     1.0000 0.21120  0.78800  0.98980  Biso   1.000  C
  H109     1.0000 0.18120  0.78540  0.99120  Biso   1.000  H
  C113     1.0000 0.23190  0.87060  0.01410  Biso   1.000  C
  C114     1.0000 0.27590  0.87890  0.01020  Biso   1.000  C
  C115     1.0000 0.29550  0.80280  0.98350  Biso   1.000  C
  H110     1.0000 0.32510  0.81390  0.98030  Biso   1.000  H
  C116     1.0000 0.34390  0.96400  0.03320  Biso   1.000  C
  H111     1.0000 0.35430  0.02650  0.05170  Biso   1.000  H
  H112     1.0000 0.35490  0.87180  0.03770  Biso   1.000  H
  H113     1.0000 0.35340  0.99560  0.00960  Biso   1.000  H
  C117     1.0000 0.20950  0.94500  0.04410  Biso   1.000  C
  C118     1.0000 0.17680  0.88000  0.06270  Biso   1.000  C
  H114     1.0000 0.16980  0.78810  0.05730  Biso   1.000  H
  C119     1.0000 0.15430  0.94900  0.08920  Biso   1.000  C
  H115     1.0000 0.13380  0.90110  0.10280  Biso   1.000  H
  C120     1.0000 0.16120  0.08400  0.09580  Biso   1.000  C
  C121     1.0000 0.19220  0.15200  0.07710  Biso   1.000  C
  H116     1.0000 0.19660  0.24670  0.08100  Biso   1.000  H
  C122     1.0000 0.21790  0.08100  0.05170  Biso   1.000  C
  H117     1.0000 0.24050  0.12660  0.04010  Biso   1.000  H
  C123     1.0000 0.13380  0.16300  0.12150  Biso   1.000  C
  C124     1.0000 0.18670  0.70840  0.90670  Biso   1.000  C
  C125     1.0000 0.20590  0.69670  0.87240  Biso   1.000  C
  C126     1.0000 0.18940  0.77830  0.84420  Biso   1.000  C
  H118     1.0000 0.20440  0.78060  0.82220  Biso   1.000  H
  C127     1.0000 0.15390  0.85270  0.84700  Biso   1.000  C
  C128     1.0000 0.13540  0.86690  0.88270  Biso   1.000  C
  C129     1.0000 0.15100  0.79040  0.91070  Biso   1.000  C
  H119     1.0000 0.13710  0.79360  0.93320  Biso   1.000  H
  C130     1.0000 0.07500  0.93700  0.91880  Biso   1.000  C
  H120     1.0000 0.04950  0.99290  0.91700  Biso   1.000  H
  H121     1.0000 0.06700  0.84180  0.92410  Biso   1.000  H
  H122     1.0000 0.09300  0.97170  0.93810  Biso   1.000  H
  C131     1.0000 0.13580  0.92900  0.81580  Biso   1.000  C
  C132     1.0000 0.13420  0.86000  0.78450  Biso   1.000  C
  H123     1.0000 0.14350  0.76740  0.78300  Biso   1.000  H
  C133     1.0000 0.11790  0.93000  0.75350  Biso   1.000  C
  H124     1.0000 0.11540  0.88000  0.73180  Biso   1.000  H
  C134     1.0000 0.10610  0.06100  0.75300  Biso   1.000  C
  C135     1.0000 0.10790  0.12800  0.78610  Biso   1.000  C
  H125     1.0000 0.09950  0.22120  0.78730  Biso   1.000  H
  C136     1.0000 0.12110  0.06600  0.81640  Biso   1.000  C
  H126     1.0000 0.12050  0.11440  0.83840  Biso   1.000  H
  C137     1.0000 0.09410  0.13600  0.71920  Biso   1.000  C
  C138     1.0000 0.28660  0.69860  0.86760  Biso   1.000  C
  C139     1.0000 0.31100  0.70720  0.89940  Biso   1.000  C
  C140     1.0000 0.34710  0.78900  0.89710  Biso   1.000  C
  H127     1.0000 0.36440  0.79350  0.91780  Biso   1.000  H
  C141     1.0000 0.35940  0.86100  0.86930  Biso   1.000  C
  C142     1.0000 0.33380  0.85300  0.83750  Biso   1.000  C
  C143     1.0000 0.29880  0.78050  0.83670  Biso   1.000  C
  H128     1.0000 0.28150  0.78140  0.81590  Biso   1.000  H
  C144     1.0000 0.32120  0.90600  0.77770  Biso   1.000  C
  H129     1.0000 0.33210  0.95920  0.75740  Biso   1.000  H
  H130     1.0000 0.32060  0.80900  0.77150  Biso   1.000  H
  H131     1.0000 0.29260  0.93730  0.78350  Biso   1.000  H
  C145     1.0000 0.39990  0.94200  0.86930  Biso   1.000  C
  C146     1.0000 0.43600  0.89300  0.88590  Biso   1.000  C
  H132     1.0000 0.43480  0.80750  0.89820  Biso   1.000  H
  C147     1.0000 0.47360  0.96400  0.88520  Biso   1.000  C
  H133     1.0000 0.49730  0.92910  0.89790  Biso   1.000  H
  C148     1.0000 0.47770  0.09100  0.86530  Biso   1.000  C
  C149     1.0000 0.44230  0.13700  0.85060  Biso   1.000  C
  H134     1.0000 0.44310  0.22310  0.83880  Biso   1.000  H
  C150     1.0000 0.40420  0.06800  0.85120  Biso   1.000  C
  H135     1.0000 0.38050  0.10540  0.83920  Biso   1.000  H
  C151     1.0000 0.52100  0.15300  0.86320  Biso   1.000  C
  O30      1.0000 0.16220  0.98500  0.66890  Biso   1.000  O
  C152     1.0000 0.20080  0.97700  0.66580  Biso   1.000  C
  C153     1.0000 0.21500  0.94700  0.62810  Biso   1.000  C
  H136     1.0000 0.24560  0.94160  0.62730  Biso   1.000  H
  H137     1.0000 0.20260  0.85980  0.62030  Biso   1.000  H
  H138     1.0000 0.20500  0.02040  0.61220  Biso   1.000  H
  N5       1.0000 0.22910  0.99100  0.69090  Biso   1.000  N
  C154     1.0000 0.21600  0.01600  0.72810  Biso   1.000  C
  H139     1.0000 0.24180  0.02370  0.74310  Biso   1.000  H
  H140     1.0000 0.20040  0.10160  0.72940  Biso   1.000  H
  H141     1.0000 0.19900  0.94020  0.73660  Biso   1.000  H
  C155     1.0000 0.27440  0.97600  0.68420  Biso   1.000  C
  H142     1.0000 0.29000  0.99020  0.70660  Biso   1.000  H
  H143     1.0000 0.28020  0.88380  0.67510  Biso   1.000  H
  H144     1.0000 0.28350  0.04380  0.66640  Biso   1.000  H
  C156     1.0000 0.18340  0.89700  0.65380  Biso   1.000  C
  C157     1.0000 0.20300  0.95000  0.62000  Biso   1.000  C
  H145     1.0000 0.22000  0.87710  0.60880  Biso   1.000  H
  H146     1.0000 0.18130  0.98050  0.60340  Biso   1.000  H
  H147     1.0000 0.22190  0.02730  0.62580  Biso   1.000  H
  N6       1.0000 0.19050  0.76900  0.66160  Biso   1.000  N
  C158     1.0000 0.17200  0.69900  0.69200  Biso   1.000  C
  H148     1.0000 0.18140  0.60370  0.69280  Biso   1.000  H
  H149     1.0000 0.18010  0.74510  0.71450  Biso   1.000  H
  H150     1.0000 0.14080  0.70070  0.69010  Biso   1.000  H
  C159     1.0000 0.22400  0.69100  0.64300  Biso   1.000  C
  H151     1.0000 0.22420  0.59740  0.65290  Biso   1.000  H
  H152     1.0000 0.21810  0.68870  0.61770  Biso   1.000  H
  H153     1.0000 0.25120  0.73470  0.64780  Biso   1.000  H
  C160     1.0000 0.20070  0.36820  0.43380  Biso   1.000  C
  H154     1.0000 0.21710  0.45070  0.42720  Biso   1.000  H
  H155     1.0000 0.17420  0.39980  0.44530  Biso   1.000  H
  Zn7      1.0000 0.43133  0.64670  0.17820  Biso   1.000  Zn
  O31      1.0000 0.20210  0.03930  0.53410  Biso   1.000  O
  C161     1.0000 0.29800  0.37140  0.43870  Biso   1.000  C
  H156     1.0000 0.28200  0.45210  0.43010  Biso   1.000  H
  H157     1.0000 0.32280  0.40520  0.45230  Biso   1.000  H
  Zn8      1.0000 0.39185  0.94440  0.14326  Biso   1.000  Zn
  O32      1.0000 0.36070  0.71660  0.62590  Biso   1.000  O
  C162     1.0000 0.25400  0.38210  0.36530  Biso   1.000  C
  H158     1.0000 0.25590  0.42280  0.34110  Biso   1.000  H
  H159     1.0000 0.25240  0.45850  0.38270  Biso   1.000  H
  O33      1.0000 0.39130  0.91260  0.64090  Biso   1.000  O
  O34      1.0000 0.40170  0.05830  0.38460  Biso   1.000  O
  O35      1.0000 0.40920  0.74360  0.22040  Biso   1.000  O
  O36      1.0000 0.41240  0.94260  0.19280  Biso   1.000  O
  O37      1.0000 0.15220  0.07390  0.30780  Biso   1.000  O
  O38      1.0000 0.98070  0.73870  0.34220  Biso   1.000  O
  O39      1.0000 0.94770  0.89360  0.37630  Biso   1.000  O
  C163     1.0000 0.22560  0.28910  0.46110  Biso   1.000  C
  C164     1.0000 0.27020  0.29070  0.46380  Biso   1.000  C
  C165     1.0000 0.28880  0.21200  0.48980  Biso   1.000  C
  H160     1.0000 0.31880  0.21460  0.49120  Biso   1.000  H
  C166     1.0000 0.26810  0.12940  0.51410  Biso   1.000  C
  C167     1.0000 0.22410  0.12110  0.51020  Biso   1.000  C
  C168     1.0000 0.20450  0.19720  0.48350  Biso   1.000  C
  H161     1.0000 0.17490  0.18610  0.48030  Biso   1.000  H
  C169     1.0000 0.15610  0.03600  0.53320  Biso   1.000  C
  H162     1.0000 0.14570  0.97350  0.55170  Biso   1.000  H
  H163     1.0000 0.14510  0.12820  0.53770  Biso   1.000  H
  H164     1.0000 0.14660  0.00440  0.50960  Biso   1.000  H
  C170     1.0000 0.29050  0.05500  0.54410  Biso   1.000  C
  C171     1.0000 0.32320  0.12000  0.56270  Biso   1.000  C
  H165     1.0000 0.33020  0.21190  0.55730  Biso   1.000  H
  C172     1.0000 0.34570  0.05100  0.58920  Biso   1.000  C
  H166     1.0000 0.36620  0.09890  0.60280  Biso   1.000  H
  C173     1.0000 0.33880  0.91600  0.59580  Biso   1.000  C
  C174     1.0000 0.30780  0.84800  0.57710  Biso   1.000  C
  H167     1.0000 0.30340  0.75330  0.58100  Biso   1.000  H
  C175     1.0000 0.28210  0.91900  0.55170  Biso   1.000  C
  H168     1.0000 0.25950  0.87340  0.54010  Biso   1.000  H
  C176     1.0000 0.36620  0.83700  0.62150  Biso   1.000  C
  C177     1.0000 0.31330  0.29160  0.40670  Biso   1.000  C
  C178     1.0000 0.29410  0.30330  0.37240  Biso   1.000  C
  C179     1.0000 0.31060  0.22170  0.34420  Biso   1.000  C
  H169     1.0000 0.29560  0.21940  0.32220  Biso   1.000  H
  C180     1.0000 0.34610  0.14730  0.34700  Biso   1.000  C
  C181     1.0000 0.36460  0.13310  0.38270  Biso   1.000  C
  C182     1.0000 0.34900  0.20960  0.41070  Biso   1.000  C
  H170     1.0000 0.36290  0.20640  0.43320  Biso   1.000  H
  C183     1.0000 0.42500  0.06300  0.41880  Biso   1.000  C
  H171     1.0000 0.45050  0.00710  0.41700  Biso   1.000  H
  H172     1.0000 0.43300  0.15820  0.42410  Biso   1.000  H
  H173     1.0000 0.40700  0.02830  0.43810  Biso   1.000  H
  C184     1.0000 0.36420  0.07100  0.31580  Biso   1.000  C
  C185     1.0000 0.36580  0.14000  0.28450  Biso   1.000  C
  H174     1.0000 0.35650  0.23260  0.28300  Biso   1.000  H
  C186     1.0000 0.38210  0.07000  0.25350  Biso   1.000  C
  H175     1.0000 0.38460  0.12000  0.23180  Biso   1.000  H
  C187     1.0000 0.39390  0.93900  0.25300  Biso   1.000  C
  C188     1.0000 0.39210  0.87200  0.28610  Biso   1.000  C
  H176     1.0000 0.40050  0.77880  0.28730  Biso   1.000  H
  C189     1.0000 0.37890  0.93400  0.31640  Biso   1.000  C
  H177     1.0000 0.37950  0.88560  0.33840  Biso   1.000  H
  C190     1.0000 0.40590  0.86400  0.21920  Biso   1.000  C
  C191     1.0000 0.21340  0.30140  0.36760  Biso   1.000  C
  C192     1.0000 0.18900  0.29280  0.39940  Biso   1.000  C
  C193     1.0000 0.15290  0.21100  0.39710  Biso   1.000  C
  H178     1.0000 0.13560  0.20650  0.41780  Biso   1.000  H
  C194     1.0000 0.14060  0.13900  0.36930  Biso   1.000  C
  C195     1.0000 0.16620  0.14700  0.33750  Biso   1.000  C
  C196     1.0000 0.20120  0.21950  0.33670  Biso   1.000  C
  H179     1.0000 0.21850  0.21860  0.31590  Biso   1.000  H
  C197     1.0000 0.17880  0.09400  0.27770  Biso   1.000  C
  H180     1.0000 0.16790  0.04080  0.25740  Biso   1.000  H
  H181     1.0000 0.17940  0.19100  0.27150  Biso   1.000  H
  H182     1.0000 0.20740  0.06270  0.28350  Biso   1.000  H
  C198     1.0000 0.10010  0.05800  0.36930  Biso   1.000  C
  C199     1.0000 0.06400  0.10700  0.38590  Biso   1.000  C
  H183     1.0000 0.06520  0.19250  0.39820  Biso   1.000  H
  C200     1.0000 0.02640  0.03600  0.38520  Biso   1.000  C
  H184     1.0000 0.00270  0.07090  0.39790  Biso   1.000  H
  C201     1.0000 0.02230  0.90900  0.36530  Biso   1.000  C
  C202     1.0000 0.05770  0.86300  0.35060  Biso   1.000  C
  H185     1.0000 0.05690  0.77690  0.33880  Biso   1.000  H
  C203     1.0000 0.09580  0.93200  0.35120  Biso   1.000  C
  H186     1.0000 0.11950  0.89460  0.33920  Biso   1.000  H
  C204     1.0000 0.97900  0.84700  0.36320  Biso   1.000  C
  O40      1.0000 0.33780  0.01500  0.16890  Biso   1.000  O
  C205     1.0000 0.29920  0.02300  0.16580  Biso   1.000  C
  C206     1.0000 0.28500  0.05300  0.12810  Biso   1.000  C
  H187     1.0000 0.25440  0.05840  0.12730  Biso   1.000  H
  H188     1.0000 0.29740  0.14020  0.12030  Biso   1.000  H
  H189     1.0000 0.29500  0.97960  0.11220  Biso   1.000  H
  N7       1.0000 0.27090  0.00900  0.19090  Biso   1.000  N
  C207     1.0000 0.28400  0.98400  0.22810  Biso   1.000  C
  H190     1.0000 0.25820  0.97630  0.24310  Biso   1.000  H
  H191     1.0000 0.29960  0.89840  0.22940  Biso   1.000  H
  H192     1.0000 0.30100  0.05980  0.23660  Biso   1.000  H
  C208     1.0000 0.22560  0.02400  0.18420  Biso   1.000  C
  H193     1.0000 0.21000  0.00980  0.20660  Biso   1.000  H
  H194     1.0000 0.21980  0.11620  0.17510  Biso   1.000  H
  H195     1.0000 0.21650  0.95620  0.16640  Biso   1.000  H
  C209     1.0000 0.31660  0.10300  0.15380  Biso   1.000  C
  C210     1.0000 0.29700  0.05000  0.12000  Biso   1.000  C
  H196     1.0000 0.28000  0.12290  0.10880  Biso   1.000  H
  H197     1.0000 0.31870  0.01950  0.10340  Biso   1.000  H
  H198     1.0000 0.27810  0.97270  0.12580  Biso   1.000  H
  N8       1.0000 0.30950  0.23100  0.16160  Biso   1.000  N
  C211     1.0000 0.32800  0.30100  0.19200  Biso   1.000  C
  H199     1.0000 0.31860  0.39630  0.19280  Biso   1.000  H
  H200     1.0000 0.31990  0.25490  0.21450  Biso   1.000  H
  H201     1.0000 0.35920  0.29930  0.19010  Biso   1.000  H
  C212     1.0000 0.27600  0.30900  0.14300  Biso   1.000  C
  H202     1.0000 0.27580  0.40260  0.15290  Biso   1.000  H
  H203     1.0000 0.28190  0.31130  0.11770  Biso   1.000  H
  H204     1.0000 0.24880  0.26530  0.14780  Biso   1.000  H
  C213     1.0000 0.29930  0.86820  0.43380  Biso   1.000  C
  H205     1.0000 0.28290  0.95070  0.42720  Biso   1.000  H
  H206     1.0000 0.32580  0.89980  0.44530  Biso   1.000  H
  Zn9      1.0000 0.06867  0.14670  0.17820  Biso   1.000  Zn
  O41      1.0000 0.29790  0.53930  0.53410  Biso   1.000  O
  C214     1.0000 0.20200  0.87140  0.43870  Biso   1.000  C
  H207     1.0000 0.21800  0.95210  0.43010  Biso   1.000  H
  H208     1.0000 0.17720  0.90520  0.45230  Biso   1.000  H
  Zn10     1.0000 0.10815  0.44440  0.14326  Biso   1.000  Zn
  O42      1.0000 0.13930  0.21660  0.62590  Biso   1.000  O
  C215     1.0000 0.24600  0.88210  0.36530  Biso   1.000  C
  H209     1.0000 0.24410  0.92280  0.34110  Biso   1.000  H
  H210     1.0000 0.24760  0.95850  0.38270  Biso   1.000  H
  O43      1.0000 0.10870  0.41260  0.64090  Biso   1.000  O
  O44      1.0000 0.09830  0.55830  0.38460  Biso   1.000  O
  O45      1.0000 0.09080  0.24360  0.22040  Biso   1.000  O
  O46      1.0000 0.08760  0.44260  0.19280  Biso   1.000  O
  O47      1.0000 0.34780  0.57390  0.30780  Biso   1.000  O
  O48      1.0000 0.51930  0.23870  0.34220  Biso   1.000  O
  O49      1.0000 0.55230  0.39360  0.37630  Biso   1.000  O
  C216     1.0000 0.27440  0.78910  0.46110  Biso   1.000  C
  C217     1.0000 0.22980  0.79070  0.46380  Biso   1.000  C
  C218     1.0000 0.21120  0.71200  0.48980  Biso   1.000  C
  H211     1.0000 0.18120  0.71460  0.49120  Biso   1.000  H
  C219     1.0000 0.23190  0.62940  0.51410  Biso   1.000  C
  C220     1.0000 0.27590  0.62110  0.51020  Biso   1.000  C
  C221     1.0000 0.29550  0.69720  0.48350  Biso   1.000  C
  H212     1.0000 0.32510  0.68610  0.48030  Biso   1.000  H
  C222     1.0000 0.34390  0.53600  0.53320  Biso   1.000  C
  H213     1.0000 0.35430  0.47350  0.55170  Biso   1.000  H
  H214     1.0000 0.35490  0.62820  0.53770  Biso   1.000  H
  H215     1.0000 0.35340  0.50440  0.50960  Biso   1.000  H
  C223     1.0000 0.20950  0.55500  0.54410  Biso   1.000  C
  C224     1.0000 0.17680  0.62000  0.56270  Biso   1.000  C
  H216     1.0000 0.16980  0.71190  0.55730  Biso   1.000  H
  C225     1.0000 0.15430  0.55100  0.58920  Biso   1.000  C
  H217     1.0000 0.13380  0.59890  0.60280  Biso   1.000  H
  C226     1.0000 0.16120  0.41600  0.59580  Biso   1.000  C
  C227     1.0000 0.19220  0.34800  0.57710  Biso   1.000  C
  H218     1.0000 0.19660  0.25330  0.58100  Biso   1.000  H
  C228     1.0000 0.21790  0.41900  0.55170  Biso   1.000  C
  H219     1.0000 0.24050  0.37340  0.54010  Biso   1.000  H
  C229     1.0000 0.13380  0.33700  0.62150  Biso   1.000  C
  C230     1.0000 0.18670  0.79160  0.40670  Biso   1.000  C
  C231     1.0000 0.20590  0.80330  0.37240  Biso   1.000  C
  C232     1.0000 0.18940  0.72170  0.34420  Biso   1.000  C
  H220     1.0000 0.20440  0.71940  0.32220  Biso   1.000  H
  C233     1.0000 0.15390  0.64730  0.34700  Biso   1.000  C
  C234     1.0000 0.13540  0.63310  0.38270  Biso   1.000  C
  C235     1.0000 0.15100  0.70960  0.41070  Biso   1.000  C
  H221     1.0000 0.13710  0.70640  0.43320  Biso   1.000  H
  C236     1.0000 0.07500  0.56300  0.41880  Biso   1.000  C
  H222     1.0000 0.04950  0.50710  0.41700  Biso   1.000  H
  H223     1.0000 0.06700  0.65820  0.42410  Biso   1.000  H
  H224     1.0000 0.09300  0.52830  0.43810  Biso   1.000  H
  C237     1.0000 0.13580  0.57100  0.31580  Biso   1.000  C
  C238     1.0000 0.13420  0.64000  0.28450  Biso   1.000  C
  H225     1.0000 0.14350  0.73260  0.28300  Biso   1.000  H
  C239     1.0000 0.11790  0.57000  0.25350  Biso   1.000  C
  H226     1.0000 0.11540  0.62000  0.23180  Biso   1.000  H
  C240     1.0000 0.10610  0.43900  0.25300  Biso   1.000  C
  C241     1.0000 0.10790  0.37200  0.28610  Biso   1.000  C
  H227     1.0000 0.09950  0.27880  0.28730  Biso   1.000  H
  C242     1.0000 0.12110  0.43400  0.31640  Biso   1.000  C
  H228     1.0000 0.12050  0.38560  0.33840  Biso   1.000  H
  C243     1.0000 0.09410  0.36400  0.21920  Biso   1.000  C
  C244     1.0000 0.28660  0.80140  0.36760  Biso   1.000  C
  C245     1.0000 0.31100  0.79280  0.39940  Biso   1.000  C
  C246     1.0000 0.34710  0.71100  0.39710  Biso   1.000  C
  H229     1.0000 0.36440  0.70650  0.41780  Biso   1.000  H
  C247     1.0000 0.35940  0.63900  0.36930  Biso   1.000  C
  C248     1.0000 0.33380  0.64700  0.33750  Biso   1.000  C
  C249     1.0000 0.29880  0.71950  0.33670  Biso   1.000  C
  H230     1.0000 0.28150  0.71860  0.31590  Biso   1.000  H
  C250     1.0000 0.32120  0.59400  0.27770  Biso   1.000  C
  H231     1.0000 0.33210  0.54080  0.25740  Biso   1.000  H
  H232     1.0000 0.32060  0.69100  0.27150  Biso   1.000  H
  H233     1.0000 0.29260  0.56270  0.28350  Biso   1.000  H
  C251     1.0000 0.39990  0.55800  0.36930  Biso   1.000  C
  C252     1.0000 0.43600  0.60700  0.38590  Biso   1.000  C
  H234     1.0000 0.43480  0.69250  0.39820  Biso   1.000  H
  C253     1.0000 0.47360  0.53600  0.38520  Biso   1.000  C
  H235     1.0000 0.49730  0.57090  0.39790  Biso   1.000  H
  C254     1.0000 0.47770  0.40900  0.36530  Biso   1.000  C
  C255     1.0000 0.44230  0.36300  0.35060  Biso   1.000  C
  H236     1.0000 0.44310  0.27690  0.33880  Biso   1.000  H
  C256     1.0000 0.40420  0.43200  0.35120  Biso   1.000  C
  H237     1.0000 0.38050  0.39460  0.33920  Biso   1.000  H
  C257     1.0000 0.52100  0.34700  0.36320  Biso   1.000  C
  O50      1.0000 0.16220  0.51500  0.16890  Biso   1.000  O
  C258     1.0000 0.20080  0.52300  0.16580  Biso   1.000  C
  C259     1.0000 0.21500  0.55300  0.12810  Biso   1.000  C
  H238     1.0000 0.24560  0.55840  0.12730  Biso   1.000  H
  H239     1.0000 0.20260  0.64020  0.12030  Biso   1.000  H
  H240     1.0000 0.20500  0.47960  0.11220  Biso   1.000  H
  N9       1.0000 0.22910  0.50900  0.19090  Biso   1.000  N
  C260     1.0000 0.21600  0.48400  0.22810  Biso   1.000  C
  H241     1.0000 0.24180  0.47630  0.24310  Biso   1.000  H
  H242     1.0000 0.20040  0.39840  0.22940  Biso   1.000  H
  H243     1.0000 0.19900  0.55980  0.23660  Biso   1.000  H
  C261     1.0000 0.27440  0.52400  0.18420  Biso   1.000  C
  H244     1.0000 0.29000  0.50980  0.20660  Biso   1.000  H
  H245     1.0000 0.28020  0.61620  0.17510  Biso   1.000  H
  H246     1.0000 0.28350  0.45620  0.16640  Biso   1.000  H
  C262     1.0000 0.18340  0.60300  0.15380  Biso   1.000  C
  C263     1.0000 0.20300  0.55000  0.12000  Biso   1.000  C
  H247     1.0000 0.22000  0.62290  0.10880  Biso   1.000  H
  H248     1.0000 0.18130  0.51950  0.10340  Biso   1.000  H
  H249     1.0000 0.22190  0.47270  0.12580  Biso   1.000  H
  N10      1.0000 0.19050  0.73100  0.16160  Biso   1.000  N
  C264     1.0000 0.17200  0.80100  0.19200  Biso   1.000  C
  H250     1.0000 0.18140  0.89630  0.19280  Biso   1.000  H
  H251     1.0000 0.18010  0.75490  0.21450  Biso   1.000  H
  H252     1.0000 0.14080  0.79930  0.19010  Biso   1.000  H
  C265     1.0000 0.22400  0.80900  0.14300  Biso   1.000  C
  H253     1.0000 0.22420  0.90260  0.15290  Biso   1.000  H
  H254     1.0000 0.21810  0.81130  0.11770  Biso   1.000  H
  H255     1.0000 0.25120  0.76530  0.14780  Biso   1.000  H
  C266     1.0000 0.20070  0.13180  0.93380  Biso   1.000  C
  H256     1.0000 0.21710  0.04930  0.92720  Biso   1.000  H
  H257     1.0000 0.17420  0.10020  0.94530  Biso   1.000  H
  Zn11     1.0000 0.43133  0.85330  0.67820  Biso   1.000  Zn
  O51      1.0000 0.20210  0.46070  0.03410  Biso   1.000  O
  C267     1.0000 0.29800  0.12860  0.93870  Biso   1.000  C
  H258     1.0000 0.28200  0.04790  0.93010  Biso   1.000  H
  H259     1.0000 0.32280  0.09480  0.95230  Biso   1.000  H
  Zn12     1.0000 0.39185  0.55560  0.64326  Biso   1.000  Zn
  O52      1.0000 0.36070  0.78340  0.12590  Biso   1.000  O
  C268     1.0000 0.25400  0.11790  0.86530  Biso   1.000  C
  H260     1.0000 0.25590  0.07720  0.84110  Biso   1.000  H
  H261     1.0000 0.25240  0.04150  0.88270  Biso   1.000  H
  O53      1.0000 0.39130  0.58740  0.14090  Biso   1.000  O
  O54      1.0000 0.40170  0.44170  0.88460  Biso   1.000  O
  O55      1.0000 0.40920  0.75640  0.72040  Biso   1.000  O
  O56      1.0000 0.41240  0.55740  0.69280  Biso   1.000  O
  O57      1.0000 0.15220  0.42610  0.80780  Biso   1.000  O
  O58      1.0000 0.98070  0.76130  0.84220  Biso   1.000  O
  O59      1.0000 0.94770  0.60640  0.87630  Biso   1.000  O
  C269     1.0000 0.22560  0.21090  0.96110  Biso   1.000  C
  C270     1.0000 0.27020  0.20930  0.96380  Biso   1.000  C
  C271     1.0000 0.28880  0.28800  0.98980  Biso   1.000  C
  H262     1.0000 0.31880  0.28540  0.99120  Biso   1.000  H
  C272     1.0000 0.26810  0.37060  0.01410  Biso   1.000  C
  C273     1.0000 0.22410  0.37890  0.01020  Biso   1.000  C
  C274     1.0000 0.20450  0.30280  0.98350  Biso   1.000  C
  H263     1.0000 0.17490  0.31390  0.98030  Biso   1.000  H
  C275     1.0000 0.15610  0.46400  0.03320  Biso   1.000  C
  H264     1.0000 0.14570  0.52650  0.05170  Biso   1.000  H
  H265     1.0000 0.14510  0.37180  0.03770  Biso   1.000  H
  H266     1.0000 0.14660  0.49560  0.00960  Biso   1.000  H
  C276     1.0000 0.29050  0.44500  0.04410  Biso   1.000  C
  C277     1.0000 0.32320  0.38000  0.06270  Biso   1.000  C
  H267     1.0000 0.33020  0.28810  0.05730  Biso   1.000  H
  C278     1.0000 0.34570  0.44900  0.08920  Biso   1.000  C
  H268     1.0000 0.36620  0.40110  0.10280  Biso   1.000  H
  C279     1.0000 0.33880  0.58400  0.09580  Biso   1.000  C
  C280     1.0000 0.30780  0.65200  0.07710  Biso   1.000  C
  H269     1.0000 0.30340  0.74670  0.08100  Biso   1.000  H
  C281     1.0000 0.28210  0.58100  0.05170  Biso   1.000  C
  H270     1.0000 0.25950  0.62660  0.04010  Biso   1.000  H
  C282     1.0000 0.36620  0.66300  0.12150  Biso   1.000  C
  C283     1.0000 0.31330  0.20840  0.90670  Biso   1.000  C
  C284     1.0000 0.29410  0.19670  0.87240  Biso   1.000  C
  C285     1.0000 0.31060  0.27830  0.84420  Biso   1.000  C
  H271     1.0000 0.29560  0.28060  0.82220  Biso   1.000  H
  C286     1.0000 0.34610  0.35270  0.84700  Biso   1.000  C
  C287     1.0000 0.36460  0.36690  0.88270  Biso   1.000  C
  C288     1.0000 0.34900  0.29040  0.91070  Biso   1.000  C
  H272     1.0000 0.36290  0.29360  0.93320  Biso   1.000  H
  C289     1.0000 0.42500  0.43700  0.91880  Biso   1.000  C
  H273     1.0000 0.45050  0.49290  0.91700  Biso   1.000  H
  H274     1.0000 0.43300  0.34180  0.92410  Biso   1.000  H
  H275     1.0000 0.40700  0.47170  0.93810  Biso   1.000  H
  C290     1.0000 0.36420  0.42900  0.81580  Biso   1.000  C
  C291     1.0000 0.36580  0.36000  0.78450  Biso   1.000  C
  H276     1.0000 0.35650  0.26740  0.78300  Biso   1.000  H
  C292     1.0000 0.38210  0.43000  0.75350  Biso   1.000  C
  H277     1.0000 0.38460  0.38000  0.73180  Biso   1.000  H
  C293     1.0000 0.39390  0.56100  0.75300  Biso   1.000  C
  C294     1.0000 0.39210  0.62800  0.78610  Biso   1.000  C
  H278     1.0000 0.40050  0.72120  0.78730  Biso   1.000  H
  C295     1.0000 0.37890  0.56600  0.81640  Biso   1.000  C
  H279     1.0000 0.37950  0.61440  0.83840  Biso   1.000  H
  C296     1.0000 0.40590  0.63600  0.71920  Biso   1.000  C
  C297     1.0000 0.21340  0.19860  0.86760  Biso   1.000  C
  C298     1.0000 0.18900  0.20720  0.89940  Biso   1.000  C
  C299     1.0000 0.15290  0.28900  0.89710  Biso   1.000  C
  H280     1.0000 0.13560  0.29350  0.91780  Biso   1.000  H
  C300     1.0000 0.14060  0.36100  0.86930  Biso   1.000  C
  C301     1.0000 0.16620  0.35300  0.83750  Biso   1.000  C
  C302     1.0000 0.20120  0.28050  0.83670  Biso   1.000  C
  H281     1.0000 0.21850  0.28140  0.81590  Biso   1.000  H
  C303     1.0000 0.17880  0.40600  0.77770  Biso   1.000  C
  H282     1.0000 0.16790  0.45920  0.75740  Biso   1.000  H
  H283     1.0000 0.17940  0.30900  0.77150  Biso   1.000  H
  H284     1.0000 0.20740  0.43730  0.78350  Biso   1.000  H
  C304     1.0000 0.10010  0.44200  0.86930  Biso   1.000  C
  C305     1.0000 0.06400  0.39300  0.88590  Biso   1.000  C
  H285     1.0000 0.06520  0.30750  0.89820  Biso   1.000  H
  C306     1.0000 0.02640  0.46400  0.88520  Biso   1.000  C
  H286     1.0000 0.00270  0.42910  0.89790  Biso   1.000  H
  C307     1.0000 0.02230  0.59100  0.86530  Biso   1.000  C
  C308     1.0000 0.05770  0.63700  0.85060  Biso   1.000  C
  H287     1.0000 0.05690  0.72310  0.83880  Biso   1.000  H
  C309     1.0000 0.09580  0.56800  0.85120  Biso   1.000  C
  H288     1.0000 0.11950  0.60540  0.83920  Biso   1.000  H
  C310     1.0000 0.97900  0.65300  0.86320  Biso   1.000  C
  O60      1.0000 0.33780  0.48500  0.66890  Biso   1.000  O
  C311     1.0000 0.29920  0.47700  0.66580  Biso   1.000  C
  C312     1.0000 0.28500  0.44700  0.62810  Biso   1.000  C
  H289     1.0000 0.25440  0.44160  0.62730  Biso   1.000  H
  H290     1.0000 0.29740  0.35980  0.62030  Biso   1.000  H
  H291     1.0000 0.29500  0.52040  0.61220  Biso   1.000  H
  N11      1.0000 0.27090  0.49100  0.69090  Biso   1.000  N
  C313     1.0000 0.28400  0.51600  0.72810  Biso   1.000  C
  H292     1.0000 0.25820  0.52370  0.74310  Biso   1.000  H
  H293     1.0000 0.29960  0.60160  0.72940  Biso   1.000  H
  H294     1.0000 0.30100  0.44020  0.73660  Biso   1.000  H
  C314     1.0000 0.22560  0.47600  0.68420  Biso   1.000  C
  H295     1.0000 0.21000  0.49020  0.70660  Biso   1.000  H
  H296     1.0000 0.21980  0.38380  0.67510  Biso   1.000  H
  H297     1.0000 0.21650  0.54380  0.66640  Biso   1.000  H
  C315     1.0000 0.31660  0.39700  0.65380  Biso   1.000  C
  C316     1.0000 0.29700  0.45000  0.62000  Biso   1.000  C
  H298     1.0000 0.28000  0.37710  0.60880  Biso   1.000  H
  H299     1.0000 0.31870  0.48050  0.60340  Biso   1.000  H
  H300     1.0000 0.27810  0.52730  0.62580  Biso   1.000  H
  N12      1.0000 0.30950  0.26900  0.66160  Biso   1.000  N
  C317     1.0000 0.32800  0.19900  0.69200  Biso   1.000  C
  H301     1.0000 0.31860  0.10370  0.69280  Biso   1.000  H
  H302     1.0000 0.31990  0.24510  0.71450  Biso   1.000  H
  H303     1.0000 0.35920  0.20070  0.69010  Biso   1.000  H
  C318     1.0000 0.27600  0.19100  0.64300  Biso   1.000  C
  H304     1.0000 0.27580  0.09740  0.65290  Biso   1.000  H
  H305     1.0000 0.28190  0.18870  0.61770  Biso   1.000  H
  H306     1.0000 0.24880  0.23470  0.64780  Biso   1.000  H
  C319     1.0000 0.70070  0.36820  0.06620  Biso   1.000  C
  H307     1.0000 0.71710  0.45070  0.07280  Biso   1.000  H
  H308     1.0000 0.67420  0.39980  0.05470  Biso   1.000  H
  Zn13     1.0000 0.93133  0.64670  0.32180  Biso   1.000  Zn
  O61      1.0000 0.70210  0.03930  0.96590  Biso   1.000  O
  C320     1.0000 0.79800  0.37140  0.06130  Biso   1.000  C
  H309     1.0000 0.78200  0.45210  0.06990  Biso   1.000  H
  H310     1.0000 0.82280  0.40520  0.04770  Biso   1.000  H
  Zn14     1.0000 0.89185  0.94440  0.35674  Biso   1.000  Zn
  O62      1.0000 0.86070  0.71660  0.87410  Biso   1.000  O
  C321     1.0000 0.75400  0.38210  0.13470  Biso   1.000  C
  H311     1.0000 0.75590  0.42280  0.15890  Biso   1.000  H
  H312     1.0000 0.75240  0.45850  0.11730  Biso   1.000  H
  O63      1.0000 0.89130  0.91260  0.85910  Biso   1.000  O
  O64      1.0000 0.90170  0.05830  0.11540  Biso   1.000  O
  O65      1.0000 0.90920  0.74360  0.27960  Biso   1.000  O
  O66      1.0000 0.91240  0.94260  0.30720  Biso   1.000  O
  O67      1.0000 0.65220  0.07390  0.19220  Biso   1.000  O
  O68      1.0000 0.48070  0.73870  0.15780  Biso   1.000  O
  O69      1.0000 0.44770  0.89360  0.12370  Biso   1.000  O
  C322     1.0000 0.72560  0.28910  0.03890  Biso   1.000  C
  C323     1.0000 0.77020  0.29070  0.03620  Biso   1.000  C
  C324     1.0000 0.78880  0.21200  0.01020  Biso   1.000  C
  H313     1.0000 0.81880  0.21460  0.00880  Biso   1.000  H
  C325     1.0000 0.76810  0.12940  0.98590  Biso   1.000  C
  C326     1.0000 0.72410  0.12110  0.98980  Biso   1.000  C
  C327     1.0000 0.70450  0.19720  0.01650  Biso   1.000  C
  H314     1.0000 0.67490  0.18610  0.01970  Biso   1.000  H
  C328     1.0000 0.65610  0.03600  0.96680  Biso   1.000  C
  H315     1.0000 0.64570  0.97350  0.94830  Biso   1.000  H
  H316     1.0000 0.64510  0.12820  0.96230  Biso   1.000  H
  H317     1.0000 0.64660  0.00440  0.99040  Biso   1.000  H
  C329     1.0000 0.79050  0.05500  0.95590  Biso   1.000  C
  C330     1.0000 0.82320  0.12000  0.93730  Biso   1.000  C
  H318     1.0000 0.83020  0.21190  0.94270  Biso   1.000  H
  C331     1.0000 0.84570  0.05100  0.91080  Biso   1.000  C
  H319     1.0000 0.86620  0.09890  0.89720  Biso   1.000  H
  C332     1.0000 0.83880  0.91600  0.90420  Biso   1.000  C
  C333     1.0000 0.80780  0.84800  0.92290  Biso   1.000  C
  H320     1.0000 0.80340  0.75330  0.91900  Biso   1.000  H
  C334     1.0000 0.78210  0.91900  0.94830  Biso   1.000  C
  H321     1.0000 0.75950  0.87340  0.95990  Biso   1.000  H
  C335     1.0000 0.86620  0.83700  0.87850  Biso   1.000  C
  C336     1.0000 0.81330  0.29160  0.09330  Biso   1.000  C
  C337     1.0000 0.79410  0.30330  0.12760  Biso   1.000  C
  C338     1.0000 0.81060  0.22170  0.15580  Biso   1.000  C
  H322     1.0000 0.79560  0.21940  0.17780  Biso   1.000  H
  C339     1.0000 0.84610  0.14730  0.15300  Biso   1.000  C
  C340     1.0000 0.86460  0.13310  0.11730  Biso   1.000  C
  C341     1.0000 0.84900  0.20960  0.08930  Biso   1.000  C
  H323     1.0000 0.86290  0.20640  0.06680  Biso   1.000  H
  C342     1.0000 0.92500  0.06300  0.08120  Biso   1.000  C
  H324     1.0000 0.95050  0.00710  0.08300  Biso   1.000  H
  H325     1.0000 0.93300  0.15820  0.07590  Biso   1.000  H
  H326     1.0000 0.90700  0.02830  0.06190  Biso   1.000  H
  C343     1.0000 0.86420  0.07100  0.18420  Biso   1.000  C
  C344     1.0000 0.86580  0.14000  0.21550  Biso   1.000  C
  H327     1.0000 0.85650  0.23260  0.21700  Biso   1.000  H
  C345     1.0000 0.88210  0.07000  0.24650  Biso   1.000  C
  H328     1.0000 0.88460  0.12000  0.26820  Biso   1.000  H
  C346     1.0000 0.89390  0.93900  0.24700  Biso   1.000  C
  C347     1.0000 0.89210  0.87200  0.21390  Biso   1.000  C
  H329     1.0000 0.90050  0.77880  0.21270  Biso   1.000  H
  C348     1.0000 0.87890  0.93400  0.18360  Biso   1.000  C
  H330     1.0000 0.87950  0.88560  0.16160  Biso   1.000  H
  C349     1.0000 0.90590  0.86400  0.28080  Biso   1.000  C
  C350     1.0000 0.71340  0.30140  0.13240  Biso   1.000  C
  C351     1.0000 0.68900  0.29280  0.10060  Biso   1.000  C
  C352     1.0000 0.65290  0.21100  0.10290  Biso   1.000  C
  H331     1.0000 0.63560  0.20650  0.08220  Biso   1.000  H
  C353     1.0000 0.64060  0.13900  0.13070  Biso   1.000  C
  C354     1.0000 0.66620  0.14700  0.16250  Biso   1.000  C
  C355     1.0000 0.70120  0.21950  0.16330  Biso   1.000  C
  H332     1.0000 0.71850  0.21860  0.18410  Biso   1.000  H
  C356     1.0000 0.67880  0.09400  0.22230  Biso   1.000  C
  H333     1.0000 0.66790  0.04080  0.24260  Biso   1.000  H
  H334     1.0000 0.67940  0.19100  0.22850  Biso   1.000  H
  H335     1.0000 0.70740  0.06270  0.21650  Biso   1.000  H
  C357     1.0000 0.60010  0.05800  0.13070  Biso   1.000  C
  C358     1.0000 0.56400  0.10700  0.11410  Biso   1.000  C
  H336     1.0000 0.56520  0.19250  0.10180  Biso   1.000  H
  C359     1.0000 0.52640  0.03600  0.11480  Biso   1.000  C
  H337     1.0000 0.50270  0.07090  0.10210  Biso   1.000  H
  C360     1.0000 0.52230  0.90900  0.13470  Biso   1.000  C
  C361     1.0000 0.55770  0.86300  0.14940  Biso   1.000  C
  H338     1.0000 0.55690  0.77690  0.16120  Biso   1.000  H
  C362     1.0000 0.59580  0.93200  0.14880  Biso   1.000  C
  H339     1.0000 0.61950  0.89460  0.16080  Biso   1.000  H
  C363     1.0000 0.47900  0.84700  0.13680  Biso   1.000  C
  O70      1.0000 0.83780  0.01500  0.33110  Biso   1.000  O
  C364     1.0000 0.79920  0.02300  0.33420  Biso   1.000  C
  C365     1.0000 0.78500  0.05300  0.37190  Biso   1.000  C
  H340     1.0000 0.75440  0.05840  0.37270  Biso   1.000  H
  H341     1.0000 0.79740  0.14020  0.37970  Biso   1.000  H
  H342     1.0000 0.79500  0.97960  0.38780  Biso   1.000  H
  N13      1.0000 0.77090  0.00900  0.30910  Biso   1.000  N
  C366     1.0000 0.78400  0.98400  0.27190  Biso   1.000  C
  H343     1.0000 0.75820  0.97630  0.25690  Biso   1.000  H
  H344     1.0000 0.79960  0.89840  0.27060  Biso   1.000  H
  H345     1.0000 0.80100  0.05980  0.26340  Biso   1.000  H
  C367     1.0000 0.72560  0.02400  0.31580  Biso   1.000  C
  H346     1.0000 0.71000  0.00980  0.29340  Biso   1.000  H
  H347     1.0000 0.71980  0.11620  0.32490  Biso   1.000  H
  H348     1.0000 0.71650  0.95620  0.33360  Biso   1.000  H
  C368     1.0000 0.81660  0.10300  0.34620  Biso   1.000  C
  C369     1.0000 0.79700  0.05000  0.38000  Biso   1.000  C
  H349     1.0000 0.78000  0.12290  0.39120  Biso   1.000  H
  H350     1.0000 0.81870  0.01950  0.39660  Biso   1.000  H
  H351     1.0000 0.77810  0.97270  0.37420  Biso   1.000  H
  N14      1.0000 0.80950  0.23100  0.33840  Biso   1.000  N
  C370     1.0000 0.82800  0.30100  0.30800  Biso   1.000  C
  H352     1.0000 0.81860  0.39630  0.30720  Biso   1.000  H
  H353     1.0000 0.81990  0.25490  0.28550  Biso   1.000  H
  H354     1.0000 0.85920  0.29930  0.30990  Biso   1.000  H
  C371     1.0000 0.77600  0.30900  0.35700  Biso   1.000  C
  H355     1.0000 0.77580  0.40260  0.34710  Biso   1.000  H
  H356     1.0000 0.78190  0.31130  0.38230  Biso   1.000  H
  H357     1.0000 0.74880  0.26530  0.35220  Biso   1.000  H
  C372     1.0000 0.79930  0.63180  0.56620  Biso   1.000  C
  H358     1.0000 0.78290  0.54930  0.57280  Biso   1.000  H
  H359     1.0000 0.82580  0.60020  0.55470  Biso   1.000  H
  Zn15     1.0000 0.56867  0.35330  0.82180  Biso   1.000  Zn
  O71      1.0000 0.79790  0.96070  0.46590  Biso   1.000  O
  C373     1.0000 0.70200  0.62860  0.56130  Biso   1.000  C
  H360     1.0000 0.71800  0.54790  0.56990  Biso   1.000  H
  H361     1.0000 0.67720  0.59480  0.54770  Biso   1.000  H
  Zn16     1.0000 0.60815  0.05560  0.85674  Biso   1.000  Zn
  O72      1.0000 0.63930  0.28340  0.37410  Biso   1.000  O
  C374     1.0000 0.74600  0.61790  0.63470  Biso   1.000  C
  H362     1.0000 0.74410  0.57720  0.65890  Biso   1.000  H
  H363     1.0000 0.74760  0.54150  0.61730  Biso   1.000  H
  O73      1.0000 0.60870  0.08740  0.35910  Biso   1.000  O
  O74      1.0000 0.59830  0.94170  0.61540  Biso   1.000  O
  O75      1.0000 0.59080  0.25640  0.77960  Biso   1.000  O
  O76      1.0000 0.58760  0.05740  0.80720  Biso   1.000  O
  O77      1.0000 0.84780  0.92610  0.69220  Biso   1.000  O
  O78      1.0000 0.01930  0.26130  0.65780  Biso   1.000  O
  O79      1.0000 0.05230  0.10640  0.62370  Biso   1.000  O
  C375     1.0000 0.77440  0.71090  0.53890  Biso   1.000  C
  C376     1.0000 0.72980  0.70930  0.53620  Biso   1.000  C
  C377     1.0000 0.71120  0.78800  0.51020  Biso   1.000  C
  H364     1.0000 0.68120  0.78540  0.50880  Biso   1.000  H
  C378     1.0000 0.73190  0.87060  0.48590  Biso   1.000  C
  C379     1.0000 0.77590  0.87890  0.48980  Biso   1.000  C
  C380     1.0000 0.79550  0.80280  0.51650  Biso   1.000  C
  H365     1.0000 0.82510  0.81390  0.51970  Biso   1.000  H
  C381     1.0000 0.84390  0.96400  0.46680  Biso   1.000  C
  H366     1.0000 0.85430  0.02650  0.44830  Biso   1.000  H
  H367     1.0000 0.85490  0.87180  0.46230  Biso   1.000  H
  H368     1.0000 0.85340  0.99560  0.49040  Biso   1.000  H
  C382     1.0000 0.70950  0.94500  0.45590  Biso   1.000  C
  C383     1.0000 0.67680  0.88000  0.43730  Biso   1.000  C
  H369     1.0000 0.66980  0.78810  0.44270  Biso   1.000  H
  C384     1.0000 0.65430  0.94900  0.41080  Biso   1.000  C
  H370     1.0000 0.63380  0.90110  0.39720  Biso   1.000  H
  C385     1.0000 0.66120  0.08400  0.40420  Biso   1.000  C
  C386     1.0000 0.69220  0.15200  0.42290  Biso   1.000  C
  H371     1.0000 0.69660  0.24670  0.41900  Biso   1.000  H
  C387     1.0000 0.71790  0.08100  0.44830  Biso   1.000  C
  H372     1.0000 0.74050  0.12660  0.45990  Biso   1.000  H
  C388     1.0000 0.63380  0.16300  0.37850  Biso   1.000  C
  C389     1.0000 0.68670  0.70840  0.59330  Biso   1.000  C
  C390     1.0000 0.70590  0.69670  0.62760  Biso   1.000  C
  C391     1.0000 0.68940  0.77830  0.65580  Biso   1.000  C
  H373     1.0000 0.70440  0.78060  0.67780  Biso   1.000  H
  C392     1.0000 0.65390  0.85270  0.65300  Biso   1.000  C
  C393     1.0000 0.63540  0.86690  0.61730  Biso   1.000  C
  C394     1.0000 0.65100  0.79040  0.58930  Biso   1.000  C
  H374     1.0000 0.63710  0.79360  0.56680  Biso   1.000  H
  C395     1.0000 0.57500  0.93700  0.58120  Biso   1.000  C
  H375     1.0000 0.54950  0.99290  0.58300  Biso   1.000  H
  H376     1.0000 0.56700  0.84180  0.57590  Biso   1.000  H
  H377     1.0000 0.59300  0.97170  0.56190  Biso   1.000  H
  C396     1.0000 0.63580  0.92900  0.68420  Biso   1.000  C
  C397     1.0000 0.63420  0.86000  0.71550  Biso   1.000  C
  H378     1.0000 0.64350  0.76740  0.71700  Biso   1.000  H
  C398     1.0000 0.61790  0.93000  0.74650  Biso   1.000  C
  H379     1.0000 0.61540  0.88000  0.76820  Biso   1.000  H
  C399     1.0000 0.60610  0.06100  0.74700  Biso   1.000  C
  C400     1.0000 0.60790  0.12800  0.71390  Biso   1.000  C
  H380     1.0000 0.59950  0.22120  0.71270  Biso   1.000  H
  C401     1.0000 0.62110  0.06600  0.68360  Biso   1.000  C
  H381     1.0000 0.62050  0.11440  0.66160  Biso   1.000  H
  C402     1.0000 0.59410  0.13600  0.78080  Biso   1.000  C
  C403     1.0000 0.78660  0.69860  0.63240  Biso   1.000  C
  C404     1.0000 0.81100  0.70720  0.60060  Biso   1.000  C
  C405     1.0000 0.84710  0.78900  0.60290  Biso   1.000  C
  H382     1.0000 0.86440  0.79350  0.58220  Biso   1.000  H
  C406     1.0000 0.85940  0.86100  0.63070  Biso   1.000  C
  C407     1.0000 0.83380  0.85300  0.66250  Biso   1.000  C
  C408     1.0000 0.79880  0.78050  0.66330  Biso   1.000  C
  H383     1.0000 0.78150  0.78140  0.68410  Biso   1.000  H
  C409     1.0000 0.82120  0.90600  0.72230  Biso   1.000  C
  H384     1.0000 0.83210  0.95920  0.74260  Biso   1.000  H
  H385     1.0000 0.82060  0.80900  0.72850  Biso   1.000  H
  H386     1.0000 0.79260  0.93730  0.71650  Biso   1.000  H
  C410     1.0000 0.89990  0.94200  0.63070  Biso   1.000  C
  C411     1.0000 0.93600  0.89300  0.61410  Biso   1.000  C
  H387     1.0000 0.93480  0.80750  0.60180  Biso   1.000  H
  C412     1.0000 0.97360  0.96400  0.61480  Biso   1.000  C
  H388     1.0000 0.99730  0.92910  0.60210  Biso   1.000  H
  C413     1.0000 0.97770  0.09100  0.63470  Biso   1.000  C
  C414     1.0000 0.94230  0.13700  0.64940  Biso   1.000  C
  H389     1.0000 0.94310  0.22310  0.66120  Biso   1.000  H
  C415     1.0000 0.90420  0.06800  0.64880  Biso   1.000  C
  H390     1.0000 0.88050  0.10540  0.66080  Biso   1.000  H
  C416     1.0000 0.02100  0.15300  0.63680  Biso   1.000  C
  O80      1.0000 0.66220  0.98500  0.83110  Biso   1.000  O
  C417     1.0000 0.70080  0.97700  0.83420  Biso   1.000  C
  C418     1.0000 0.71500  0.94700  0.87190  Biso   1.000  C
  H391     1.0000 0.74560  0.94160  0.87270  Biso   1.000  H
  H392     1.0000 0.70260  0.85980  0.87970  Biso   1.000  H
  H393     1.0000 0.70500  0.02040  0.88780  Biso   1.000  H
  N15      1.0000 0.72910  0.99100  0.80910  Biso   1.000  N
  C419     1.0000 0.71600  0.01600  0.77190  Biso   1.000  C
  H394     1.0000 0.74180  0.02370  0.75690  Biso   1.000  H
  H395     1.0000 0.70040  0.10160  0.77060  Biso   1.000  H
  H396     1.0000 0.69900  0.94020  0.76340  Biso   1.000  H
  C420     1.0000 0.77440  0.97600  0.81580  Biso   1.000  C
  H397     1.0000 0.79000  0.99020  0.79340  Biso   1.000  H
  H398     1.0000 0.78020  0.88380  0.82490  Biso   1.000  H
  H399     1.0000 0.78350  0.04380  0.83360  Biso   1.000  H
  C421     1.0000 0.68340  0.89700  0.84620  Biso   1.000  C
  C422     1.0000 0.70300  0.95000  0.88000  Biso   1.000  C
  H400     1.0000 0.72000  0.87710  0.89120  Biso   1.000  H
  H401     1.0000 0.68130  0.98050  0.89660  Biso   1.000  H
  H402     1.0000 0.72190  0.02730  0.87420  Biso   1.000  H
  N16      1.0000 0.69050  0.76900  0.83840  Biso   1.000  N
  C423     1.0000 0.67200  0.69900  0.80800  Biso   1.000  C
  H403     1.0000 0.68140  0.60370  0.80720  Biso   1.000  H
  H404     1.0000 0.68010  0.74510  0.78550  Biso   1.000  H
  H405     1.0000 0.64080  0.70070  0.80990  Biso   1.000  H
  C424     1.0000 0.72400  0.69100  0.85700  Biso   1.000  C
  H406     1.0000 0.72420  0.59740  0.84710  Biso   1.000  H
  H407     1.0000 0.71810  0.68870  0.88230  Biso   1.000  H
  H408     1.0000 0.75120  0.73470  0.85220  Biso   1.000  H
