data_image0
_cell_length_a       27.2925
_cell_length_b       27.8988
_cell_length_c       16.2886
_cell_angle_alpha    90
_cell_angle_beta     100.1
_cell_angle_gamma    90

_symmetry_space_group_name_H-M    "P 1"
_symmetry_int_tables_number       1

loop_
  _symmetry_equiv_pos_as_xyz
  'x, y, z'

loop_
  _atom_site_label
  _atom_site_occupancy
  _atom_site_fract_x
  _atom_site_fract_y
  _atom_site_fract_z
  _atom_site_thermal_displace_type
  _atom_site_B_iso_or_equiv
  _atom_site_type_symbol
  C1       1.0000 0.17270  0.43570  0.30710  Biso   1.000  C
  C2       1.0000 0.21070  0.39910  0.30560  Biso   1.000  C
  C3       1.0000 0.23830  0.38010  0.37930  Biso   1.000  C
  H1       1.0000 0.23270  0.39220  0.43010  Biso   1.000  H
  C4       1.0000 0.27220  0.34570  0.37980  Biso   1.000  C
  H2       1.0000 0.28880  0.33380  0.43050  Biso   1.000  H
  C5       1.0000 0.28370  0.32650  0.30360  Biso   1.000  C
  C6       1.0000 0.25510  0.34640  0.22620  Biso   1.000  C
  H3       1.0000 0.25920  0.33440  0.17450  Biso   1.000  H
  C7       1.0000 0.22320  0.38170  0.23130  Biso   1.000  C
  H4       1.0000 0.20800  0.39600  0.18180  Biso   1.000  H
  C8       1.0000 0.49090  0.12310  0.37210  Biso   1.000  C
  H5       1.0000 0.50760  0.10990  0.42170  Biso   1.000  H
  C9       1.0000 0.45770  0.16000  0.37560  Biso   1.000  C
  H6       1.0000 0.45390  0.17290  0.42670  Biso   1.000  H
  C10      1.0000 0.43010  0.17760  0.30220  Biso   1.000  C
  C11      1.0000 0.43910  0.15960  0.22910  Biso   1.000  C
  H7       1.0000 0.42230  0.17250  0.17950  Biso   1.000  H
  C12      1.0000 0.47210  0.12320  0.22560  Biso   1.000  C
  H8       1.0000 0.47570  0.11040  0.17430  Biso   1.000  H
  C13      1.0000 0.50030  0.10520  0.29860  Biso   1.000  C
  C14      1.0000 0.53730  0.06670  0.29450  Biso   1.000  C
  C15      1.0000 0.32060  0.28770  0.30090  Biso   1.000  C
  C16      1.0000 0.36570  0.29320  0.35690  Biso   1.000  C
  C17      1.0000 0.40330  0.25500  0.35160  Biso   1.000  C
  C18      1.0000 0.39280  0.21610  0.30360  Biso   1.000  C
  C19      1.0000 0.34320  0.21110  0.24950  Biso   1.000  C
  C20      1.0000 0.29910  0.24920  0.23440  Biso   1.000  C
  C21      1.0000 0.25070  0.19950  0.14110  Biso   1.000  C
  H9       1.0000 0.23760  0.17340  0.17010  Biso   1.000  H
  H10      1.0000 0.27950  0.18880  0.11860  Biso   1.000  H
  C22      1.0000 0.20760  0.22490  0.06940  Biso   1.000  C
  H11      1.0000 0.22120  0.25300  0.04630  Biso   1.000  H
  H12      1.0000 0.19640  0.20250  0.02440  Biso   1.000  H
  C23      1.0000 0.16350  0.23940  0.11280  Biso   1.000  C
  H13      1.0000 0.14540  0.20950  0.11350  Biso   1.000  H
  H14      1.0000 0.17960  0.24440  0.17010  Biso   1.000  H
  C24      1.0000 0.13020  0.26950  0.10350  Biso   1.000  C
  H15      1.0000 0.10350  0.25410  0.06550  Biso   1.000  H
  H16      1.0000 0.14260  0.29440  0.07100  Biso   1.000  H
  C25      1.0000 0.10040  0.30020  0.16840  Biso   1.000  C
  H17      1.0000 0.11030  0.33360  0.17290  Biso   1.000  H
  H18      1.0000 0.06450  0.29790  0.15270  Biso   1.000  H
  C26      1.0000 0.12150  0.27010  0.25310  Biso   1.000  C
  H19      1.0000 0.10790  0.28310  0.29880  Biso   1.000  H
  H20      1.0000 0.15710  0.27240  0.26510  Biso   1.000  H
  H21      1.0000 0.11190  0.23710  0.24520  Biso   1.000  H
  C27      1.0000 0.44780  0.28940  0.48650  Biso   1.000  C
  H22      1.0000 0.42220  0.31270  0.46630  Biso   1.000  H
  H23      1.0000 0.43190  0.26740  0.51970  Biso   1.000  H
  C28      1.0000 0.47140  0.31080  0.53740  Biso   1.000  C
  H24      1.0000 0.46940  0.29330  0.58820  Biso   1.000  H
  C29      1.0000 0.46860  0.36470  0.56180  Biso   1.000  C
  H25      1.0000 0.46700  0.36500  0.62080  Biso   1.000  H
  H26      1.0000 0.50070  0.37840  0.55680  Biso   1.000  H
  C30      1.0000 0.43000  0.40070  0.52170  Biso   1.000  C
  H27      1.0000 0.40410  0.40610  0.55460  Biso   1.000  H
  H28      1.0000 0.41520  0.39190  0.46520  Biso   1.000  H
  C31      1.0000 0.46760  0.44520  0.52510  Biso   1.000  C
  H29      1.0000 0.50270  0.43740  0.53870  Biso   1.000  H
  H30      1.0000 0.45900  0.47330  0.55460  Biso   1.000  H
  O1       1.0000 0.16520  0.44980  0.37800  Biso   1.000  O
  O2       1.0000 0.14880  0.44990  0.23860  Biso   1.000  O
  O3       1.0000 0.56010  0.05120  0.36260  Biso   1.000  O
  O4       1.0000 0.54370  0.05090  0.22560  Biso   1.000  O
  O5       1.0000 0.44710  0.26110  0.41230  Biso   1.000  O
  O6       1.0000 0.26030  0.24050  0.19010  Biso   1.000  O
  H31      1.0000 0.50520  0.30640  0.52780  Biso   1.000  H
  C32      1.0000 0.67270  0.93570  0.30710  Biso   1.000  C
  C33      1.0000 0.71070  0.89910  0.30560  Biso   1.000  C
  C34      1.0000 0.73830  0.88010  0.37930  Biso   1.000  C
  H32      1.0000 0.73270  0.89220  0.43010  Biso   1.000  H
  C35      1.0000 0.77220  0.84570  0.37980  Biso   1.000  C
  H33      1.0000 0.78880  0.83380  0.43050  Biso   1.000  H
  C36      1.0000 0.78370  0.82650  0.30360  Biso   1.000  C
  C37      1.0000 0.75510  0.84640  0.22620  Biso   1.000  C
  H34      1.0000 0.75920  0.83440  0.17450  Biso   1.000  H
  C38      1.0000 0.72320  0.88170  0.23130  Biso   1.000  C
  H35      1.0000 0.70800  0.89600  0.18180  Biso   1.000  H
  C39      1.0000 0.99090  0.62310  0.37210  Biso   1.000  C
  H36      1.0000 0.00760  0.60990  0.42170  Biso   1.000  H
  C40      1.0000 0.95770  0.66000  0.37560  Biso   1.000  C
  H37      1.0000 0.95390  0.67290  0.42670  Biso   1.000  H
  C41      1.0000 0.93010  0.67760  0.30220  Biso   1.000  C
  C42      1.0000 0.93910  0.65960  0.22910  Biso   1.000  C
  H38      1.0000 0.92230  0.67250  0.17950  Biso   1.000  H
  C43      1.0000 0.97210  0.62320  0.22560  Biso   1.000  C
  H39      1.0000 0.97570  0.61040  0.17430  Biso   1.000  H
  C44      1.0000 0.00030  0.60520  0.29860  Biso   1.000  C
  C45      1.0000 0.03730  0.56670  0.29450  Biso   1.000  C
  C46      1.0000 0.82060  0.78770  0.30090  Biso   1.000  C
  C47      1.0000 0.86570  0.79320  0.35690  Biso   1.000  C
  C48      1.0000 0.90330  0.75500  0.35160  Biso   1.000  C
  C49      1.0000 0.89280  0.71610  0.30360  Biso   1.000  C
  C50      1.0000 0.84320  0.71110  0.24950  Biso   1.000  C
  C51      1.0000 0.79910  0.74920  0.23440  Biso   1.000  C
  C52      1.0000 0.75070  0.69950  0.14110  Biso   1.000  C
  H40      1.0000 0.73760  0.67340  0.17010  Biso   1.000  H
  H41      1.0000 0.77950  0.68880  0.11860  Biso   1.000  H
  C53      1.0000 0.70760  0.72490  0.06940  Biso   1.000  C
  H42      1.0000 0.72120  0.75300  0.04630  Biso   1.000  H
  H43      1.0000 0.69640  0.70250  0.02440  Biso   1.000  H
  C54      1.0000 0.66350  0.73940  0.11280  Biso   1.000  C
  H44      1.0000 0.64540  0.70950  0.11350  Biso   1.000  H
  H45      1.0000 0.67960  0.74440  0.17010  Biso   1.000  H
  C55      1.0000 0.63020  0.76950  0.10350  Biso   1.000  C
  H46      1.0000 0.60350  0.75410  0.06550  Biso   1.000  H
  H47      1.0000 0.64260  0.79440  0.07100  Biso   1.000  H
  C56      1.0000 0.60040  0.80020  0.16840  Biso   1.000  C
  H48      1.0000 0.61030  0.83360  0.17290  Biso   1.000  H
  H49      1.0000 0.56450  0.79790  0.15270  Biso   1.000  H
  C57      1.0000 0.62150  0.77010  0.25310  Biso   1.000  C
  H50      1.0000 0.60790  0.78310  0.29880  Biso   1.000  H
  H51      1.0000 0.65710  0.77240  0.26510  Biso   1.000  H
  H52      1.0000 0.61190  0.73710  0.24520  Biso   1.000  H
  C58      1.0000 0.94780  0.78940  0.48650  Biso   1.000  C
  H53      1.0000 0.92220  0.81270  0.46630  Biso   1.000  H
  H54      1.0000 0.93190  0.76740  0.51970  Biso   1.000  H
  C59      1.0000 0.97140  0.81080  0.53740  Biso   1.000  C
  H55      1.0000 0.96940  0.79330  0.58820  Biso   1.000  H
  C60      1.0000 0.96860  0.86470  0.56180  Biso   1.000  C
  H56      1.0000 0.96700  0.86500  0.62080  Biso   1.000  H
  H57      1.0000 0.00070  0.87840  0.55680  Biso   1.000  H
  C61      1.0000 0.93000  0.90070  0.52170  Biso   1.000  C
  H58      1.0000 0.90410  0.90610  0.55460  Biso   1.000  H
  H59      1.0000 0.91520  0.89190  0.46520  Biso   1.000  H
  C62      1.0000 0.96760  0.94520  0.52510  Biso   1.000  C
  H60      1.0000 0.00270  0.93740  0.53870  Biso   1.000  H
  H61      1.0000 0.95900  0.97330  0.55460  Biso   1.000  H
  O7       1.0000 0.66520  0.94980  0.37800  Biso   1.000  O
  O8       1.0000 0.64880  0.94990  0.23860  Biso   1.000  O
  O9       1.0000 0.06010  0.55120  0.36260  Biso   1.000  O
  O10      1.0000 0.04370  0.55090  0.22560  Biso   1.000  O
  O11      1.0000 0.94710  0.76110  0.41230  Biso   1.000  O
  O12      1.0000 0.76030  0.74050  0.19010  Biso   1.000  O
  H62      1.0000 0.00520  0.80640  0.52780  Biso   1.000  H
  C63      1.0000 0.82730  0.43570  0.69290  Biso   1.000  C
  C64      1.0000 0.78930  0.39910  0.69440  Biso   1.000  C
  C65      1.0000 0.76170  0.38010  0.62070  Biso   1.000  C
  H63      1.0000 0.76730  0.39220  0.56990  Biso   1.000  H
  C66      1.0000 0.72780  0.34570  0.62020  Biso   1.000  C
  H64      1.0000 0.71120  0.33380  0.56950  Biso   1.000  H
  C67      1.0000 0.71630  0.32650  0.69640  Biso   1.000  C
  C68      1.0000 0.74490  0.34640  0.77380  Biso   1.000  C
  H65      1.0000 0.74080  0.33440  0.82550  Biso   1.000  H
  C69      1.0000 0.77680  0.38170  0.76870  Biso   1.000  C
  H66      1.0000 0.79200  0.39600  0.81820  Biso   1.000  H
  C70      1.0000 0.50910  0.12310  0.62790  Biso   1.000  C
  H67      1.0000 0.49240  0.10990  0.57830  Biso   1.000  H
  C71      1.0000 0.54230  0.16000  0.62440  Biso   1.000  C
  H68      1.0000 0.54610  0.17290  0.57330  Biso   1.000  H
  C72      1.0000 0.56990  0.17760  0.69780  Biso   1.000  C
  C73      1.0000 0.56090  0.15960  0.77090  Biso   1.000  C
  H69      1.0000 0.57770  0.17250  0.82050  Biso   1.000  H
  C74      1.0000 0.52790  0.12320  0.77440  Biso   1.000  C
  H70      1.0000 0.52430  0.11040  0.82570  Biso   1.000  H
  C75      1.0000 0.49970  0.10520  0.70140  Biso   1.000  C
  C76      1.0000 0.46270  0.06670  0.70550  Biso   1.000  C
  C77      1.0000 0.67940  0.28770  0.69910  Biso   1.000  C
  C78      1.0000 0.63430  0.29320  0.64310  Biso   1.000  C
  C79      1.0000 0.59670  0.25500  0.64840  Biso   1.000  C
  C80      1.0000 0.60720  0.21610  0.69640  Biso   1.000  C
  C81      1.0000 0.65680  0.21110  0.75050  Biso   1.000  C
  C82      1.0000 0.70090  0.24920  0.76560  Biso   1.000  C
  C83      1.0000 0.74930  0.19950  0.85890  Biso   1.000  C
  H71      1.0000 0.76240  0.17340  0.82990  Biso   1.000  H
  H72      1.0000 0.72050  0.18880  0.88140  Biso   1.000  H
  C84      1.0000 0.79240  0.22490  0.93060  Biso   1.000  C
  H73      1.0000 0.77880  0.25300  0.95370  Biso   1.000  H
  H74      1.0000 0.80360  0.20250  0.97560  Biso   1.000  H
  C85      1.0000 0.83650  0.23940  0.88720  Biso   1.000  C
  H75      1.0000 0.85460  0.20950  0.88650  Biso   1.000  H
  H76      1.0000 0.82040  0.24440  0.82990  Biso   1.000  H
  C86      1.0000 0.86980  0.26950  0.89650  Biso   1.000  C
  H77      1.0000 0.89650  0.25410  0.93450  Biso   1.000  H
  H78      1.0000 0.85740  0.29440  0.92900  Biso   1.000  H
  C87      1.0000 0.89960  0.30020  0.83160  Biso   1.000  C
  H79      1.0000 0.88970  0.33360  0.82710  Biso   1.000  H
  H80      1.0000 0.93550  0.29790  0.84730  Biso   1.000  H
  C88      1.0000 0.87850  0.27010  0.74690  Biso   1.000  C
  H81      1.0000 0.89210  0.28310  0.70120  Biso   1.000  H
  H82      1.0000 0.84290  0.27240  0.73490  Biso   1.000  H
  H83      1.0000 0.88810  0.23710  0.75480  Biso   1.000  H
  C89      1.0000 0.55220  0.28940  0.51350  Biso   1.000  C
  H84      1.0000 0.57780  0.31270  0.53370  Biso   1.000  H
  H85      1.0000 0.56810  0.26740  0.48030  Biso   1.000  H
  C90      1.0000 0.52860  0.31080  0.46260  Biso   1.000  C
  H86      1.0000 0.53060  0.29330  0.41180  Biso   1.000  H
  C91      1.0000 0.53140  0.36470  0.43820  Biso   1.000  C
  H87      1.0000 0.53300  0.36500  0.37920  Biso   1.000  H
  H88      1.0000 0.49930  0.37840  0.44320  Biso   1.000  H
  C92      1.0000 0.57000  0.40070  0.47830  Biso   1.000  C
  H89      1.0000 0.59590  0.40610  0.44540  Biso   1.000  H
  H90      1.0000 0.58480  0.39190  0.53480  Biso   1.000  H
  C93      1.0000 0.53240  0.44520  0.47490  Biso   1.000  C
  H91      1.0000 0.49730  0.43740  0.46130  Biso   1.000  H
  H92      1.0000 0.54100  0.47330  0.44540  Biso   1.000  H
  O13      1.0000 0.83480  0.44980  0.62200  Biso   1.000  O
  O14      1.0000 0.85120  0.44990  0.76140  Biso   1.000  O
  O15      1.0000 0.43990  0.05120  0.63740  Biso   1.000  O
  O16      1.0000 0.45630  0.05090  0.77440  Biso   1.000  O
  O17      1.0000 0.55290  0.26110  0.58770  Biso   1.000  O
  O18      1.0000 0.73970  0.24050  0.80990  Biso   1.000  O
  H93      1.0000 0.49480  0.30640  0.47220  Biso   1.000  H
  C94      1.0000 0.32730  0.93570  0.69290  Biso   1.000  C
  C95      1.0000 0.28930  0.89910  0.69440  Biso   1.000  C
  C96      1.0000 0.26170  0.88010  0.62070  Biso   1.000  C
  H94      1.0000 0.26730  0.89220  0.56990  Biso   1.000  H
  C97      1.0000 0.22780  0.84570  0.62020  Biso   1.000  C
  H95      1.0000 0.21120  0.83380  0.56950  Biso   1.000  H
  C98      1.0000 0.21630  0.82650  0.69640  Biso   1.000  C
  C99      1.0000 0.24490  0.84640  0.77380  Biso   1.000  C
  H96      1.0000 0.24080  0.83440  0.82550  Biso   1.000  H
  C100     1.0000 0.27680  0.88170  0.76870  Biso   1.000  C
  H97      1.0000 0.29200  0.89600  0.81820  Biso   1.000  H
  C101     1.0000 0.00910  0.62310  0.62790  Biso   1.000  C
  H98      1.0000 0.99240  0.60990  0.57830  Biso   1.000  H
  C102     1.0000 0.04230  0.66000  0.62440  Biso   1.000  C
  H99      1.0000 0.04610  0.67290  0.57330  Biso   1.000  H
  C103     1.0000 0.06990  0.67760  0.69780  Biso   1.000  C
  C104     1.0000 0.06090  0.65960  0.77090  Biso   1.000  C
  H100     1.0000 0.07770  0.67250  0.82050  Biso   1.000  H
  C105     1.0000 0.02790  0.62320  0.77440  Biso   1.000  C
  H101     1.0000 0.02430  0.61040  0.82570  Biso   1.000  H
  C106     1.0000 0.99970  0.60520  0.70140  Biso   1.000  C
  C107     1.0000 0.96270  0.56670  0.70550  Biso   1.000  C
  C108     1.0000 0.17940  0.78770  0.69910  Biso   1.000  C
  C109     1.0000 0.13430  0.79320  0.64310  Biso   1.000  C
  C110     1.0000 0.09670  0.75500  0.64840  Biso   1.000  C
  C111     1.0000 0.10720  0.71610  0.69640  Biso   1.000  C
  C112     1.0000 0.15680  0.71110  0.75050  Biso   1.000  C
  C113     1.0000 0.20090  0.74920  0.76560  Biso   1.000  C
  C114     1.0000 0.24930  0.69950  0.85890  Biso   1.000  C
  H102     1.0000 0.26240  0.67340  0.82990  Biso   1.000  H
  H103     1.0000 0.22050  0.68880  0.88140  Biso   1.000  H
  C115     1.0000 0.29240  0.72490  0.93060  Biso   1.000  C
  H104     1.0000 0.27880  0.75300  0.95370  Biso   1.000  H
  H105     1.0000 0.30360  0.70250  0.97560  Biso   1.000  H
  C116     1.0000 0.33650  0.73940  0.88720  Biso   1.000  C
  H106     1.0000 0.35460  0.70950  0.88650  Biso   1.000  H
  H107     1.0000 0.32040  0.74440  0.82990  Biso   1.000  H
  C117     1.0000 0.36980  0.76950  0.89650  Biso   1.000  C
  H108     1.0000 0.39650  0.75410  0.93450  Biso   1.000  H
  H109     1.0000 0.35740  0.79440  0.92900  Biso   1.000  H
  C118     1.0000 0.39960  0.80020  0.83160  Biso   1.000  C
  H110     1.0000 0.38970  0.83360  0.82710  Biso   1.000  H
  H111     1.0000 0.43550  0.79790  0.84730  Biso   1.000  H
  C119     1.0000 0.37850  0.77010  0.74690  Biso   1.000  C
  H112     1.0000 0.39210  0.78310  0.70120  Biso   1.000  H
  H113     1.0000 0.34290  0.77240  0.73490  Biso   1.000  H
  H114     1.0000 0.38810  0.73710  0.75480  Biso   1.000  H
  C120     1.0000 0.05220  0.78940  0.51350  Biso   1.000  C
  H115     1.0000 0.07780  0.81270  0.53370  Biso   1.000  H
  H116     1.0000 0.06810  0.76740  0.48030  Biso   1.000  H
  C121     1.0000 0.02860  0.81080  0.46260  Biso   1.000  C
  H117     1.0000 0.03060  0.79330  0.41180  Biso   1.000  H
  C122     1.0000 0.03140  0.86470  0.43820  Biso   1.000  C
  H118     1.0000 0.03300  0.86500  0.37920  Biso   1.000  H
  H119     1.0000 0.99930  0.87840  0.44320  Biso   1.000  H
  C123     1.0000 0.07000  0.90070  0.47830  Biso   1.000  C
  H120     1.0000 0.09590  0.90610  0.44540  Biso   1.000  H
  H121     1.0000 0.08480  0.89190  0.53480  Biso   1.000  H
  C124     1.0000 0.03240  0.94520  0.47490  Biso   1.000  C
  H122     1.0000 0.99730  0.93740  0.46130  Biso   1.000  H
  H123     1.0000 0.04100  0.97330  0.44540  Biso   1.000  H
  O19      1.0000 0.33480  0.94980  0.62200  Biso   1.000  O
  O20      1.0000 0.35120  0.94990  0.76140  Biso   1.000  O
  O21      1.0000 0.93990  0.55120  0.63740  Biso   1.000  O
  O22      1.0000 0.95630  0.55090  0.77440  Biso   1.000  O
  O23      1.0000 0.05290  0.76110  0.58770  Biso   1.000  O
  O24      1.0000 0.23970  0.74050  0.80990  Biso   1.000  O
  H124     1.0000 0.99480  0.80640  0.47220  Biso   1.000  H
  C125     1.0000 0.82730  0.56430  0.69290  Biso   1.000  C
  C126     1.0000 0.78930  0.60090  0.69440  Biso   1.000  C
  C127     1.0000 0.76170  0.61990  0.62070  Biso   1.000  C
  H125     1.0000 0.76730  0.60780  0.56990  Biso   1.000  H
  C128     1.0000 0.72780  0.65430  0.62020  Biso   1.000  C
  H126     1.0000 0.71120  0.66620  0.56950  Biso   1.000  H
  C129     1.0000 0.71630  0.67350  0.69640  Biso   1.000  C
  C130     1.0000 0.74490  0.65360  0.77380  Biso   1.000  C
  H127     1.0000 0.74080  0.66560  0.82550  Biso   1.000  H
  C131     1.0000 0.77680  0.61830  0.76870  Biso   1.000  C
  H128     1.0000 0.79200  0.60400  0.81820  Biso   1.000  H
  C132     1.0000 0.50910  0.87690  0.62790  Biso   1.000  C
  H129     1.0000 0.49240  0.89010  0.57830  Biso   1.000  H
  C133     1.0000 0.54230  0.84000  0.62440  Biso   1.000  C
  H130     1.0000 0.54610  0.82710  0.57330  Biso   1.000  H
  C134     1.0000 0.56990  0.82240  0.69780  Biso   1.000  C
  C135     1.0000 0.56090  0.84040  0.77090  Biso   1.000  C
  H131     1.0000 0.57770  0.82750  0.82050  Biso   1.000  H
  C136     1.0000 0.52790  0.87680  0.77440  Biso   1.000  C
  H132     1.0000 0.52430  0.88960  0.82570  Biso   1.000  H
  C137     1.0000 0.49970  0.89480  0.70140  Biso   1.000  C
  C138     1.0000 0.46270  0.93330  0.70550  Biso   1.000  C
  C139     1.0000 0.67940  0.71230  0.69910  Biso   1.000  C
  C140     1.0000 0.63430  0.70680  0.64310  Biso   1.000  C
  C141     1.0000 0.59670  0.74500  0.64840  Biso   1.000  C
  C142     1.0000 0.60720  0.78390  0.69640  Biso   1.000  C
  C143     1.0000 0.65680  0.78890  0.75050  Biso   1.000  C
  C144     1.0000 0.70090  0.75080  0.76560  Biso   1.000  C
  C145     1.0000 0.74930  0.80050  0.85890  Biso   1.000  C
  H133     1.0000 0.76240  0.82660  0.82990  Biso   1.000  H
  H134     1.0000 0.72050  0.81120  0.88140  Biso   1.000  H
  C146     1.0000 0.79240  0.77510  0.93060  Biso   1.000  C
  H135     1.0000 0.77880  0.74700  0.95370  Biso   1.000  H
  H136     1.0000 0.80360  0.79750  0.97560  Biso   1.000  H
  C147     1.0000 0.83650  0.76060  0.88720  Biso   1.000  C
  H137     1.0000 0.85460  0.79050  0.88650  Biso   1.000  H
  H138     1.0000 0.82040  0.75560  0.82990  Biso   1.000  H
  C148     1.0000 0.86980  0.73050  0.89650  Biso   1.000  C
  H139     1.0000 0.89650  0.74590  0.93450  Biso   1.000  H
  H140     1.0000 0.85740  0.70560  0.92900  Biso   1.000  H
  C149     1.0000 0.89960  0.69980  0.83160  Biso   1.000  C
  H141     1.0000 0.88970  0.66640  0.82710  Biso   1.000  H
  H142     1.0000 0.93550  0.70210  0.84730  Biso   1.000  H
  C150     1.0000 0.87850  0.72990  0.74690  Biso   1.000  C
  H143     1.0000 0.89210  0.71690  0.70120  Biso   1.000  H
  H144     1.0000 0.84290  0.72760  0.73490  Biso   1.000  H
  H145     1.0000 0.88810  0.76290  0.75480  Biso   1.000  H
  C151     1.0000 0.55220  0.71060  0.51350  Biso   1.000  C
  H146     1.0000 0.57780  0.68730  0.53370  Biso   1.000  H
  H147     1.0000 0.56810  0.73260  0.48030  Biso   1.000  H
  C152     1.0000 0.52860  0.68920  0.46260  Biso   1.000  C
  H148     1.0000 0.53060  0.70670  0.41180  Biso   1.000  H
  C153     1.0000 0.53140  0.63530  0.43820  Biso   1.000  C
  H149     1.0000 0.53300  0.63500  0.37920  Biso   1.000  H
  H150     1.0000 0.49930  0.62160  0.44320  Biso   1.000  H
  C154     1.0000 0.57000  0.59930  0.47830  Biso   1.000  C
  H151     1.0000 0.59590  0.59390  0.44540  Biso   1.000  H
  H152     1.0000 0.58480  0.60810  0.53480  Biso   1.000  H
  C155     1.0000 0.53240  0.55480  0.47490  Biso   1.000  C
  H153     1.0000 0.49730  0.56260  0.46130  Biso   1.000  H
  H154     1.0000 0.54100  0.52670  0.44540  Biso   1.000  H
  O25      1.0000 0.83480  0.55020  0.62200  Biso   1.000  O
  O26      1.0000 0.85120  0.55010  0.76140  Biso   1.000  O
  O27      1.0000 0.43990  0.94880  0.63740  Biso   1.000  O
  O28      1.0000 0.45630  0.94910  0.77440  Biso   1.000  O
  O29      1.0000 0.55290  0.73890  0.58770  Biso   1.000  O
  O30      1.0000 0.73970  0.75950  0.80990  Biso   1.000  O
  H155     1.0000 0.49480  0.69360  0.47220  Biso   1.000  H
  C156     1.0000 0.32730  0.06430  0.69290  Biso   1.000  C
  C157     1.0000 0.28930  0.10090  0.69440  Biso   1.000  C
  C158     1.0000 0.26170  0.11990  0.62070  Biso   1.000  C
  H156     1.0000 0.26730  0.10780  0.56990  Biso   1.000  H
  C159     1.0000 0.22780  0.15430  0.62020  Biso   1.000  C
  H157     1.0000 0.21120  0.16620  0.56950  Biso   1.000  H
  C160     1.0000 0.21630  0.17350  0.69640  Biso   1.000  C
  C161     1.0000 0.24490  0.15360  0.77380  Biso   1.000  C
  H158     1.0000 0.24080  0.16560  0.82550  Biso   1.000  H
  C162     1.0000 0.27680  0.11830  0.76870  Biso   1.000  C
  H159     1.0000 0.29200  0.10400  0.81820  Biso   1.000  H
  C163     1.0000 0.00910  0.37690  0.62790  Biso   1.000  C
  H160     1.0000 0.99240  0.39010  0.57830  Biso   1.000  H
  C164     1.0000 0.04230  0.34000  0.62440  Biso   1.000  C
  H161     1.0000 0.04610  0.32710  0.57330  Biso   1.000  H
  C165     1.0000 0.06990  0.32240  0.69780  Biso   1.000  C
  C166     1.0000 0.06090  0.34040  0.77090  Biso   1.000  C
  H162     1.0000 0.07770  0.32750  0.82050  Biso   1.000  H
  C167     1.0000 0.02790  0.37680  0.77440  Biso   1.000  C
  H163     1.0000 0.02430  0.38960  0.82570  Biso   1.000  H
  C168     1.0000 0.99970  0.39480  0.70140  Biso   1.000  C
  C169     1.0000 0.96270  0.43330  0.70550  Biso   1.000  C
  C170     1.0000 0.17940  0.21230  0.69910  Biso   1.000  C
  C171     1.0000 0.13430  0.20680  0.64310  Biso   1.000  C
  C172     1.0000 0.09670  0.24500  0.64840  Biso   1.000  C
  C173     1.0000 0.10720  0.28390  0.69640  Biso   1.000  C
  C174     1.0000 0.15680  0.28890  0.75050  Biso   1.000  C
  C175     1.0000 0.20090  0.25080  0.76560  Biso   1.000  C
  C176     1.0000 0.24930  0.30050  0.85890  Biso   1.000  C
  H164     1.0000 0.26240  0.32660  0.82990  Biso   1.000  H
  H165     1.0000 0.22050  0.31120  0.88140  Biso   1.000  H
  C177     1.0000 0.29240  0.27510  0.93060  Biso   1.000  C
  H166     1.0000 0.27880  0.24700  0.95370  Biso   1.000  H
  H167     1.0000 0.30360  0.29750  0.97560  Biso   1.000  H
  C178     1.0000 0.33650  0.26060  0.88720  Biso   1.000  C
  H168     1.0000 0.35460  0.29050  0.88650  Biso   1.000  H
  H169     1.0000 0.32040  0.25560  0.82990  Biso   1.000  H
  C179     1.0000 0.36980  0.23050  0.89650  Biso   1.000  C
  H170     1.0000 0.39650  0.24590  0.93450  Biso   1.000  H
  H171     1.0000 0.35740  0.20560  0.92900  Biso   1.000  H
  C180     1.0000 0.39960  0.19980  0.83160  Biso   1.000  C
  H172     1.0000 0.38970  0.16640  0.82710  Biso   1.000  H
  H173     1.0000 0.43550  0.20210  0.84730  Biso   1.000  H
  C181     1.0000 0.37850  0.22990  0.74690  Biso   1.000  C
  H174     1.0000 0.39210  0.21690  0.70120  Biso   1.000  H
  H175     1.0000 0.34290  0.22760  0.73490  Biso   1.000  H
  H176     1.0000 0.38810  0.26290  0.75480  Biso   1.000  H
  C182     1.0000 0.05220  0.21060  0.51350  Biso   1.000  C
  H177     1.0000 0.07780  0.18730  0.53370  Biso   1.000  H
  H178     1.0000 0.06810  0.23260  0.48030  Biso   1.000  H
  C183     1.0000 0.02860  0.18920  0.46260  Biso   1.000  C
  H179     1.0000 0.03060  0.20670  0.41180  Biso   1.000  H
  C184     1.0000 0.03140  0.13530  0.43820  Biso   1.000  C
  H180     1.0000 0.03300  0.13500  0.37920  Biso   1.000  H
  H181     1.0000 0.99930  0.12160  0.44320  Biso   1.000  H
  C185     1.0000 0.07000  0.09930  0.47830  Biso   1.000  C
  H182     1.0000 0.09590  0.09390  0.44540  Biso   1.000  H
  H183     1.0000 0.08480  0.10810  0.53480  Biso   1.000  H
  C186     1.0000 0.03240  0.05480  0.47490  Biso   1.000  C
  H184     1.0000 0.99730  0.06260  0.46130  Biso   1.000  H
  H185     1.0000 0.04100  0.02670  0.44540  Biso   1.000  H
  O31      1.0000 0.33480  0.05020  0.62200  Biso   1.000  O
  O32      1.0000 0.35120  0.05010  0.76140  Biso   1.000  O
  O33      1.0000 0.93990  0.44880  0.63740  Biso   1.000  O
  O34      1.0000 0.95630  0.44910  0.77440  Biso   1.000  O
  O35      1.0000 0.05290  0.23890  0.58770  Biso   1.000  O
  O36      1.0000 0.23970  0.25950  0.80990  Biso   1.000  O
  H186     1.0000 0.99480  0.19360  0.47220  Biso   1.000  H
  C187     1.0000 0.17270  0.56430  0.30710  Biso   1.000  C
  C188     1.0000 0.21070  0.60090  0.30560  Biso   1.000  C
  C189     1.0000 0.23830  0.61990  0.37930  Biso   1.000  C
  H187     1.0000 0.23270  0.60780  0.43010  Biso   1.000  H
  C190     1.0000 0.27220  0.65430  0.37980  Biso   1.000  C
  H188     1.0000 0.28880  0.66620  0.43050  Biso   1.000  H
  C191     1.0000 0.28370  0.67350  0.30360  Biso   1.000  C
  C192     1.0000 0.25510  0.65360  0.22620  Biso   1.000  C
  H189     1.0000 0.25920  0.66560  0.17450  Biso   1.000  H
  C193     1.0000 0.22320  0.61830  0.23130  Biso   1.000  C
  H190     1.0000 0.20800  0.60400  0.18180  Biso   1.000  H
  C194     1.0000 0.49090  0.87690  0.37210  Biso   1.000  C
  H191     1.0000 0.50760  0.89010  0.42170  Biso   1.000  H
  C195     1.0000 0.45770  0.84000  0.37560  Biso   1.000  C
  H192     1.0000 0.45390  0.82710  0.42670  Biso   1.000  H
  C196     1.0000 0.43010  0.82240  0.30220  Biso   1.000  C
  C197     1.0000 0.43910  0.84040  0.22910  Biso   1.000  C
  H193     1.0000 0.42230  0.82750  0.17950  Biso   1.000  H
  C198     1.0000 0.47210  0.87680  0.22560  Biso   1.000  C
  H194     1.0000 0.47570  0.88960  0.17430  Biso   1.000  H
  C199     1.0000 0.50030  0.89480  0.29860  Biso   1.000  C
  C200     1.0000 0.53730  0.93330  0.29450  Biso   1.000  C
  C201     1.0000 0.32060  0.71230  0.30090  Biso   1.000  C
  C202     1.0000 0.36570  0.70680  0.35690  Biso   1.000  C
  C203     1.0000 0.40330  0.74500  0.35160  Biso   1.000  C
  C204     1.0000 0.39280  0.78390  0.30360  Biso   1.000  C
  C205     1.0000 0.34320  0.78890  0.24950  Biso   1.000  C
  C206     1.0000 0.29910  0.75080  0.23440  Biso   1.000  C
  C207     1.0000 0.25070  0.80050  0.14110  Biso   1.000  C
  H195     1.0000 0.23760  0.82660  0.17010  Biso   1.000  H
  H196     1.0000 0.27950  0.81120  0.11860  Biso   1.000  H
  C208     1.0000 0.20760  0.77510  0.06940  Biso   1.000  C
  H197     1.0000 0.22120  0.74700  0.04630  Biso   1.000  H
  H198     1.0000 0.19640  0.79750  0.02440  Biso   1.000  H
  C209     1.0000 0.16350  0.76060  0.11280  Biso   1.000  C
  H199     1.0000 0.14540  0.79050  0.11350  Biso   1.000  H
  H200     1.0000 0.17960  0.75560  0.17010  Biso   1.000  H
  C210     1.0000 0.13020  0.73050  0.10350  Biso   1.000  C
  H201     1.0000 0.10350  0.74590  0.06550  Biso   1.000  H
  H202     1.0000 0.14260  0.70560  0.07100  Biso   1.000  H
  C211     1.0000 0.10040  0.69980  0.16840  Biso   1.000  C
  H203     1.0000 0.11030  0.66640  0.17290  Biso   1.000  H
  H204     1.0000 0.06450  0.70210  0.15270  Biso   1.000  H
  C212     1.0000 0.12150  0.72990  0.25310  Biso   1.000  C
  H205     1.0000 0.10790  0.71690  0.29880  Biso   1.000  H
  H206     1.0000 0.15710  0.72760  0.26510  Biso   1.000  H
  H207     1.0000 0.11190  0.76290  0.24520  Biso   1.000  H
  C213     1.0000 0.44780  0.71060  0.48650  Biso   1.000  C
  H208     1.0000 0.42220  0.68730  0.46630  Biso   1.000  H
  H209     1.0000 0.43190  0.73260  0.51970  Biso   1.000  H
  C214     1.0000 0.47140  0.68920  0.53740  Biso   1.000  C
  H210     1.0000 0.46940  0.70670  0.58820  Biso   1.000  H
  C215     1.0000 0.46860  0.63530  0.56180  Biso   1.000  C
  H211     1.0000 0.46700  0.63500  0.62080  Biso   1.000  H
  H212     1.0000 0.50070  0.62160  0.55680  Biso   1.000  H
  C216     1.0000 0.43000  0.59930  0.52170  Biso   1.000  C
  H213     1.0000 0.40410  0.59390  0.55460  Biso   1.000  H
  H214     1.0000 0.41520  0.60810  0.46520  Biso   1.000  H
  C217     1.0000 0.46760  0.55480  0.52510  Biso   1.000  C
  H215     1.0000 0.50270  0.56260  0.53870  Biso   1.000  H
  H216     1.0000 0.45900  0.52670  0.55460  Biso   1.000  H
  O37      1.0000 0.16520  0.55020  0.37800  Biso   1.000  O
  O38      1.0000 0.14880  0.55010  0.23860  Biso   1.000  O
  O39      1.0000 0.56010  0.94880  0.36260  Biso   1.000  O
  O40      1.0000 0.54370  0.94910  0.22560  Biso   1.000  O
  O41      1.0000 0.44710  0.73890  0.41230  Biso   1.000  O
  O42      1.0000 0.26030  0.75950  0.19010  Biso   1.000  O
  H217     1.0000 0.50520  0.69360  0.52780  Biso   1.000  H
  C218     1.0000 0.67270  0.06430  0.30710  Biso   1.000  C
  C219     1.0000 0.71070  0.10090  0.30560  Biso   1.000  C
  C220     1.0000 0.73830  0.11990  0.37930  Biso   1.000  C
  H218     1.0000 0.73270  0.10780  0.43010  Biso   1.000  H
  C221     1.0000 0.77220  0.15430  0.37980  Biso   1.000  C
  H219     1.0000 0.78880  0.16620  0.43050  Biso   1.000  H
  C222     1.0000 0.78370  0.17350  0.30360  Biso   1.000  C
  C223     1.0000 0.75510  0.15360  0.22620  Biso   1.000  C
  H220     1.0000 0.75920  0.16560  0.17450  Biso   1.000  H
  C224     1.0000 0.72320  0.11830  0.23130  Biso   1.000  C
  H221     1.0000 0.70800  0.10400  0.18180  Biso   1.000  H
  C225     1.0000 0.99090  0.37690  0.37210  Biso   1.000  C
  H222     1.0000 0.00760  0.39010  0.42170  Biso   1.000  H
  C226     1.0000 0.95770  0.34000  0.37560  Biso   1.000  C
  H223     1.0000 0.95390  0.32710  0.42670  Biso   1.000  H
  C227     1.0000 0.93010  0.32240  0.30220  Biso   1.000  C
  C228     1.0000 0.93910  0.34040  0.22910  Biso   1.000  C
  H224     1.0000 0.92230  0.32750  0.17950  Biso   1.000  H
  C229     1.0000 0.97210  0.37680  0.22560  Biso   1.000  C
  H225     1.0000 0.97570  0.38960  0.17430  Biso   1.000  H
  C230     1.0000 0.00030  0.39480  0.29860  Biso   1.000  C
  C231     1.0000 0.03730  0.43330  0.29450  Biso   1.000  C
  C232     1.0000 0.82060  0.21230  0.30090  Biso   1.000  C
  C233     1.0000 0.86570  0.20680  0.35690  Biso   1.000  C
  C234     1.0000 0.90330  0.24500  0.35160  Biso   1.000  C
  C235     1.0000 0.89280  0.28390  0.30360  Biso   1.000  C
  C236     1.0000 0.84320  0.28890  0.24950  Biso   1.000  C
  C237     1.0000 0.79910  0.25080  0.23440  Biso   1.000  C
  C238     1.0000 0.75070  0.30050  0.14110  Biso   1.000  C
  H226     1.0000 0.73760  0.32660  0.17010  Biso   1.000  H
  H227     1.0000 0.77950  0.31120  0.11860  Biso   1.000  H
  C239     1.0000 0.70760  0.27510  0.06940  Biso   1.000  C
  H228     1.0000 0.72120  0.24700  0.04630  Biso   1.000  H
  H229     1.0000 0.69640  0.29750  0.02440  Biso   1.000  H
  C240     1.0000 0.66350  0.26060  0.11280  Biso   1.000  C
  H230     1.0000 0.64540  0.29050  0.11350  Biso   1.000  H
  H231     1.0000 0.67960  0.25560  0.17010  Biso   1.000  H
  C241     1.0000 0.63020  0.23050  0.10350  Biso   1.000  C
  H232     1.0000 0.60350  0.24590  0.06550  Biso   1.000  H
  H233     1.0000 0.64260  0.20560  0.07100  Biso   1.000  H
  C242     1.0000 0.60040  0.19980  0.16840  Biso   1.000  C
  H234     1.0000 0.61030  0.16640  0.17290  Biso   1.000  H
  H235     1.0000 0.56450  0.20210  0.15270  Biso   1.000  H
  C243     1.0000 0.62150  0.22990  0.25310  Biso   1.000  C
  H236     1.0000 0.60790  0.21690  0.29880  Biso   1.000  H
  H237     1.0000 0.65710  0.22760  0.26510  Biso   1.000  H
  H238     1.0000 0.61190  0.26290  0.24520  Biso   1.000  H
  C244     1.0000 0.94780  0.21060  0.48650  Biso   1.000  C
  H239     1.0000 0.92220  0.18730  0.46630  Biso   1.000  H
  H240     1.0000 0.93190  0.23260  0.51970  Biso   1.000  H
  C245     1.0000 0.97140  0.18920  0.53740  Biso   1.000  C
  H241     1.0000 0.96940  0.20670  0.58820  Biso   1.000  H
  C246     1.0000 0.96860  0.13530  0.56180  Biso   1.000  C
  H242     1.0000 0.96700  0.13500  0.62080  Biso   1.000  H
  H243     1.0000 0.00070  0.12160  0.55680  Biso   1.000  H
  C247     1.0000 0.93000  0.09930  0.52170  Biso   1.000  C
  H244     1.0000 0.90410  0.09390  0.55460  Biso   1.000  H
  H245     1.0000 0.91520  0.10810  0.46520  Biso   1.000  H
  C248     1.0000 0.96760  0.05480  0.52510  Biso   1.000  C
  H246     1.0000 0.00270  0.06260  0.53870  Biso   1.000  H
  H247     1.0000 0.95900  0.02670  0.55460  Biso   1.000  H
  O43      1.0000 0.66520  0.05020  0.37800  Biso   1.000  O
  O44      1.0000 0.64880  0.05010  0.23860  Biso   1.000  O
  O45      1.0000 0.06010  0.44880  0.36260  Biso   1.000  O
  O46      1.0000 0.04370  0.44910  0.22560  Biso   1.000  O
  O47      1.0000 0.94710  0.23890  0.41230  Biso   1.000  O
  O48      1.0000 0.76030  0.25950  0.19010  Biso   1.000  O
  H248     1.0000 0.00520  0.19360  0.52780  Biso   1.000  H
  C249     1.0000 0.13130  0.50000  0.05610  Biso   1.000  C
  H249     1.0000 0.16170  0.50000  0.09230  Biso   1.000  H
  C250     1.0000 0.12970  0.50000  0.94850  Biso   1.000  C
  H250     1.0000 0.15830  0.50000  0.92480  Biso   1.000  H
  C251     1.0000 0.08980  0.50000  0.90880  Biso   1.000  C
  C252     1.0000 0.04920  0.50000  0.94670  Biso   1.000  C
  H251     1.0000 0.01860  0.50000  0.91110  Biso   1.000  H
  C253     1.0000 0.04720  0.50000  0.03030  Biso   1.000  C
  H252     1.0000 0.01670  0.50000  0.04830  Biso   1.000  H
  C254     1.0000 0.16010  0.50000  0.57580  Biso   1.000  C
  H253     1.0000 0.19000  0.50000  0.55580  Biso   1.000  H
  C255     1.0000 0.16010  0.50000  0.65550  Biso   1.000  C
  H254     1.0000 0.19050  0.50000  0.69190  Biso   1.000  H
  C256     1.0000 0.11140  0.50000  0.69240  Biso   1.000  C
  C257     1.0000 0.07400  0.50000  0.64510  Biso   1.000  C
  H255     1.0000 0.04390  0.50000  0.66430  Biso   1.000  H
  C258     1.0000 0.07460  0.50000  0.54540  Biso   1.000  C
  H256     1.0000 0.04430  0.50000  0.50880  Biso   1.000  H
  C259     1.0000 0.08490  0.50000  0.81720  Biso   1.000  C
  H257     1.0000 0.05270  0.50000  0.78640  Biso   1.000  H
  C260     1.0000 0.11440  0.50000  0.78340  Biso   1.000  C
  H258     1.0000 0.14630  0.50000  0.81510  Biso   1.000  H
  N1       1.0000 0.11210  0.50000  0.51690  Biso   1.000  N
  N2       1.0000 0.08990  0.50000  0.08600  Biso   1.000  N
  Zn1      1.0000 0.11386  0.50000  0.39395  Biso   1.000  Zn
  Zn2      1.0000 0.09458  0.50000  0.20999  Biso   1.000  Zn
  C261     1.0000 0.63130  0.00000  0.05610  Biso   1.000  C
  H259     1.0000 0.66170  0.00000  0.09230  Biso   1.000  H
  C262     1.0000 0.62970  0.00000  0.94850  Biso   1.000  C
  H260     1.0000 0.65830  0.00000  0.92480  Biso   1.000  H
  C263     1.0000 0.58980  0.00000  0.90880  Biso   1.000  C
  C264     1.0000 0.54920  0.00000  0.94670  Biso   1.000  C
  H261     1.0000 0.51860  0.00000  0.91110  Biso   1.000  H
  C265     1.0000 0.54720  0.00000  0.03030  Biso   1.000  C
  H262     1.0000 0.51670  0.00000  0.04830  Biso   1.000  H
  C266     1.0000 0.66010  0.00000  0.57580  Biso   1.000  C
  H263     1.0000 0.69000  0.00000  0.55580  Biso   1.000  H
  C267     1.0000 0.66010  0.00000  0.65550  Biso   1.000  C
  H264     1.0000 0.69050  0.00000  0.69190  Biso   1.000  H
  C268     1.0000 0.61140  0.00000  0.69240  Biso   1.000  C
  C269     1.0000 0.57400  0.00000  0.64510  Biso   1.000  C
  H265     1.0000 0.54390  0.00000  0.66430  Biso   1.000  H
  C270     1.0000 0.57460  0.00000  0.54540  Biso   1.000  C
  H266     1.0000 0.54430  0.00000  0.50880  Biso   1.000  H
  C271     1.0000 0.58490  0.00000  0.81720  Biso   1.000  C
  H267     1.0000 0.55270  0.00000  0.78640  Biso   1.000  H
  C272     1.0000 0.61440  0.00000  0.78340  Biso   1.000  C
  H268     1.0000 0.64630  0.00000  0.81510  Biso   1.000  H
  N3       1.0000 0.61210  0.00000  0.51690  Biso   1.000  N
  N4       1.0000 0.58990  0.00000  0.08600  Biso   1.000  N
  Zn3      1.0000 0.61386  0.00000  0.39395  Biso   1.000  Zn
  Zn4      1.0000 0.59458  0.00000  0.20999  Biso   1.000  Zn
  C273     1.0000 0.86870  0.50000  0.94390  Biso   1.000  C
  H269     1.0000 0.83830  0.50000  0.90770  Biso   1.000  H
  C274     1.0000 0.87030  0.50000  0.05150  Biso   1.000  C
  H270     1.0000 0.84170  0.50000  0.07520  Biso   1.000  H
  C275     1.0000 0.91020  0.50000  0.09120  Biso   1.000  C
  C276     1.0000 0.95080  0.50000  0.05330  Biso   1.000  C
  H271     1.0000 0.98140  0.50000  0.08890  Biso   1.000  H
  C277     1.0000 0.95280  0.50000  0.96970  Biso   1.000  C
  H272     1.0000 0.98330  0.50000  0.95170  Biso   1.000  H
  C278     1.0000 0.83990  0.50000  0.42420  Biso   1.000  C
  H273     1.0000 0.81000  0.50000  0.44420  Biso   1.000  H
  C279     1.0000 0.83990  0.50000  0.34450  Biso   1.000  C
  H274     1.0000 0.80950  0.50000  0.30810  Biso   1.000  H
  C280     1.0000 0.88860  0.50000  0.30760  Biso   1.000  C
  C281     1.0000 0.92600  0.50000  0.35490  Biso   1.000  C
  H275     1.0000 0.95610  0.50000  0.33570  Biso   1.000  H
  C282     1.0000 0.92540  0.50000  0.45460  Biso   1.000  C
  H276     1.0000 0.95570  0.50000  0.49120  Biso   1.000  H
  C283     1.0000 0.91510  0.50000  0.18280  Biso   1.000  C
  H277     1.0000 0.94730  0.50000  0.21360  Biso   1.000  H
  C284     1.0000 0.88560  0.50000  0.21660  Biso   1.000  C
  H278     1.0000 0.85370  0.50000  0.18490  Biso   1.000  H
  N5       1.0000 0.88790  0.50000  0.48310  Biso   1.000  N
  N6       1.0000 0.91010  0.50000  0.91400  Biso   1.000  N
  Zn5      1.0000 0.88614  0.50000  0.60605  Biso   1.000  Zn
  Zn6      1.0000 0.90542  0.50000  0.79001  Biso   1.000  Zn
  C285     1.0000 0.36870  0.00000  0.94390  Biso   1.000  C
  H279     1.0000 0.33830  0.00000  0.90770  Biso   1.000  H
  C286     1.0000 0.37030  0.00000  0.05150  Biso   1.000  C
  H280     1.0000 0.34170  0.00000  0.07520  Biso   1.000  H
  C287     1.0000 0.41020  0.00000  0.09120  Biso   1.000  C
  C288     1.0000 0.45080  0.00000  0.05330  Biso   1.000  C
  H281     1.0000 0.48140  0.00000  0.08890  Biso   1.000  H
  C289     1.0000 0.45280  0.00000  0.96970  Biso   1.000  C
  H282     1.0000 0.48330  0.00000  0.95170  Biso   1.000  H
  C290     1.0000 0.33990  0.00000  0.42420  Biso   1.000  C
  H283     1.0000 0.31000  0.00000  0.44420  Biso   1.000  H
  C291     1.0000 0.33990  0.00000  0.34450  Biso   1.000  C
  H284     1.0000 0.30950  0.00000  0.30810  Biso   1.000  H
  C292     1.0000 0.38860  0.00000  0.30760  Biso   1.000  C
  C293     1.0000 0.42600  0.00000  0.35490  Biso   1.000  C
  H285     1.0000 0.45610  0.00000  0.33570  Biso   1.000  H
  C294     1.0000 0.42540  0.00000  0.45460  Biso   1.000  C
  H286     1.0000 0.45570  0.00000  0.49120  Biso   1.000  H
  C295     1.0000 0.41510  0.00000  0.18280  Biso   1.000  C
  H287     1.0000 0.44730  0.00000  0.21360  Biso   1.000  H
  C296     1.0000 0.38560  0.00000  0.21660  Biso   1.000  C
  H288     1.0000 0.35370  0.00000  0.18490  Biso   1.000  H
  N7       1.0000 0.38790  0.00000  0.48310  Biso   1.000  N
  N8       1.0000 0.41010  0.00000  0.91400  Biso   1.000  N
  Zn7      1.0000 0.38614  0.00000  0.60605  Biso   1.000  Zn
  Zn8      1.0000 0.40542  0.00000  0.79001  Biso   1.000  Zn
