data_image0
_cell_length_a       36.4551
_cell_length_b       18.1156
_cell_length_c       14.1588
_cell_angle_alpha    90
_cell_angle_beta     93.8165
_cell_angle_gamma    90

_symmetry_space_group_name_H-M    "P 1"
_symmetry_int_tables_number       1

loop_
  _symmetry_equiv_pos_as_xyz
  'x, y, z'

loop_
  _atom_site_label
  _atom_site_occupancy
  _atom_site_fract_x
  _atom_site_fract_y
  _atom_site_fract_z
  _atom_site_thermal_displace_type
  _atom_site_B_iso_or_equiv
  _atom_site_type_symbol
  Zn1      1.0000 0.20871  0.89220  0.06614  Biso   1.000  Zn
  Zn2      1.0000 0.31649  0.34436  0.19901  Biso   1.000  Zn
  Zn3      1.0000 0.31873  0.67670  0.23120  Biso   1.000  Zn
  O1       1.0000 0.24320  0.89613  0.96860  Biso   1.000  O
  F1       1.0000 0.50938  0.09370  0.86700  Biso   1.000  F
  N1       1.0000 0.31415  0.56897  0.25870  Biso   1.000  N
  C1       1.0000 0.29964  0.53970  0.33480  Biso   1.000  C
  H1       1.0000 0.29110  0.56760  0.38380  Biso   1.000  H
  N2       1.0000 0.31415  0.44752  0.25000  Biso   1.000  N
  N3       1.0000 0.29886  0.46744  0.33300  Biso   1.000  N
  F2       1.0000 0.55042  0.07570  0.02810  Biso   1.000  F
  C2       1.0000 0.32297  0.50910  0.20850  Biso   1.000  C
  H2       1.0000 0.33400  0.51110  0.15120  Biso   1.000  H
  C3       1.0000 0.31548  0.89720  0.56890  Biso   1.000  C
  H3       1.0000 0.29580  0.91510  0.60080  Biso   1.000  H
  C4       1.0000 0.31022  0.83800  0.50810  Biso   1.000  C
  H4       1.0000 0.28750  0.81460  0.50170  Biso   1.000  H
  C5       1.0000 0.42830  0.22810  0.15660  Biso   1.000  C
  H5       1.0000 0.41590  0.20940  0.20660  Biso   1.000  H
  C6       1.0000 0.64517  0.32970  0.97080  Biso   1.000  C
  C7       1.0000 0.35011  0.93070  0.58330  Biso   1.000  C
  C8       1.0000 0.59229  0.25750  0.89700  Biso   1.000  C
  H6       1.0000 0.60400  0.25700  0.84050  Biso   1.000  H
  C9       1.0000 0.47736  0.21770  0.05120  Biso   1.000  C
  C10      1.0000 0.60779  0.29570  0.97300  Biso   1.000  C
  C11      1.0000 0.37818  0.90600  0.52920  Biso   1.000  C
  H7       1.0000 0.40110  0.92860  0.53620  Biso   1.000  H
  C12      1.0000 0.33891  0.81280  0.45620  Biso   1.000  C
  C13      1.0000 0.38189  0.32920  0.14130  Biso   1.000  C
  O2       1.0000 0.37206  0.39020  0.10800  Biso   1.000  O
  C14      1.0000 0.54118  0.22180  0.98630  Biso   1.000  C
  C15      1.0000 0.45812  0.18980  0.12500  Biso   1.000  C
  H8       1.0000 0.46530  0.14520  0.15340  Biso   1.000  H
  C16      1.0000 0.50727  0.17360  0.00310  Biso   1.000  C
  C17      1.0000 0.37245  0.84830  0.46480  Biso   1.000  C
  H9       1.0000 0.39120  0.83370  0.42750  Biso   1.000  H
  C18      1.0000 0.58943  0.29880  0.05710  Biso   1.000  C
  H10      1.0000 0.59970  0.32470  0.10910  Biso   1.000  H
  C19      1.0000 0.41678  0.29360  0.11490  Biso   1.000  C
  C20      1.0000 0.46668  0.28600  0.01280  Biso   1.000  C
  H11      1.0000 0.48010  0.30690  0.96580  Biso   1.000  H
  C21      1.0000 0.43655  0.32290  0.04370  Biso   1.000  C
  H12      1.0000 0.42950  0.36780  0.01660  Biso   1.000  H
  C22      1.0000 0.55938  0.21950  0.90320  Biso   1.000  C
  H13      1.0000 0.54950  0.19250  0.85150  Biso   1.000  H
  O3       1.0000 0.36189  0.29197  0.19440  Biso   1.000  O
  N4       1.0000 0.27800  0.28921  0.26850  Biso   1.000  N
  O4       1.0000 0.65768  0.36210  0.04420  Biso   1.000  O
  O5       1.0000 0.66302  0.32298  0.90030  Biso   1.000  O
  N5       1.0000 0.22640  0.22915  0.29340  Biso   1.000  N
  F3       1.0000 0.40265  0.92877  0.73970  Biso   1.000  F
  F4       1.0000 0.31564  0.07555  0.56332  Biso   1.000  F
  F5       1.0000 0.49631  0.05488  0.07220  Biso   1.000  F
  F6       1.0000 0.42063  0.01525  0.65110  Biso   1.000  F
  C23      1.0000 0.32315  0.92200  0.77610  Biso   1.000  C
  H14      1.0000 0.33750  0.88220  0.75980  Biso   1.000  H
  O6       1.0000 0.30900  0.70085  0.40814  Biso   1.000  O
  C24      1.0000 0.27628  0.97200  0.86910  Biso   1.000  C
  C25      1.0000 0.29796  0.91280  0.84330  Biso   1.000  C
  H15      1.0000 0.29540  0.86700  0.87170  Biso   1.000  H
  C26      1.0000 0.52128  0.10790  0.06360  Biso   1.000  C
  F7       1.0000 0.37089  0.06831  0.52250  Biso   1.000  F
  F8       1.0000 0.53219  0.12888  0.15160  Biso   1.000  F
  O7       1.0000 0.23177  0.01546  0.97200  Biso   1.000  O
  C27      1.0000 0.25264  0.24300  0.23320  Biso   1.000  C
  H16      1.0000 0.25290  0.22230  0.17310  Biso   1.000  H
  C28      1.0000 0.35539  0.99500  0.65480  Biso   1.000  C
  N6       1.0000 0.26752  0.30841  0.35750  Biso   1.000  N
  C29      1.0000 0.39422  0.99510  0.70660  Biso   1.000  C
  C30      1.0000 0.30681  0.04920  0.76050  Biso   1.000  C
  H17      1.0000 0.31010  0.09550  0.73390  Biso   1.000  H
  C31      1.0000 0.33211  0.74940  0.38940  Biso   1.000  C
  C32      1.0000 0.55626  0.26300  0.06220  Biso   1.000  C
  H18      1.0000 0.54380  0.26650  0.11720  Biso   1.000  H
  C33      1.0000 0.35036  0.06720  0.59600  Biso   1.000  C
  C34      1.0000 0.24859  0.96210  0.94030  Biso   1.000  C
  C35      1.0000 0.32747  0.99010  0.73210  Biso   1.000  C
  F9       1.0000 0.48058  0.19666  0.84734  Biso   1.000  F
  F10      1.0000 0.35925  0.12750  0.64820  Biso   1.000  F
  F11      1.0000 0.45695  0.10866  0.92440  Biso   1.000  F
  F12      1.0000 0.39580  0.04140  0.77960  Biso   1.000  F
  C36      1.0000 0.28143  0.04030  0.82780  Biso   1.000  C
  H19      1.0000 0.26760  0.08060  0.84550  Biso   1.000  H
  C37      1.0000 0.23674  0.27110  0.36870  Biso   1.000  C
  H20      1.0000 0.22370  0.27370  0.42300  Biso   1.000  H
  O8       1.0000 0.34874  0.74795  0.31420  Biso   1.000  O
  C38      1.0000 0.48874  0.14280  0.90990  Biso   1.000  C
  Zn4      1.0000 0.32721  0.67250  0.23120  Biso   1.000  Zn
  Zn5      1.0000 0.70871  0.39220  0.06614  Biso   1.000  Zn
  Zn6      1.0000 0.81649  0.84436  0.19901  Biso   1.000  Zn
  Zn7      1.0000 0.81873  0.17670  0.23120  Biso   1.000  Zn
  O9       1.0000 0.74320  0.39613  0.96860  Biso   1.000  O
  F13      1.0000 0.00938  0.59370  0.86700  Biso   1.000  F
  N7       1.0000 0.81415  0.06897  0.25870  Biso   1.000  N
  C39      1.0000 0.79964  0.03970  0.33480  Biso   1.000  C
  H21      1.0000 0.79110  0.06760  0.38380  Biso   1.000  H
  N8       1.0000 0.81415  0.94752  0.25000  Biso   1.000  N
  N9       1.0000 0.79886  0.96744  0.33300  Biso   1.000  N
  F14      1.0000 0.05042  0.57570  0.02810  Biso   1.000  F
  C40      1.0000 0.82297  0.00910  0.20850  Biso   1.000  C
  H22      1.0000 0.83400  0.01110  0.15120  Biso   1.000  H
  C41      1.0000 0.81548  0.39720  0.56890  Biso   1.000  C
  H23      1.0000 0.79580  0.41510  0.60080  Biso   1.000  H
  C42      1.0000 0.81022  0.33800  0.50810  Biso   1.000  C
  H24      1.0000 0.78750  0.31460  0.50170  Biso   1.000  H
  C43      1.0000 0.92830  0.72810  0.15660  Biso   1.000  C
  H25      1.0000 0.91590  0.70940  0.20660  Biso   1.000  H
  C44      1.0000 0.14517  0.82970  0.97080  Biso   1.000  C
  C45      1.0000 0.85011  0.43070  0.58330  Biso   1.000  C
  C46      1.0000 0.09229  0.75750  0.89700  Biso   1.000  C
  H26      1.0000 0.10400  0.75700  0.84050  Biso   1.000  H
  C47      1.0000 0.97736  0.71770  0.05120  Biso   1.000  C
  C48      1.0000 0.10779  0.79570  0.97300  Biso   1.000  C
  C49      1.0000 0.87818  0.40600  0.52920  Biso   1.000  C
  H27      1.0000 0.90110  0.42860  0.53620  Biso   1.000  H
  C50      1.0000 0.83891  0.31280  0.45620  Biso   1.000  C
  C51      1.0000 0.88189  0.82920  0.14130  Biso   1.000  C
  O10      1.0000 0.87206  0.89020  0.10800  Biso   1.000  O
  C52      1.0000 0.04118  0.72180  0.98630  Biso   1.000  C
  C53      1.0000 0.95812  0.68980  0.12500  Biso   1.000  C
  H28      1.0000 0.96530  0.64520  0.15340  Biso   1.000  H
  C54      1.0000 0.00727  0.67360  0.00310  Biso   1.000  C
  C55      1.0000 0.87245  0.34830  0.46480  Biso   1.000  C
  H29      1.0000 0.89120  0.33370  0.42750  Biso   1.000  H
  C56      1.0000 0.08943  0.79880  0.05710  Biso   1.000  C
  H30      1.0000 0.09970  0.82470  0.10910  Biso   1.000  H
  C57      1.0000 0.91678  0.79360  0.11490  Biso   1.000  C
  C58      1.0000 0.96668  0.78600  0.01280  Biso   1.000  C
  H31      1.0000 0.98010  0.80690  0.96580  Biso   1.000  H
  C59      1.0000 0.93655  0.82290  0.04370  Biso   1.000  C
  H32      1.0000 0.92950  0.86780  0.01660  Biso   1.000  H
  C60      1.0000 0.05938  0.71950  0.90320  Biso   1.000  C
  H33      1.0000 0.04950  0.69250  0.85150  Biso   1.000  H
  O11      1.0000 0.86189  0.79197  0.19440  Biso   1.000  O
  N10      1.0000 0.77800  0.78921  0.26850  Biso   1.000  N
  O12      1.0000 0.15768  0.86210  0.04420  Biso   1.000  O
  O13      1.0000 0.16302  0.82298  0.90030  Biso   1.000  O
  N11      1.0000 0.72640  0.72915  0.29340  Biso   1.000  N
  F15      1.0000 0.90265  0.42877  0.73970  Biso   1.000  F
  F16      1.0000 0.81564  0.57555  0.56332  Biso   1.000  F
  F17      1.0000 0.99631  0.55488  0.07220  Biso   1.000  F
  F18      1.0000 0.92063  0.51525  0.65110  Biso   1.000  F
  C61      1.0000 0.82315  0.42200  0.77610  Biso   1.000  C
  H34      1.0000 0.83750  0.38220  0.75980  Biso   1.000  H
  O14      1.0000 0.80900  0.20085  0.40814  Biso   1.000  O
  C62      1.0000 0.77628  0.47200  0.86910  Biso   1.000  C
  C63      1.0000 0.79796  0.41280  0.84330  Biso   1.000  C
  H35      1.0000 0.79540  0.36700  0.87170  Biso   1.000  H
  C64      1.0000 0.02128  0.60790  0.06360  Biso   1.000  C
  F19      1.0000 0.87089  0.56831  0.52250  Biso   1.000  F
  F20      1.0000 0.03219  0.62888  0.15160  Biso   1.000  F
  O15      1.0000 0.73177  0.51546  0.97200  Biso   1.000  O
  C65      1.0000 0.75264  0.74300  0.23320  Biso   1.000  C
  H36      1.0000 0.75290  0.72230  0.17310  Biso   1.000  H
  C66      1.0000 0.85539  0.49500  0.65480  Biso   1.000  C
  N12      1.0000 0.76752  0.80841  0.35750  Biso   1.000  N
  C67      1.0000 0.89422  0.49510  0.70660  Biso   1.000  C
  C68      1.0000 0.80681  0.54920  0.76050  Biso   1.000  C
  H37      1.0000 0.81010  0.59550  0.73390  Biso   1.000  H
  C69      1.0000 0.83211  0.24940  0.38940  Biso   1.000  C
  C70      1.0000 0.05626  0.76300  0.06220  Biso   1.000  C
  H38      1.0000 0.04380  0.76650  0.11720  Biso   1.000  H
  C71      1.0000 0.85036  0.56720  0.59600  Biso   1.000  C
  C72      1.0000 0.74859  0.46210  0.94030  Biso   1.000  C
  C73      1.0000 0.82747  0.49010  0.73210  Biso   1.000  C
  F21      1.0000 0.98058  0.69666  0.84734  Biso   1.000  F
  F22      1.0000 0.85925  0.62750  0.64820  Biso   1.000  F
  F23      1.0000 0.95695  0.60866  0.92440  Biso   1.000  F
  F24      1.0000 0.89580  0.54140  0.77960  Biso   1.000  F
  C74      1.0000 0.78143  0.54030  0.82780  Biso   1.000  C
  H39      1.0000 0.76760  0.58060  0.84550  Biso   1.000  H
  C75      1.0000 0.73674  0.77110  0.36870  Biso   1.000  C
  H40      1.0000 0.72370  0.77370  0.42300  Biso   1.000  H
  O16      1.0000 0.84874  0.24795  0.31420  Biso   1.000  O
  C76      1.0000 0.98874  0.64280  0.90990  Biso   1.000  C
  Zn8      1.0000 0.82721  0.17250  0.23120  Biso   1.000  Zn
  Zn9      1.0000 0.79129  0.89220  0.43386  Biso   1.000  Zn
  Zn10     1.0000 0.68351  0.34436  0.30099  Biso   1.000  Zn
  Zn11     1.0000 0.68127  0.67670  0.26880  Biso   1.000  Zn
  O17      1.0000 0.75680  0.89613  0.53140  Biso   1.000  O
  F25      1.0000 0.49062  0.09370  0.63300  Biso   1.000  F
  N13      1.0000 0.68585  0.56897  0.24130  Biso   1.000  N
  C77      1.0000 0.70036  0.53970  0.16520  Biso   1.000  C
  H41      1.0000 0.70890  0.56760  0.11620  Biso   1.000  H
  N14      1.0000 0.68585  0.44752  0.25000  Biso   1.000  N
  N15      1.0000 0.70114  0.46744  0.16700  Biso   1.000  N
  F26      1.0000 0.44958  0.07570  0.47190  Biso   1.000  F
  C78      1.0000 0.67703  0.50910  0.29150  Biso   1.000  C
  H42      1.0000 0.66600  0.51110  0.34880  Biso   1.000  H
  C79      1.0000 0.68452  0.89720  0.93110  Biso   1.000  C
  H43      1.0000 0.70420  0.91510  0.89920  Biso   1.000  H
  C80      1.0000 0.68978  0.83800  0.99190  Biso   1.000  C
  H44      1.0000 0.71250  0.81460  0.99830  Biso   1.000  H
  C81      1.0000 0.57170  0.22810  0.34340  Biso   1.000  C
  H45      1.0000 0.58410  0.20940  0.29340  Biso   1.000  H
  C82      1.0000 0.35483  0.32970  0.52920  Biso   1.000  C
  C83      1.0000 0.64989  0.93070  0.91670  Biso   1.000  C
  C84      1.0000 0.40771  0.25750  0.60300  Biso   1.000  C
  H46      1.0000 0.39600  0.25700  0.65950  Biso   1.000  H
  C85      1.0000 0.52264  0.21770  0.44880  Biso   1.000  C
  C86      1.0000 0.39221  0.29570  0.52700  Biso   1.000  C
  C87      1.0000 0.62182  0.90600  0.97080  Biso   1.000  C
  H47      1.0000 0.59890  0.92860  0.96380  Biso   1.000  H
  C88      1.0000 0.66109  0.81280  0.04380  Biso   1.000  C
  C89      1.0000 0.61811  0.32920  0.35870  Biso   1.000  C
  O18      1.0000 0.62794  0.39020  0.39200  Biso   1.000  O
  C90      1.0000 0.45882  0.22180  0.51370  Biso   1.000  C
  C91      1.0000 0.54188  0.18980  0.37500  Biso   1.000  C
  H48      1.0000 0.53470  0.14520  0.34660  Biso   1.000  H
  C92      1.0000 0.49273  0.17360  0.49690  Biso   1.000  C
  C93      1.0000 0.62755  0.84830  0.03520  Biso   1.000  C
  H49      1.0000 0.60880  0.83370  0.07250  Biso   1.000  H
  C94      1.0000 0.41057  0.29880  0.44290  Biso   1.000  C
  H50      1.0000 0.40030  0.32470  0.39090  Biso   1.000  H
  C95      1.0000 0.58322  0.29360  0.38510  Biso   1.000  C
  C96      1.0000 0.53332  0.28600  0.48720  Biso   1.000  C
  H51      1.0000 0.51990  0.30690  0.53420  Biso   1.000  H
  C97      1.0000 0.56345  0.32290  0.45630  Biso   1.000  C
  H52      1.0000 0.57050  0.36780  0.48340  Biso   1.000  H
  C98      1.0000 0.44062  0.21950  0.59680  Biso   1.000  C
  H53      1.0000 0.45050  0.19250  0.64850  Biso   1.000  H
  O19      1.0000 0.63811  0.29197  0.30560  Biso   1.000  O
  N16      1.0000 0.72200  0.28921  0.23150  Biso   1.000  N
  O20      1.0000 0.34232  0.36210  0.45580  Biso   1.000  O
  O21      1.0000 0.33698  0.32298  0.59970  Biso   1.000  O
  N17      1.0000 0.77360  0.22915  0.20660  Biso   1.000  N
  F27      1.0000 0.59735  0.92877  0.76030  Biso   1.000  F
  F28      1.0000 0.68436  0.07555  0.93668  Biso   1.000  F
  F29      1.0000 0.50369  0.05488  0.42780  Biso   1.000  F
  F30      1.0000 0.57937  0.01525  0.84890  Biso   1.000  F
  C99      1.0000 0.67685  0.92200  0.72390  Biso   1.000  C
  H54      1.0000 0.66250  0.88220  0.74020  Biso   1.000  H
  O22      1.0000 0.69100  0.70085  0.09186  Biso   1.000  O
  C100     1.0000 0.72372  0.97200  0.63090  Biso   1.000  C
  C101     1.0000 0.70204  0.91280  0.65670  Biso   1.000  C
  H55      1.0000 0.70460  0.86700  0.62830  Biso   1.000  H
  C102     1.0000 0.47872  0.10790  0.43640  Biso   1.000  C
  F31      1.0000 0.62911  0.06831  0.97750  Biso   1.000  F
  F32      1.0000 0.46781  0.12888  0.34840  Biso   1.000  F
  O23      1.0000 0.76823  0.01546  0.52800  Biso   1.000  O
  C103     1.0000 0.74736  0.24300  0.26680  Biso   1.000  C
  H56      1.0000 0.74710  0.22230  0.32690  Biso   1.000  H
  C104     1.0000 0.64461  0.99500  0.84520  Biso   1.000  C
  N18      1.0000 0.73248  0.30841  0.14250  Biso   1.000  N
  C105     1.0000 0.60578  0.99510  0.79340  Biso   1.000  C
  C106     1.0000 0.69319  0.04920  0.73950  Biso   1.000  C
  H57      1.0000 0.68990  0.09550  0.76610  Biso   1.000  H
  C107     1.0000 0.66789  0.74940  0.11060  Biso   1.000  C
  C108     1.0000 0.44374  0.26300  0.43780  Biso   1.000  C
  H58      1.0000 0.45620  0.26650  0.38280  Biso   1.000  H
  C109     1.0000 0.64964  0.06720  0.90400  Biso   1.000  C
  C110     1.0000 0.75141  0.96210  0.55970  Biso   1.000  C
  C111     1.0000 0.67253  0.99010  0.76790  Biso   1.000  C
  F33      1.0000 0.51942  0.19666  0.65266  Biso   1.000  F
  F34      1.0000 0.64075  0.12750  0.85180  Biso   1.000  F
  F35      1.0000 0.54305  0.10866  0.57560  Biso   1.000  F
  F36      1.0000 0.60420  0.04140  0.72040  Biso   1.000  F
  C112     1.0000 0.71857  0.04030  0.67220  Biso   1.000  C
  H59      1.0000 0.73240  0.08060  0.65450  Biso   1.000  H
  C113     1.0000 0.76326  0.27110  0.13130  Biso   1.000  C
  H60      1.0000 0.77630  0.27370  0.07700  Biso   1.000  H
  O24      1.0000 0.65126  0.74795  0.18580  Biso   1.000  O
  C114     1.0000 0.51126  0.14280  0.59010  Biso   1.000  C
  Zn12     1.0000 0.67279  0.67250  0.26880  Biso   1.000  Zn
  Zn13     1.0000 0.29129  0.39220  0.43386  Biso   1.000  Zn
  Zn14     1.0000 0.18351  0.84436  0.30099  Biso   1.000  Zn
  Zn15     1.0000 0.18127  0.17670  0.26880  Biso   1.000  Zn
  O25      1.0000 0.25680  0.39613  0.53140  Biso   1.000  O
  F37      1.0000 0.99062  0.59370  0.63300  Biso   1.000  F
  N19      1.0000 0.18585  0.06897  0.24130  Biso   1.000  N
  C115     1.0000 0.20036  0.03970  0.16520  Biso   1.000  C
  H61      1.0000 0.20890  0.06760  0.11620  Biso   1.000  H
  N20      1.0000 0.18585  0.94752  0.25000  Biso   1.000  N
  N21      1.0000 0.20114  0.96744  0.16700  Biso   1.000  N
  F38      1.0000 0.94958  0.57570  0.47190  Biso   1.000  F
  C116     1.0000 0.17703  0.00910  0.29150  Biso   1.000  C
  H62      1.0000 0.16600  0.01110  0.34880  Biso   1.000  H
  C117     1.0000 0.18452  0.39720  0.93110  Biso   1.000  C
  H63      1.0000 0.20420  0.41510  0.89920  Biso   1.000  H
  C118     1.0000 0.18978  0.33800  0.99190  Biso   1.000  C
  H64      1.0000 0.21250  0.31460  0.99830  Biso   1.000  H
  C119     1.0000 0.07170  0.72810  0.34340  Biso   1.000  C
  H65      1.0000 0.08410  0.70940  0.29340  Biso   1.000  H
  C120     1.0000 0.85483  0.82970  0.52920  Biso   1.000  C
  C121     1.0000 0.14989  0.43070  0.91670  Biso   1.000  C
  C122     1.0000 0.90771  0.75750  0.60300  Biso   1.000  C
  H66      1.0000 0.89600  0.75700  0.65950  Biso   1.000  H
  C123     1.0000 0.02264  0.71770  0.44880  Biso   1.000  C
  C124     1.0000 0.89221  0.79570  0.52700  Biso   1.000  C
  C125     1.0000 0.12182  0.40600  0.97080  Biso   1.000  C
  H67      1.0000 0.09890  0.42860  0.96380  Biso   1.000  H
  C126     1.0000 0.16109  0.31280  0.04380  Biso   1.000  C
  C127     1.0000 0.11811  0.82920  0.35870  Biso   1.000  C
  O26      1.0000 0.12794  0.89020  0.39200  Biso   1.000  O
  C128     1.0000 0.95882  0.72180  0.51370  Biso   1.000  C
  C129     1.0000 0.04188  0.68980  0.37500  Biso   1.000  C
  H68      1.0000 0.03470  0.64520  0.34660  Biso   1.000  H
  C130     1.0000 0.99273  0.67360  0.49690  Biso   1.000  C
  C131     1.0000 0.12755  0.34830  0.03520  Biso   1.000  C
  H69      1.0000 0.10880  0.33370  0.07250  Biso   1.000  H
  C132     1.0000 0.91057  0.79880  0.44290  Biso   1.000  C
  H70      1.0000 0.90030  0.82470  0.39090  Biso   1.000  H
  C133     1.0000 0.08322  0.79360  0.38510  Biso   1.000  C
  C134     1.0000 0.03332  0.78600  0.48720  Biso   1.000  C
  H71      1.0000 0.01990  0.80690  0.53420  Biso   1.000  H
  C135     1.0000 0.06345  0.82290  0.45630  Biso   1.000  C
  H72      1.0000 0.07050  0.86780  0.48340  Biso   1.000  H
  C136     1.0000 0.94062  0.71950  0.59680  Biso   1.000  C
  H73      1.0000 0.95050  0.69250  0.64850  Biso   1.000  H
  O27      1.0000 0.13811  0.79197  0.30560  Biso   1.000  O
  N22      1.0000 0.22200  0.78921  0.23150  Biso   1.000  N
  O28      1.0000 0.84232  0.86210  0.45580  Biso   1.000  O
  O29      1.0000 0.83698  0.82298  0.59970  Biso   1.000  O
  N23      1.0000 0.27360  0.72915  0.20660  Biso   1.000  N
  F39      1.0000 0.09735  0.42877  0.76030  Biso   1.000  F
  F40      1.0000 0.18436  0.57555  0.93668  Biso   1.000  F
  F41      1.0000 0.00369  0.55488  0.42780  Biso   1.000  F
  F42      1.0000 0.07937  0.51525  0.84890  Biso   1.000  F
  C137     1.0000 0.17685  0.42200  0.72390  Biso   1.000  C
  H74      1.0000 0.16250  0.38220  0.74020  Biso   1.000  H
  O30      1.0000 0.19100  0.20085  0.09186  Biso   1.000  O
  C138     1.0000 0.22372  0.47200  0.63090  Biso   1.000  C
  C139     1.0000 0.20204  0.41280  0.65670  Biso   1.000  C
  H75      1.0000 0.20460  0.36700  0.62830  Biso   1.000  H
  C140     1.0000 0.97872  0.60790  0.43640  Biso   1.000  C
  F43      1.0000 0.12911  0.56831  0.97750  Biso   1.000  F
  F44      1.0000 0.96781  0.62888  0.34840  Biso   1.000  F
  O31      1.0000 0.26823  0.51546  0.52800  Biso   1.000  O
  C141     1.0000 0.24736  0.74300  0.26680  Biso   1.000  C
  H76      1.0000 0.24710  0.72230  0.32690  Biso   1.000  H
  C142     1.0000 0.14461  0.49500  0.84520  Biso   1.000  C
  N24      1.0000 0.23248  0.80841  0.14250  Biso   1.000  N
  C143     1.0000 0.10578  0.49510  0.79340  Biso   1.000  C
  C144     1.0000 0.19319  0.54920  0.73950  Biso   1.000  C
  H77      1.0000 0.18990  0.59550  0.76610  Biso   1.000  H
  C145     1.0000 0.16789  0.24940  0.11060  Biso   1.000  C
  C146     1.0000 0.94374  0.76300  0.43780  Biso   1.000  C
  H78      1.0000 0.95620  0.76650  0.38280  Biso   1.000  H
  C147     1.0000 0.14964  0.56720  0.90400  Biso   1.000  C
  C148     1.0000 0.25141  0.46210  0.55970  Biso   1.000  C
  C149     1.0000 0.17253  0.49010  0.76790  Biso   1.000  C
  F45      1.0000 0.01942  0.69666  0.65266  Biso   1.000  F
  F46      1.0000 0.14075  0.62750  0.85180  Biso   1.000  F
  F47      1.0000 0.04305  0.60866  0.57560  Biso   1.000  F
  F48      1.0000 0.10420  0.54140  0.72040  Biso   1.000  F
  C150     1.0000 0.21857  0.54030  0.67220  Biso   1.000  C
  H79      1.0000 0.23240  0.58060  0.65450  Biso   1.000  H
  C151     1.0000 0.26326  0.77110  0.13130  Biso   1.000  C
  H80      1.0000 0.27630  0.77370  0.07700  Biso   1.000  H
  O32      1.0000 0.15126  0.24795  0.18580  Biso   1.000  O
  C152     1.0000 0.01126  0.64280  0.59010  Biso   1.000  C
  Zn16     1.0000 0.17279  0.17250  0.26880  Biso   1.000  Zn
  Zn17     1.0000 0.79129  0.10780  0.93386  Biso   1.000  Zn
  Zn18     1.0000 0.68351  0.65564  0.80099  Biso   1.000  Zn
  Zn19     1.0000 0.68127  0.32330  0.76880  Biso   1.000  Zn
  O33      1.0000 0.75680  0.10387  0.03140  Biso   1.000  O
  F49      1.0000 0.49062  0.90630  0.13300  Biso   1.000  F
  N25      1.0000 0.68585  0.43103  0.74130  Biso   1.000  N
  C153     1.0000 0.70036  0.46030  0.66520  Biso   1.000  C
  H81      1.0000 0.70890  0.43240  0.61620  Biso   1.000  H
  N26      1.0000 0.68585  0.55248  0.75000  Biso   1.000  N
  N27      1.0000 0.70114  0.53256  0.66700  Biso   1.000  N
  F50      1.0000 0.44958  0.92430  0.97190  Biso   1.000  F
  C154     1.0000 0.67703  0.49090  0.79150  Biso   1.000  C
  H82      1.0000 0.66600  0.48890  0.84880  Biso   1.000  H
  C155     1.0000 0.68452  0.10280  0.43110  Biso   1.000  C
  H83      1.0000 0.70420  0.08490  0.39920  Biso   1.000  H
  C156     1.0000 0.68978  0.16200  0.49190  Biso   1.000  C
  H84      1.0000 0.71250  0.18540  0.49830  Biso   1.000  H
  C157     1.0000 0.57170  0.77190  0.84340  Biso   1.000  C
  H85      1.0000 0.58410  0.79060  0.79340  Biso   1.000  H
  C158     1.0000 0.35483  0.67030  0.02920  Biso   1.000  C
  C159     1.0000 0.64989  0.06930  0.41670  Biso   1.000  C
  C160     1.0000 0.40771  0.74250  0.10300  Biso   1.000  C
  H86      1.0000 0.39600  0.74300  0.15950  Biso   1.000  H
  C161     1.0000 0.52264  0.78230  0.94880  Biso   1.000  C
  C162     1.0000 0.39221  0.70430  0.02700  Biso   1.000  C
  C163     1.0000 0.62182  0.09400  0.47080  Biso   1.000  C
  H87      1.0000 0.59890  0.07140  0.46380  Biso   1.000  H
  C164     1.0000 0.66109  0.18720  0.54380  Biso   1.000  C
  C165     1.0000 0.61811  0.67080  0.85870  Biso   1.000  C
  O34      1.0000 0.62794  0.60980  0.89200  Biso   1.000  O
  C166     1.0000 0.45882  0.77820  0.01370  Biso   1.000  C
  C167     1.0000 0.54188  0.81020  0.87500  Biso   1.000  C
  H88      1.0000 0.53470  0.85480  0.84660  Biso   1.000  H
  C168     1.0000 0.49273  0.82640  0.99690  Biso   1.000  C
  C169     1.0000 0.62755  0.15170  0.53520  Biso   1.000  C
  H89      1.0000 0.60880  0.16630  0.57250  Biso   1.000  H
  C170     1.0000 0.41057  0.70120  0.94290  Biso   1.000  C
  H90      1.0000 0.40030  0.67530  0.89090  Biso   1.000  H
  C171     1.0000 0.58322  0.70640  0.88510  Biso   1.000  C
  C172     1.0000 0.53332  0.71400  0.98720  Biso   1.000  C
  H91      1.0000 0.51990  0.69310  0.03420  Biso   1.000  H
  C173     1.0000 0.56345  0.67710  0.95630  Biso   1.000  C
  H92      1.0000 0.57050  0.63220  0.98340  Biso   1.000  H
  C174     1.0000 0.44062  0.78050  0.09680  Biso   1.000  C
  H93      1.0000 0.45050  0.80750  0.14850  Biso   1.000  H
  O35      1.0000 0.63811  0.70803  0.80560  Biso   1.000  O
  N28      1.0000 0.72200  0.71079  0.73150  Biso   1.000  N
  O36      1.0000 0.34232  0.63790  0.95580  Biso   1.000  O
  O37      1.0000 0.33698  0.67702  0.09970  Biso   1.000  O
  N29      1.0000 0.77360  0.77085  0.70660  Biso   1.000  N
  F51      1.0000 0.59735  0.07123  0.26030  Biso   1.000  F
  F52      1.0000 0.68436  0.92445  0.43668  Biso   1.000  F
  F53      1.0000 0.50369  0.94512  0.92780  Biso   1.000  F
  F54      1.0000 0.57937  0.98475  0.34890  Biso   1.000  F
  C175     1.0000 0.67685  0.07800  0.22390  Biso   1.000  C
  H94      1.0000 0.66250  0.11780  0.24020  Biso   1.000  H
  O38      1.0000 0.69100  0.29915  0.59186  Biso   1.000  O
  C176     1.0000 0.72372  0.02800  0.13090  Biso   1.000  C
  C177     1.0000 0.70204  0.08720  0.15670  Biso   1.000  C
  H95      1.0000 0.70460  0.13300  0.12830  Biso   1.000  H
  C178     1.0000 0.47872  0.89210  0.93640  Biso   1.000  C
  F55      1.0000 0.62911  0.93169  0.47750  Biso   1.000  F
  F56      1.0000 0.46781  0.87112  0.84840  Biso   1.000  F
  O39      1.0000 0.76823  0.98454  0.02800  Biso   1.000  O
  C179     1.0000 0.74736  0.75700  0.76680  Biso   1.000  C
  H96      1.0000 0.74710  0.77770  0.82690  Biso   1.000  H
  C180     1.0000 0.64461  0.00500  0.34520  Biso   1.000  C
  N30      1.0000 0.73248  0.69159  0.64250  Biso   1.000  N
  C181     1.0000 0.60578  0.00490  0.29340  Biso   1.000  C
  C182     1.0000 0.69319  0.95080  0.23950  Biso   1.000  C
  H97      1.0000 0.68990  0.90450  0.26610  Biso   1.000  H
  C183     1.0000 0.66789  0.25060  0.61060  Biso   1.000  C
  C184     1.0000 0.44374  0.73700  0.93780  Biso   1.000  C
  H98      1.0000 0.45620  0.73350  0.88280  Biso   1.000  H
  C185     1.0000 0.64964  0.93280  0.40400  Biso   1.000  C
  C186     1.0000 0.75141  0.03790  0.05970  Biso   1.000  C
  C187     1.0000 0.67253  0.00990  0.26790  Biso   1.000  C
  F57      1.0000 0.51942  0.80334  0.15266  Biso   1.000  F
  F58      1.0000 0.64075  0.87250  0.35180  Biso   1.000  F
  F59      1.0000 0.54305  0.89134  0.07560  Biso   1.000  F
  F60      1.0000 0.60420  0.95860  0.22040  Biso   1.000  F
  C188     1.0000 0.71857  0.95970  0.17220  Biso   1.000  C
  H99      1.0000 0.73240  0.91940  0.15450  Biso   1.000  H
  C189     1.0000 0.76326  0.72890  0.63130  Biso   1.000  C
  H100     1.0000 0.77630  0.72630  0.57700  Biso   1.000  H
  O40      1.0000 0.65126  0.25205  0.68580  Biso   1.000  O
  C190     1.0000 0.51126  0.85720  0.09010  Biso   1.000  C
  Zn20     1.0000 0.67279  0.32750  0.76880  Biso   1.000  Zn
  Zn21     1.0000 0.29129  0.60780  0.93386  Biso   1.000  Zn
  Zn22     1.0000 0.18351  0.15564  0.80099  Biso   1.000  Zn
  Zn23     1.0000 0.18127  0.82330  0.76880  Biso   1.000  Zn
  O41      1.0000 0.25680  0.60387  0.03140  Biso   1.000  O
  F61      1.0000 0.99062  0.40630  0.13300  Biso   1.000  F
  N31      1.0000 0.18585  0.93103  0.74130  Biso   1.000  N
  C191     1.0000 0.20036  0.96030  0.66520  Biso   1.000  C
  H101     1.0000 0.20890  0.93240  0.61620  Biso   1.000  H
  N32      1.0000 0.18585  0.05248  0.75000  Biso   1.000  N
  N33      1.0000 0.20114  0.03256  0.66700  Biso   1.000  N
  F62      1.0000 0.94958  0.42430  0.97190  Biso   1.000  F
  C192     1.0000 0.17703  0.99090  0.79150  Biso   1.000  C
  H102     1.0000 0.16600  0.98890  0.84880  Biso   1.000  H
  C193     1.0000 0.18452  0.60280  0.43110  Biso   1.000  C
  H103     1.0000 0.20420  0.58490  0.39920  Biso   1.000  H
  C194     1.0000 0.18978  0.66200  0.49190  Biso   1.000  C
  H104     1.0000 0.21250  0.68540  0.49830  Biso   1.000  H
  C195     1.0000 0.07170  0.27190  0.84340  Biso   1.000  C
  H105     1.0000 0.08410  0.29060  0.79340  Biso   1.000  H
  C196     1.0000 0.85483  0.17030  0.02920  Biso   1.000  C
  C197     1.0000 0.14989  0.56930  0.41670  Biso   1.000  C
  C198     1.0000 0.90771  0.24250  0.10300  Biso   1.000  C
  H106     1.0000 0.89600  0.24300  0.15950  Biso   1.000  H
  C199     1.0000 0.02264  0.28230  0.94880  Biso   1.000  C
  C200     1.0000 0.89221  0.20430  0.02700  Biso   1.000  C
  C201     1.0000 0.12182  0.59400  0.47080  Biso   1.000  C
  H107     1.0000 0.09890  0.57140  0.46380  Biso   1.000  H
  C202     1.0000 0.16109  0.68720  0.54380  Biso   1.000  C
  C203     1.0000 0.11811  0.17080  0.85870  Biso   1.000  C
  O42      1.0000 0.12794  0.10980  0.89200  Biso   1.000  O
  C204     1.0000 0.95882  0.27820  0.01370  Biso   1.000  C
  C205     1.0000 0.04188  0.31020  0.87500  Biso   1.000  C
  H108     1.0000 0.03470  0.35480  0.84660  Biso   1.000  H
  C206     1.0000 0.99273  0.32640  0.99690  Biso   1.000  C
  C207     1.0000 0.12755  0.65170  0.53520  Biso   1.000  C
  H109     1.0000 0.10880  0.66630  0.57250  Biso   1.000  H
  C208     1.0000 0.91057  0.20120  0.94290  Biso   1.000  C
  H110     1.0000 0.90030  0.17530  0.89090  Biso   1.000  H
  C209     1.0000 0.08322  0.20640  0.88510  Biso   1.000  C
  C210     1.0000 0.03332  0.21400  0.98720  Biso   1.000  C
  H111     1.0000 0.01990  0.19310  0.03420  Biso   1.000  H
  C211     1.0000 0.06345  0.17710  0.95630  Biso   1.000  C
  H112     1.0000 0.07050  0.13220  0.98340  Biso   1.000  H
  C212     1.0000 0.94062  0.28050  0.09680  Biso   1.000  C
  H113     1.0000 0.95050  0.30750  0.14850  Biso   1.000  H
  O43      1.0000 0.13811  0.20803  0.80560  Biso   1.000  O
  N34      1.0000 0.22200  0.21079  0.73150  Biso   1.000  N
  O44      1.0000 0.84232  0.13790  0.95580  Biso   1.000  O
  O45      1.0000 0.83698  0.17702  0.09970  Biso   1.000  O
  N35      1.0000 0.27360  0.27085  0.70660  Biso   1.000  N
  F63      1.0000 0.09735  0.57123  0.26030  Biso   1.000  F
  F64      1.0000 0.18436  0.42445  0.43668  Biso   1.000  F
  F65      1.0000 0.00369  0.44512  0.92780  Biso   1.000  F
  F66      1.0000 0.07937  0.48475  0.34890  Biso   1.000  F
  C213     1.0000 0.17685  0.57800  0.22390  Biso   1.000  C
  H114     1.0000 0.16250  0.61780  0.24020  Biso   1.000  H
  O46      1.0000 0.19100  0.79915  0.59186  Biso   1.000  O
  C214     1.0000 0.22372  0.52800  0.13090  Biso   1.000  C
  C215     1.0000 0.20204  0.58720  0.15670  Biso   1.000  C
  H115     1.0000 0.20460  0.63300  0.12830  Biso   1.000  H
  C216     1.0000 0.97872  0.39210  0.93640  Biso   1.000  C
  F67      1.0000 0.12911  0.43169  0.47750  Biso   1.000  F
  F68      1.0000 0.96781  0.37112  0.84840  Biso   1.000  F
  O47      1.0000 0.26823  0.48454  0.02800  Biso   1.000  O
  C217     1.0000 0.24736  0.25700  0.76680  Biso   1.000  C
  H116     1.0000 0.24710  0.27770  0.82690  Biso   1.000  H
  C218     1.0000 0.14461  0.50500  0.34520  Biso   1.000  C
  N36      1.0000 0.23248  0.19159  0.64250  Biso   1.000  N
  C219     1.0000 0.10578  0.50490  0.29340  Biso   1.000  C
  C220     1.0000 0.19319  0.45080  0.23950  Biso   1.000  C
  H117     1.0000 0.18990  0.40450  0.26610  Biso   1.000  H
  C221     1.0000 0.16789  0.75060  0.61060  Biso   1.000  C
  C222     1.0000 0.94374  0.23700  0.93780  Biso   1.000  C
  H118     1.0000 0.95620  0.23350  0.88280  Biso   1.000  H
  C223     1.0000 0.14964  0.43280  0.40400  Biso   1.000  C
  C224     1.0000 0.25141  0.53790  0.05970  Biso   1.000  C
  C225     1.0000 0.17253  0.50990  0.26790  Biso   1.000  C
  F69      1.0000 0.01942  0.30334  0.15266  Biso   1.000  F
  F70      1.0000 0.14075  0.37250  0.35180  Biso   1.000  F
  F71      1.0000 0.04305  0.39134  0.07560  Biso   1.000  F
  F72      1.0000 0.10420  0.45860  0.22040  Biso   1.000  F
  C226     1.0000 0.21857  0.45970  0.17220  Biso   1.000  C
  H119     1.0000 0.23240  0.41940  0.15450  Biso   1.000  H
  C227     1.0000 0.26326  0.22890  0.63130  Biso   1.000  C
  H120     1.0000 0.27630  0.22630  0.57700  Biso   1.000  H
  O48      1.0000 0.15126  0.75205  0.68580  Biso   1.000  O
  C228     1.0000 0.01126  0.35720  0.09010  Biso   1.000  C
  Zn24     1.0000 0.17279  0.82750  0.76880  Biso   1.000  Zn
  Zn25     1.0000 0.20871  0.10780  0.56614  Biso   1.000  Zn
  Zn26     1.0000 0.31649  0.65564  0.69901  Biso   1.000  Zn
  Zn27     1.0000 0.31873  0.32330  0.73120  Biso   1.000  Zn
  O49      1.0000 0.24320  0.10387  0.46860  Biso   1.000  O
  F73      1.0000 0.50938  0.90630  0.36700  Biso   1.000  F
  N37      1.0000 0.31415  0.43103  0.75870  Biso   1.000  N
  C229     1.0000 0.29964  0.46030  0.83480  Biso   1.000  C
  H121     1.0000 0.29110  0.43240  0.88380  Biso   1.000  H
  N38      1.0000 0.31415  0.55248  0.75000  Biso   1.000  N
  N39      1.0000 0.29886  0.53256  0.83300  Biso   1.000  N
  F74      1.0000 0.55042  0.92430  0.52810  Biso   1.000  F
  C230     1.0000 0.32297  0.49090  0.70850  Biso   1.000  C
  H122     1.0000 0.33400  0.48890  0.65120  Biso   1.000  H
  C231     1.0000 0.31548  0.10280  0.06890  Biso   1.000  C
  H123     1.0000 0.29580  0.08490  0.10080  Biso   1.000  H
  C232     1.0000 0.31022  0.16200  0.00810  Biso   1.000  C
  H124     1.0000 0.28750  0.18540  0.00170  Biso   1.000  H
  C233     1.0000 0.42830  0.77190  0.65660  Biso   1.000  C
  H125     1.0000 0.41590  0.79060  0.70660  Biso   1.000  H
  C234     1.0000 0.64517  0.67030  0.47080  Biso   1.000  C
  C235     1.0000 0.35011  0.06930  0.08330  Biso   1.000  C
  C236     1.0000 0.59229  0.74250  0.39700  Biso   1.000  C
  H126     1.0000 0.60400  0.74300  0.34050  Biso   1.000  H
  C237     1.0000 0.47736  0.78230  0.55120  Biso   1.000  C
  C238     1.0000 0.60779  0.70430  0.47300  Biso   1.000  C
  C239     1.0000 0.37818  0.09400  0.02920  Biso   1.000  C
  H127     1.0000 0.40110  0.07140  0.03620  Biso   1.000  H
  C240     1.0000 0.33891  0.18720  0.95620  Biso   1.000  C
  C241     1.0000 0.38189  0.67080  0.64130  Biso   1.000  C
  O50      1.0000 0.37206  0.60980  0.60800  Biso   1.000  O
  C242     1.0000 0.54118  0.77820  0.48630  Biso   1.000  C
  C243     1.0000 0.45812  0.81020  0.62500  Biso   1.000  C
  H128     1.0000 0.46530  0.85480  0.65340  Biso   1.000  H
  C244     1.0000 0.50727  0.82640  0.50310  Biso   1.000  C
  C245     1.0000 0.37245  0.15170  0.96480  Biso   1.000  C
  H129     1.0000 0.39120  0.16630  0.92750  Biso   1.000  H
  C246     1.0000 0.58943  0.70120  0.55710  Biso   1.000  C
  H130     1.0000 0.59970  0.67530  0.60910  Biso   1.000  H
  C247     1.0000 0.41678  0.70640  0.61490  Biso   1.000  C
  C248     1.0000 0.46668  0.71400  0.51280  Biso   1.000  C
  H131     1.0000 0.48010  0.69310  0.46580  Biso   1.000  H
  C249     1.0000 0.43655  0.67710  0.54370  Biso   1.000  C
  H132     1.0000 0.42950  0.63220  0.51660  Biso   1.000  H
  C250     1.0000 0.55938  0.78050  0.40320  Biso   1.000  C
  H133     1.0000 0.54950  0.80750  0.35150  Biso   1.000  H
  O51      1.0000 0.36189  0.70803  0.69440  Biso   1.000  O
  N40      1.0000 0.27800  0.71079  0.76850  Biso   1.000  N
  O52      1.0000 0.65768  0.63790  0.54420  Biso   1.000  O
  O53      1.0000 0.66302  0.67702  0.40030  Biso   1.000  O
  N41      1.0000 0.22640  0.77085  0.79340  Biso   1.000  N
  F75      1.0000 0.40265  0.07123  0.23970  Biso   1.000  F
  F76      1.0000 0.31564  0.92445  0.06332  Biso   1.000  F
  F77      1.0000 0.49631  0.94512  0.57220  Biso   1.000  F
  F78      1.0000 0.42063  0.98475  0.15110  Biso   1.000  F
  C251     1.0000 0.32315  0.07800  0.27610  Biso   1.000  C
  H134     1.0000 0.33750  0.11780  0.25980  Biso   1.000  H
  O54      1.0000 0.30900  0.29915  0.90814  Biso   1.000  O
  C252     1.0000 0.27628  0.02800  0.36910  Biso   1.000  C
  C253     1.0000 0.29796  0.08720  0.34330  Biso   1.000  C
  H135     1.0000 0.29540  0.13300  0.37170  Biso   1.000  H
  C254     1.0000 0.52128  0.89210  0.56360  Biso   1.000  C
  F79      1.0000 0.37089  0.93169  0.02250  Biso   1.000  F
  F80      1.0000 0.53219  0.87112  0.65160  Biso   1.000  F
  O55      1.0000 0.23177  0.98454  0.47200  Biso   1.000  O
  C255     1.0000 0.25264  0.75700  0.73320  Biso   1.000  C
  H136     1.0000 0.25290  0.77770  0.67310  Biso   1.000  H
  C256     1.0000 0.35539  0.00500  0.15480  Biso   1.000  C
  N42      1.0000 0.26752  0.69159  0.85750  Biso   1.000  N
  C257     1.0000 0.39422  0.00490  0.20660  Biso   1.000  C
  C258     1.0000 0.30681  0.95080  0.26050  Biso   1.000  C
  H137     1.0000 0.31010  0.90450  0.23390  Biso   1.000  H
  C259     1.0000 0.33211  0.25060  0.88940  Biso   1.000  C
  C260     1.0000 0.55626  0.73700  0.56220  Biso   1.000  C
  H138     1.0000 0.54380  0.73350  0.61720  Biso   1.000  H
  C261     1.0000 0.35036  0.93280  0.09600  Biso   1.000  C
  C262     1.0000 0.24859  0.03790  0.44030  Biso   1.000  C
  C263     1.0000 0.32747  0.00990  0.23210  Biso   1.000  C
  F81      1.0000 0.48058  0.80334  0.34734  Biso   1.000  F
  F82      1.0000 0.35925  0.87250  0.14820  Biso   1.000  F
  F83      1.0000 0.45695  0.89134  0.42440  Biso   1.000  F
  F84      1.0000 0.39580  0.95860  0.27960  Biso   1.000  F
  C264     1.0000 0.28143  0.95970  0.32780  Biso   1.000  C
  H139     1.0000 0.26760  0.91940  0.34550  Biso   1.000  H
  C265     1.0000 0.23674  0.72890  0.86870  Biso   1.000  C
  H140     1.0000 0.22370  0.72630  0.92300  Biso   1.000  H
  O56      1.0000 0.34874  0.25205  0.81420  Biso   1.000  O
  C266     1.0000 0.48874  0.85720  0.40990  Biso   1.000  C
  Zn28     1.0000 0.32721  0.32750  0.73120  Biso   1.000  Zn
  Zn29     1.0000 0.70871  0.60780  0.56614  Biso   1.000  Zn
  Zn30     1.0000 0.81649  0.15564  0.69901  Biso   1.000  Zn
  Zn31     1.0000 0.81873  0.82330  0.73120  Biso   1.000  Zn
  O57      1.0000 0.74320  0.60387  0.46860  Biso   1.000  O
  F85      1.0000 0.00938  0.40630  0.36700  Biso   1.000  F
  N43      1.0000 0.81415  0.93103  0.75870  Biso   1.000  N
  C267     1.0000 0.79964  0.96030  0.83480  Biso   1.000  C
  H141     1.0000 0.79110  0.93240  0.88380  Biso   1.000  H
  N44      1.0000 0.81415  0.05248  0.75000  Biso   1.000  N
  N45      1.0000 0.79886  0.03256  0.83300  Biso   1.000  N
  F86      1.0000 0.05042  0.42430  0.52810  Biso   1.000  F
  C268     1.0000 0.82297  0.99090  0.70850  Biso   1.000  C
  H142     1.0000 0.83400  0.98890  0.65120  Biso   1.000  H
  C269     1.0000 0.81548  0.60280  0.06890  Biso   1.000  C
  H143     1.0000 0.79580  0.58490  0.10080  Biso   1.000  H
  C270     1.0000 0.81022  0.66200  0.00810  Biso   1.000  C
  H144     1.0000 0.78750  0.68540  0.00170  Biso   1.000  H
  C271     1.0000 0.92830  0.27190  0.65660  Biso   1.000  C
  H145     1.0000 0.91590  0.29060  0.70660  Biso   1.000  H
  C272     1.0000 0.14517  0.17030  0.47080  Biso   1.000  C
  C273     1.0000 0.85011  0.56930  0.08330  Biso   1.000  C
  C274     1.0000 0.09229  0.24250  0.39700  Biso   1.000  C
  H146     1.0000 0.10400  0.24300  0.34050  Biso   1.000  H
  C275     1.0000 0.97736  0.28230  0.55120  Biso   1.000  C
  C276     1.0000 0.10779  0.20430  0.47300  Biso   1.000  C
  C277     1.0000 0.87818  0.59400  0.02920  Biso   1.000  C
  H147     1.0000 0.90110  0.57140  0.03620  Biso   1.000  H
  C278     1.0000 0.83891  0.68720  0.95620  Biso   1.000  C
  C279     1.0000 0.88189  0.17080  0.64130  Biso   1.000  C
  O58      1.0000 0.87206  0.10980  0.60800  Biso   1.000  O
  C280     1.0000 0.04118  0.27820  0.48630  Biso   1.000  C
  C281     1.0000 0.95812  0.31020  0.62500  Biso   1.000  C
  H148     1.0000 0.96530  0.35480  0.65340  Biso   1.000  H
  C282     1.0000 0.00727  0.32640  0.50310  Biso   1.000  C
  C283     1.0000 0.87245  0.65170  0.96480  Biso   1.000  C
  H149     1.0000 0.89120  0.66630  0.92750  Biso   1.000  H
  C284     1.0000 0.08943  0.20120  0.55710  Biso   1.000  C
  H150     1.0000 0.09970  0.17530  0.60910  Biso   1.000  H
  C285     1.0000 0.91678  0.20640  0.61490  Biso   1.000  C
  C286     1.0000 0.96668  0.21400  0.51280  Biso   1.000  C
  H151     1.0000 0.98010  0.19310  0.46580  Biso   1.000  H
  C287     1.0000 0.93655  0.17710  0.54370  Biso   1.000  C
  H152     1.0000 0.92950  0.13220  0.51660  Biso   1.000  H
  C288     1.0000 0.05938  0.28050  0.40320  Biso   1.000  C
  H153     1.0000 0.04950  0.30750  0.35150  Biso   1.000  H
  O59      1.0000 0.86189  0.20803  0.69440  Biso   1.000  O
  N46      1.0000 0.77800  0.21079  0.76850  Biso   1.000  N
  O60      1.0000 0.15768  0.13790  0.54420  Biso   1.000  O
  O61      1.0000 0.16302  0.17702  0.40030  Biso   1.000  O
  N47      1.0000 0.72640  0.27085  0.79340  Biso   1.000  N
  F87      1.0000 0.90265  0.57123  0.23970  Biso   1.000  F
  F88      1.0000 0.81564  0.42445  0.06332  Biso   1.000  F
  F89      1.0000 0.99631  0.44512  0.57220  Biso   1.000  F
  F90      1.0000 0.92063  0.48475  0.15110  Biso   1.000  F
  C289     1.0000 0.82315  0.57800  0.27610  Biso   1.000  C
  H154     1.0000 0.83750  0.61780  0.25980  Biso   1.000  H
  O62      1.0000 0.80900  0.79915  0.90814  Biso   1.000  O
  C290     1.0000 0.77628  0.52800  0.36910  Biso   1.000  C
  C291     1.0000 0.79796  0.58720  0.34330  Biso   1.000  C
  H155     1.0000 0.79540  0.63300  0.37170  Biso   1.000  H
  C292     1.0000 0.02128  0.39210  0.56360  Biso   1.000  C
  F91      1.0000 0.87089  0.43169  0.02250  Biso   1.000  F
  F92      1.0000 0.03219  0.37112  0.65160  Biso   1.000  F
  O63      1.0000 0.73177  0.48454  0.47200  Biso   1.000  O
  C293     1.0000 0.75264  0.25700  0.73320  Biso   1.000  C
  H156     1.0000 0.75290  0.27770  0.67310  Biso   1.000  H
  C294     1.0000 0.85539  0.50500  0.15480  Biso   1.000  C
  N48      1.0000 0.76752  0.19159  0.85750  Biso   1.000  N
  C295     1.0000 0.89422  0.50490  0.20660  Biso   1.000  C
  C296     1.0000 0.80681  0.45080  0.26050  Biso   1.000  C
  H157     1.0000 0.81010  0.40450  0.23390  Biso   1.000  H
  C297     1.0000 0.83211  0.75060  0.88940  Biso   1.000  C
  C298     1.0000 0.05626  0.23700  0.56220  Biso   1.000  C
  H158     1.0000 0.04380  0.23350  0.61720  Biso   1.000  H
  C299     1.0000 0.85036  0.43280  0.09600  Biso   1.000  C
  C300     1.0000 0.74859  0.53790  0.44030  Biso   1.000  C
  C301     1.0000 0.82747  0.50990  0.23210  Biso   1.000  C
  F93      1.0000 0.98058  0.30334  0.34734  Biso   1.000  F
  F94      1.0000 0.85925  0.37250  0.14820  Biso   1.000  F
  F95      1.0000 0.95695  0.39134  0.42440  Biso   1.000  F
  F96      1.0000 0.89580  0.45860  0.27960  Biso   1.000  F
  C302     1.0000 0.78143  0.45970  0.32780  Biso   1.000  C
  H159     1.0000 0.76760  0.41940  0.34550  Biso   1.000  H
  C303     1.0000 0.73674  0.22890  0.86870  Biso   1.000  C
  H160     1.0000 0.72370  0.22630  0.92300  Biso   1.000  H
  O64      1.0000 0.84874  0.75205  0.81420  Biso   1.000  O
  C304     1.0000 0.98874  0.35720  0.40990  Biso   1.000  C
  Zn32     1.0000 0.82721  0.82750  0.73120  Biso   1.000  Zn
