data_image0
_cell_length_a       30.0742
_cell_length_b       44.9301
_cell_length_c       18.4571
_cell_angle_alpha    90
_cell_angle_beta     107.961
_cell_angle_gamma    90

_symmetry_space_group_name_H-M    "P 1"
_symmetry_int_tables_number       1

loop_
  _symmetry_equiv_pos_as_xyz
  'x, y, z'

loop_
  _atom_site_label
  _atom_site_occupancy
  _atom_site_fract_x
  _atom_site_fract_y
  _atom_site_fract_z
  _atom_site_thermal_displace_type
  _atom_site_B_iso_or_equiv
  _atom_site_type_symbol
  Cu1      1.0000 0.23860  0.46001  0.18311  Biso   1.000  Cu
  Cu2      1.0000 0.25904  0.42649  0.30619  Biso   1.000  Cu
  Cu3      1.0000 0.47050  0.69124  0.78947  Biso   1.000  Cu
  O1       1.0000 0.25841  0.49369  0.25246  Biso   1.000  O
  O2       1.0000 0.27816  0.46515  0.35643  Biso   1.000  O
  O3       1.0000 0.22042  0.42225  0.13080  Biso   1.000  O
  O4       1.0000 0.23632  0.39332  0.23634  Biso   1.000  O
  O5       1.0000 0.30417  0.45331  0.19238  Biso   1.000  O
  O6       1.0000 0.32097  0.42305  0.29309  Biso   1.000  O
  O7       1.0000 0.17645  0.46244  0.19503  Biso   1.000  O
  O8       1.0000 0.19395  0.43432  0.30085  Biso   1.000  O
  O9       1.0000 0.43531  0.66294  0.71180  Biso   1.000  O
  O10      1.0000 0.49015  0.65912  0.65387  Biso   1.000  O
  O11      1.0000 0.01328  0.22013  0.85377  Biso   1.000  O
  O12      1.0000 0.05991  0.22408  0.77690  Biso   1.000  O
  C1       1.0000 0.27548  0.48947  0.32270  Biso   1.000  C
  C2       1.0000 0.29509  0.51557  0.37010  Biso   1.000  C
  C3       1.0000 0.30214  0.54247  0.33610  Biso   1.000  C
  H1       1.0000 0.29190  0.54430  0.28220  Biso   1.000  H
  C4       1.0000 0.32400  0.56645  0.38060  Biso   1.000  C
  H2       1.0000 0.32820  0.58450  0.35690  Biso   1.000  H
  C5       1.0000 0.33968  0.56411  0.45970  Biso   1.000  C
  C6       1.0000 0.33220  0.53779  0.49290  Biso   1.000  C
  H3       1.0000 0.34140  0.53620  0.54680  Biso   1.000  H
  C7       1.0000 0.31141  0.51378  0.44880  Biso   1.000  C
  H4       1.0000 0.30830  0.49560  0.47300  Biso   1.000  H
  C8       1.0000 0.36590  0.58861  0.50890  Biso   1.000  C
  C9       1.0000 0.35002  0.60258  0.56140  Biso   1.000  C
  C10      1.0000 0.37761  0.62367  0.61100  Biso   1.000  C
  H5       1.0000 0.36610  0.63310  0.64770  Biso   1.000  H
  C11      1.0000 0.42070  0.63082  0.60710  Biso   1.000  C
  C12      1.0000 0.43730  0.61764  0.55180  Biso   1.000  C
  H6       1.0000 0.46680  0.62340  0.54790  Biso   1.000  H
  C13      1.0000 0.41140  0.59644  0.50300  Biso   1.000  C
  H7       1.0000 0.42300  0.58720  0.46630  Biso   1.000  H
  C14      1.0000 0.45118  0.65330  0.66280  Biso   1.000  C
  C15      1.0000 0.30180  0.59940  0.56330  Biso   1.000  C
  H8       1.0000 0.29970  0.58090  0.59110  Biso   1.000  H
  H9       1.0000 0.29490  0.61620  0.59280  Biso   1.000  H
  N1       1.0000 0.26600  0.59850  0.49050  Biso   1.000  N
  C16      1.0000 0.25720  0.62610  0.44290  Biso   1.000  C
  H10      1.0000 0.27330  0.64460  0.45220  Biso   1.000  H
  N2       1.0000 0.22580  0.61900  0.39160  Biso   1.000  N
  C17      1.0000 0.20600  0.58360  0.39170  Biso   1.000  C
  H11      1.0000 0.18200  0.57330  0.35430  Biso   1.000  H
  C18      1.0000 0.23540  0.57380  0.46340  Biso   1.000  C
  H12      1.0000 0.23490  0.55520  0.48770  Biso   1.000  H
  C19      1.0000 0.19890  0.63310  0.31320  Biso   1.000  C
  H13      1.0000 0.17420  0.61940  0.28480  Biso   1.000  H
  H14      1.0000 0.22060  0.63670  0.28410  Biso   1.000  H
  H15      1.0000 0.18480  0.65200  0.32140  Biso   1.000  H
  C20      1.0000 0.33104  0.43728  0.24220  Biso   1.000  C
  C21      1.0000 0.38179  0.43635  0.24380  Biso   1.000  C
  C22      1.0000 0.39813  0.45866  0.20640  Biso   1.000  C
  H16      1.0000 0.37730  0.47350  0.17850  Biso   1.000  H
  C23      1.0000 0.44467  0.45933  0.20970  Biso   1.000  C
  C24      1.0000 0.47457  0.43603  0.24760  Biso   1.000  C
  C25      1.0000 0.45727  0.41379  0.28230  Biso   1.000  C
  H17      1.0000 0.47720  0.39800  0.30720  Biso   1.000  H
  C26      1.0000 0.41099  0.41413  0.28110  Biso   1.000  C
  H18      1.0000 0.39950  0.39890  0.30630  Biso   1.000  H
  C27      1.0000 0.46440  0.48870  0.18650  Biso   1.000  C
  H19      1.0000 0.43870  0.50210  0.15900  Biso   1.000  H
  H20      1.0000 0.48460  0.49910  0.23200  Biso   1.000  H
  N3       1.0000 0.49110  0.47930  0.13780  Biso   1.000  N
  C28      1.0000 0.46710  0.46350  0.06370  Biso   1.000  C
  H21      1.0000 0.43470  0.45940  0.04130  Biso   1.000  H
  N4       1.0000 0.49680  0.45780  0.04160  Biso   1.000  N
  C29      1.0000 0.54810  0.47610  0.08330  Biso   1.000  C
  H22      1.0000 0.57550  0.47780  0.06850  Biso   1.000  H
  C30      1.0000 0.53690  0.48810  0.14780  Biso   1.000  C
  H23      1.0000 0.55650  0.49960  0.18840  Biso   1.000  H
  C31      1.0000 0.50920  0.43550  0.98700  Biso   1.000  C
  H24      1.0000 0.53880  0.44120  0.97940  Biso   1.000  H
  H25      1.0000 0.48440  0.43550  0.93790  Biso   1.000  H
  H26      1.0000 0.51210  0.41550  0.00910  Biso   1.000  H
  C32      1.0000 0.22089  0.39784  0.16630  Biso   1.000  C
  C33      1.0000 0.19921  0.37147  0.11550  Biso   1.000  C
  C34      1.0000 0.19908  0.34344  0.14640  Biso   1.000  C
  H27      1.0000 0.21500  0.34030  0.19890  Biso   1.000  H
  C35      1.0000 0.17720  0.32071  0.10400  Biso   1.000  C
  C36      1.0000 0.15390  0.32427  0.02660  Biso   1.000  C
  C37      1.0000 0.15190  0.35226  0.99470  Biso   1.000  C
  H28      1.0000 0.13520  0.35540  0.94250  Biso   1.000  H
  C38      1.0000 0.17460  0.37553  0.04020  Biso   1.000  C
  H29      1.0000 0.17320  0.39480  0.01870  Biso   1.000  H
  C39      1.0000 0.12550  0.29949  0.97950  Biso   1.000  C
  C40      1.0000 0.08440  0.29154  0.99200  Biso   1.000  C
  H30      1.0000 0.07240  0.30130  0.02760  Biso   1.000  H
  C41      1.0000 0.06100  0.26646  0.94460  Biso   1.000  C
  H31      1.0000 0.03470  0.25770  0.95450  Biso   1.000  H
  C42      1.0000 0.07587  0.25492  0.88500  Biso   1.000  C
  C43      1.0000 0.11380  0.26644  0.87090  Biso   1.000  C
  H32      1.0000 0.12390  0.25930  0.83010  Biso   1.000  H
  C44      1.0000 0.13780  0.28938  0.91880  Biso   1.000  C
  H33      1.0000 0.16380  0.29830  0.90830  Biso   1.000  H
  C45      1.0000 0.04726  0.23029  0.83650  Biso   1.000  C
  C46      1.0000 0.19750  0.29060  0.13120  Biso   1.000  C
  H34      1.0000 0.18250  0.28400  0.16930  Biso   1.000  H
  H35      1.0000 0.18590  0.27700  0.08710  Biso   1.000  H
  N5       1.0000 0.24820  0.28390  0.16480  Biso   1.000  N
  C47      1.0000 0.28190  0.28820  0.11930  Biso   1.000  C
  H36      1.0000 0.27640  0.29390  0.06770  Biso   1.000  H
  N6       1.0000 0.31530  0.28260  0.16500  Biso   1.000  N
  C48      1.0000 0.31250  0.26290  0.24490  Biso   1.000  C
  H37      1.0000 0.33570  0.25220  0.28270  Biso   1.000  H
  C49      1.0000 0.26420  0.26810  0.23510  Biso   1.000  C
  H38      1.0000 0.24670  0.26230  0.26780  Biso   1.000  H
  C50      1.0000 0.36240  0.27030  0.15580  Biso   1.000  C
  H39      1.0000 0.38380  0.26480  0.20580  Biso   1.000  H
  H40      1.0000 0.37700  0.28570  0.13300  Biso   1.000  H
  H41      1.0000 0.35580  0.25270  0.12270  Biso   1.000  H
  C51      1.0000 0.16663  0.44937  0.24840  Biso   1.000  C
  C52      1.0000 0.11708  0.45163  0.25040  Biso   1.000  C
  C53      1.0000 0.08486  0.46632  0.19680  Biso   1.000  C
  H42      1.0000 0.09230  0.47350  0.15350  Biso   1.000  H
  C54      1.0000 0.04074  0.47146  0.20240  Biso   1.000  C
  C55      1.0000 0.02480  0.45483  0.25030  Biso   1.000  C
  C56      1.0000 0.05609  0.43655  0.29840  Biso   1.000  C
  H43      1.0000 0.04640  0.42480  0.33370  Biso   1.000  H
  C57      1.0000 0.10182  0.43451  0.29740  Biso   1.000  C
  H44      1.0000 0.12260  0.42080  0.33030  Biso   1.000  H
  C58      1.0000 0.00250  0.49580  0.17930  Biso   1.000  C
  H45      1.0000 0.97860  0.48940  0.20270  Biso   1.000  H
  H46      1.0000 0.01730  0.51370  0.20810  Biso   1.000  H
  N7       1.0000 0.97610  0.50700  0.10560  Biso   1.000  N
  C59      1.0000 0.97580  0.54010  0.08880  Biso   1.000  C
  H47      1.0000 0.99270  0.55550  0.12090  Biso   1.000  H
  N8       1.0000 0.95030  0.54210  0.02800  Biso   1.000  N
  C60      1.0000 0.92230  0.50960  0.99240  Biso   1.000  C
  H48      1.0000 0.89680  0.50670  0.94740  Biso   1.000  H
  C61      1.0000 0.94610  0.48860  0.04600  Biso   1.000  C
  H49      1.0000 0.94330  0.46760  0.04340  Biso   1.000  H
  C62      1.0000 0.92560  0.56810  0.97560  Biso   1.000  C
  H50      1.0000 0.90260  0.56010  0.92990  Biso   1.000  H
  H51      1.0000 0.94890  0.57990  0.96100  Biso   1.000  H
  H52      1.0000 0.90970  0.58080  0.00310  Biso   1.000  H
  Cu4      1.0000 0.73860  0.96001  0.18311  Biso   1.000  Cu
  Cu5      1.0000 0.75904  0.92649  0.30619  Biso   1.000  Cu
  Cu6      1.0000 0.97050  0.19124  0.78947  Biso   1.000  Cu
  O13      1.0000 0.75841  0.99369  0.25246  Biso   1.000  O
  O14      1.0000 0.77816  0.96515  0.35643  Biso   1.000  O
  O15      1.0000 0.72042  0.92225  0.13080  Biso   1.000  O
  O16      1.0000 0.73632  0.89332  0.23634  Biso   1.000  O
  O17      1.0000 0.80417  0.95331  0.19238  Biso   1.000  O
  O18      1.0000 0.82097  0.92305  0.29309  Biso   1.000  O
  O19      1.0000 0.67645  0.96244  0.19503  Biso   1.000  O
  O20      1.0000 0.69395  0.93432  0.30085  Biso   1.000  O
  O21      1.0000 0.93531  0.16294  0.71180  Biso   1.000  O
  O22      1.0000 0.99015  0.15912  0.65387  Biso   1.000  O
  O23      1.0000 0.51328  0.72013  0.85377  Biso   1.000  O
  O24      1.0000 0.55991  0.72408  0.77690  Biso   1.000  O
  C63      1.0000 0.77548  0.98947  0.32270  Biso   1.000  C
  C64      1.0000 0.79509  0.01557  0.37010  Biso   1.000  C
  C65      1.0000 0.80214  0.04247  0.33610  Biso   1.000  C
  H53      1.0000 0.79190  0.04430  0.28220  Biso   1.000  H
  C66      1.0000 0.82400  0.06645  0.38060  Biso   1.000  C
  H54      1.0000 0.82820  0.08450  0.35690  Biso   1.000  H
  C67      1.0000 0.83968  0.06411  0.45970  Biso   1.000  C
  C68      1.0000 0.83220  0.03779  0.49290  Biso   1.000  C
  H55      1.0000 0.84140  0.03620  0.54680  Biso   1.000  H
  C69      1.0000 0.81141  0.01378  0.44880  Biso   1.000  C
  H56      1.0000 0.80830  0.99560  0.47300  Biso   1.000  H
  C70      1.0000 0.86590  0.08861  0.50890  Biso   1.000  C
  C71      1.0000 0.85002  0.10258  0.56140  Biso   1.000  C
  C72      1.0000 0.87761  0.12367  0.61100  Biso   1.000  C
  H57      1.0000 0.86610  0.13310  0.64770  Biso   1.000  H
  C73      1.0000 0.92070  0.13082  0.60710  Biso   1.000  C
  C74      1.0000 0.93730  0.11764  0.55180  Biso   1.000  C
  H58      1.0000 0.96680  0.12340  0.54790  Biso   1.000  H
  C75      1.0000 0.91140  0.09644  0.50300  Biso   1.000  C
  H59      1.0000 0.92300  0.08720  0.46630  Biso   1.000  H
  C76      1.0000 0.95118  0.15330  0.66280  Biso   1.000  C
  C77      1.0000 0.80180  0.09940  0.56330  Biso   1.000  C
  H60      1.0000 0.79970  0.08090  0.59110  Biso   1.000  H
  H61      1.0000 0.79490  0.11620  0.59280  Biso   1.000  H
  N9       1.0000 0.76600  0.09850  0.49050  Biso   1.000  N
  C78      1.0000 0.75720  0.12610  0.44290  Biso   1.000  C
  H62      1.0000 0.77330  0.14460  0.45220  Biso   1.000  H
  N10      1.0000 0.72580  0.11900  0.39160  Biso   1.000  N
  C79      1.0000 0.70600  0.08360  0.39170  Biso   1.000  C
  H63      1.0000 0.68200  0.07330  0.35430  Biso   1.000  H
  C80      1.0000 0.73540  0.07380  0.46340  Biso   1.000  C
  H64      1.0000 0.73490  0.05520  0.48770  Biso   1.000  H
  C81      1.0000 0.69890  0.13310  0.31320  Biso   1.000  C
  H65      1.0000 0.67420  0.11940  0.28480  Biso   1.000  H
  H66      1.0000 0.72060  0.13670  0.28410  Biso   1.000  H
  H67      1.0000 0.68480  0.15200  0.32140  Biso   1.000  H
  C82      1.0000 0.83104  0.93728  0.24220  Biso   1.000  C
  C83      1.0000 0.88179  0.93635  0.24380  Biso   1.000  C
  C84      1.0000 0.89813  0.95866  0.20640  Biso   1.000  C
  H68      1.0000 0.87730  0.97350  0.17850  Biso   1.000  H
  C85      1.0000 0.94467  0.95933  0.20970  Biso   1.000  C
  C86      1.0000 0.97457  0.93603  0.24760  Biso   1.000  C
  C87      1.0000 0.95727  0.91379  0.28230  Biso   1.000  C
  H69      1.0000 0.97720  0.89800  0.30720  Biso   1.000  H
  C88      1.0000 0.91099  0.91413  0.28110  Biso   1.000  C
  H70      1.0000 0.89950  0.89890  0.30630  Biso   1.000  H
  C89      1.0000 0.96440  0.98870  0.18650  Biso   1.000  C
  H71      1.0000 0.93870  0.00210  0.15900  Biso   1.000  H
  H72      1.0000 0.98460  0.99910  0.23200  Biso   1.000  H
  N11      1.0000 0.99110  0.97930  0.13780  Biso   1.000  N
  C90      1.0000 0.96710  0.96350  0.06370  Biso   1.000  C
  H73      1.0000 0.93470  0.95940  0.04130  Biso   1.000  H
  N12      1.0000 0.99680  0.95780  0.04160  Biso   1.000  N
  C91      1.0000 0.04810  0.97610  0.08330  Biso   1.000  C
  H74      1.0000 0.07550  0.97780  0.06850  Biso   1.000  H
  C92      1.0000 0.03690  0.98810  0.14780  Biso   1.000  C
  H75      1.0000 0.05650  0.99960  0.18840  Biso   1.000  H
  C93      1.0000 0.00920  0.93550  0.98700  Biso   1.000  C
  H76      1.0000 0.03880  0.94120  0.97940  Biso   1.000  H
  H77      1.0000 0.98440  0.93550  0.93790  Biso   1.000  H
  H78      1.0000 0.01210  0.91550  0.00910  Biso   1.000  H
  C94      1.0000 0.72089  0.89784  0.16630  Biso   1.000  C
  C95      1.0000 0.69921  0.87147  0.11550  Biso   1.000  C
  C96      1.0000 0.69908  0.84344  0.14640  Biso   1.000  C
  H79      1.0000 0.71500  0.84030  0.19890  Biso   1.000  H
  C97      1.0000 0.67720  0.82071  0.10400  Biso   1.000  C
  C98      1.0000 0.65390  0.82427  0.02660  Biso   1.000  C
  C99      1.0000 0.65190  0.85226  0.99470  Biso   1.000  C
  H80      1.0000 0.63520  0.85540  0.94250  Biso   1.000  H
  C100     1.0000 0.67460  0.87553  0.04020  Biso   1.000  C
  H81      1.0000 0.67320  0.89480  0.01870  Biso   1.000  H
  C101     1.0000 0.62550  0.79949  0.97950  Biso   1.000  C
  C102     1.0000 0.58440  0.79154  0.99200  Biso   1.000  C
  H82      1.0000 0.57240  0.80130  0.02760  Biso   1.000  H
  C103     1.0000 0.56100  0.76646  0.94460  Biso   1.000  C
  H83      1.0000 0.53470  0.75770  0.95450  Biso   1.000  H
  C104     1.0000 0.57587  0.75492  0.88500  Biso   1.000  C
  C105     1.0000 0.61380  0.76644  0.87090  Biso   1.000  C
  H84      1.0000 0.62390  0.75930  0.83010  Biso   1.000  H
  C106     1.0000 0.63780  0.78938  0.91880  Biso   1.000  C
  H85      1.0000 0.66380  0.79830  0.90830  Biso   1.000  H
  C107     1.0000 0.54726  0.73029  0.83650  Biso   1.000  C
  C108     1.0000 0.69750  0.79060  0.13120  Biso   1.000  C
  H86      1.0000 0.68250  0.78400  0.16930  Biso   1.000  H
  H87      1.0000 0.68590  0.77700  0.08710  Biso   1.000  H
  N13      1.0000 0.74820  0.78390  0.16480  Biso   1.000  N
  C109     1.0000 0.78190  0.78820  0.11930  Biso   1.000  C
  H88      1.0000 0.77640  0.79390  0.06770  Biso   1.000  H
  N14      1.0000 0.81530  0.78260  0.16500  Biso   1.000  N
  C110     1.0000 0.81250  0.76290  0.24490  Biso   1.000  C
  H89      1.0000 0.83570  0.75220  0.28270  Biso   1.000  H
  C111     1.0000 0.76420  0.76810  0.23510  Biso   1.000  C
  H90      1.0000 0.74670  0.76230  0.26780  Biso   1.000  H
  C112     1.0000 0.86240  0.77030  0.15580  Biso   1.000  C
  H91      1.0000 0.88380  0.76480  0.20580  Biso   1.000  H
  H92      1.0000 0.87700  0.78570  0.13300  Biso   1.000  H
  H93      1.0000 0.85580  0.75270  0.12270  Biso   1.000  H
  C113     1.0000 0.66663  0.94937  0.24840  Biso   1.000  C
  C114     1.0000 0.61708  0.95163  0.25040  Biso   1.000  C
  C115     1.0000 0.58486  0.96632  0.19680  Biso   1.000  C
  H94      1.0000 0.59230  0.97350  0.15350  Biso   1.000  H
  C116     1.0000 0.54074  0.97146  0.20240  Biso   1.000  C
  C117     1.0000 0.52480  0.95483  0.25030  Biso   1.000  C
  C118     1.0000 0.55609  0.93655  0.29840  Biso   1.000  C
  H95      1.0000 0.54640  0.92480  0.33370  Biso   1.000  H
  C119     1.0000 0.60182  0.93451  0.29740  Biso   1.000  C
  H96      1.0000 0.62260  0.92080  0.33030  Biso   1.000  H
  C120     1.0000 0.50250  0.99580  0.17930  Biso   1.000  C
  H97      1.0000 0.47860  0.98940  0.20270  Biso   1.000  H
  H98      1.0000 0.51730  0.01370  0.20810  Biso   1.000  H
  N15      1.0000 0.47610  0.00700  0.10560  Biso   1.000  N
  C121     1.0000 0.47580  0.04010  0.08880  Biso   1.000  C
  H99      1.0000 0.49270  0.05550  0.12090  Biso   1.000  H
  N16      1.0000 0.45030  0.04210  0.02800  Biso   1.000  N
  C122     1.0000 0.42230  0.00960  0.99240  Biso   1.000  C
  H100     1.0000 0.39680  0.00670  0.94740  Biso   1.000  H
  C123     1.0000 0.44610  0.98860  0.04600  Biso   1.000  C
  H101     1.0000 0.44330  0.96760  0.04340  Biso   1.000  H
  C124     1.0000 0.42560  0.06810  0.97560  Biso   1.000  C
  H102     1.0000 0.40260  0.06010  0.92990  Biso   1.000  H
  H103     1.0000 0.44890  0.07990  0.96100  Biso   1.000  H
  H104     1.0000 0.40970  0.08080  0.00310  Biso   1.000  H
  Cu7      1.0000 0.76140  0.46001  0.31689  Biso   1.000  Cu
  Cu8      1.0000 0.74096  0.42649  0.19381  Biso   1.000  Cu
  Cu9      1.0000 0.52950  0.69124  0.71053  Biso   1.000  Cu
  O25      1.0000 0.74159  0.49369  0.24754  Biso   1.000  O
  O26      1.0000 0.72184  0.46515  0.14357  Biso   1.000  O
  O27      1.0000 0.77958  0.42225  0.36920  Biso   1.000  O
  O28      1.0000 0.76368  0.39332  0.26366  Biso   1.000  O
  O29      1.0000 0.69583  0.45331  0.30762  Biso   1.000  O
  O30      1.0000 0.67903  0.42305  0.20691  Biso   1.000  O
  O31      1.0000 0.82355  0.46244  0.30497  Biso   1.000  O
  O32      1.0000 0.80605  0.43432  0.19915  Biso   1.000  O
  O33      1.0000 0.56469  0.66294  0.78820  Biso   1.000  O
  O34      1.0000 0.50985  0.65912  0.84613  Biso   1.000  O
  O35      1.0000 0.98672  0.22013  0.64623  Biso   1.000  O
  O36      1.0000 0.94009  0.22408  0.72310  Biso   1.000  O
  C125     1.0000 0.72452  0.48947  0.17730  Biso   1.000  C
  C126     1.0000 0.70491  0.51557  0.12990  Biso   1.000  C
  C127     1.0000 0.69786  0.54247  0.16390  Biso   1.000  C
  H105     1.0000 0.70810  0.54430  0.21780  Biso   1.000  H
  C128     1.0000 0.67600  0.56645  0.11940  Biso   1.000  C
  H106     1.0000 0.67180  0.58450  0.14310  Biso   1.000  H
  C129     1.0000 0.66032  0.56411  0.04030  Biso   1.000  C
  C130     1.0000 0.66780  0.53779  0.00710  Biso   1.000  C
  H107     1.0000 0.65860  0.53620  0.95320  Biso   1.000  H
  C131     1.0000 0.68859  0.51378  0.05120  Biso   1.000  C
  H108     1.0000 0.69170  0.49560  0.02700  Biso   1.000  H
  C132     1.0000 0.63410  0.58861  0.99110  Biso   1.000  C
  C133     1.0000 0.64998  0.60258  0.93860  Biso   1.000  C
  C134     1.0000 0.62239  0.62367  0.88900  Biso   1.000  C
  H109     1.0000 0.63390  0.63310  0.85230  Biso   1.000  H
  C135     1.0000 0.57930  0.63082  0.89290  Biso   1.000  C
  C136     1.0000 0.56270  0.61764  0.94820  Biso   1.000  C
  H110     1.0000 0.53320  0.62340  0.95210  Biso   1.000  H
  C137     1.0000 0.58860  0.59644  0.99700  Biso   1.000  C
  H111     1.0000 0.57700  0.58720  0.03370  Biso   1.000  H
  C138     1.0000 0.54882  0.65330  0.83720  Biso   1.000  C
  C139     1.0000 0.69820  0.59940  0.93670  Biso   1.000  C
  H112     1.0000 0.70030  0.58090  0.90890  Biso   1.000  H
  H113     1.0000 0.70510  0.61620  0.90720  Biso   1.000  H
  N17      1.0000 0.73400  0.59850  0.00950  Biso   1.000  N
  C140     1.0000 0.74280  0.62610  0.05710  Biso   1.000  C
  H114     1.0000 0.72670  0.64460  0.04780  Biso   1.000  H
  N18      1.0000 0.77420  0.61900  0.10840  Biso   1.000  N
  C141     1.0000 0.79400  0.58360  0.10830  Biso   1.000  C
  H115     1.0000 0.81800  0.57330  0.14570  Biso   1.000  H
  C142     1.0000 0.76460  0.57380  0.03660  Biso   1.000  C
  H116     1.0000 0.76510  0.55520  0.01230  Biso   1.000  H
  C143     1.0000 0.80110  0.63310  0.18680  Biso   1.000  C
  H117     1.0000 0.82580  0.61940  0.21520  Biso   1.000  H
  H118     1.0000 0.77940  0.63670  0.21590  Biso   1.000  H
  H119     1.0000 0.81520  0.65200  0.17860  Biso   1.000  H
  C144     1.0000 0.66896  0.43728  0.25780  Biso   1.000  C
  C145     1.0000 0.61821  0.43635  0.25620  Biso   1.000  C
  C146     1.0000 0.60187  0.45866  0.29360  Biso   1.000  C
  H120     1.0000 0.62270  0.47350  0.32150  Biso   1.000  H
  C147     1.0000 0.55533  0.45933  0.29030  Biso   1.000  C
  C148     1.0000 0.52543  0.43603  0.25240  Biso   1.000  C
  C149     1.0000 0.54273  0.41379  0.21770  Biso   1.000  C
  H121     1.0000 0.52280  0.39800  0.19280  Biso   1.000  H
  C150     1.0000 0.58901  0.41413  0.21890  Biso   1.000  C
  H122     1.0000 0.60050  0.39890  0.19370  Biso   1.000  H
  C151     1.0000 0.53560  0.48870  0.31350  Biso   1.000  C
  H123     1.0000 0.56130  0.50210  0.34100  Biso   1.000  H
  H124     1.0000 0.51540  0.49910  0.26800  Biso   1.000  H
  N19      1.0000 0.50890  0.47930  0.36220  Biso   1.000  N
  C152     1.0000 0.53290  0.46350  0.43630  Biso   1.000  C
  H125     1.0000 0.56530  0.45940  0.45870  Biso   1.000  H
  N20      1.0000 0.50320  0.45780  0.45840  Biso   1.000  N
  C153     1.0000 0.45190  0.47610  0.41670  Biso   1.000  C
  H126     1.0000 0.42450  0.47780  0.43150  Biso   1.000  H
  C154     1.0000 0.46310  0.48810  0.35220  Biso   1.000  C
  H127     1.0000 0.44350  0.49960  0.31160  Biso   1.000  H
  C155     1.0000 0.49080  0.43550  0.51300  Biso   1.000  C
  H128     1.0000 0.46120  0.44120  0.52060  Biso   1.000  H
  H129     1.0000 0.51560  0.43550  0.56210  Biso   1.000  H
  H130     1.0000 0.48790  0.41550  0.49090  Biso   1.000  H
  C156     1.0000 0.77911  0.39784  0.33370  Biso   1.000  C
  C157     1.0000 0.80079  0.37147  0.38450  Biso   1.000  C
  C158     1.0000 0.80092  0.34344  0.35360  Biso   1.000  C
  H131     1.0000 0.78500  0.34030  0.30110  Biso   1.000  H
  C159     1.0000 0.82280  0.32071  0.39600  Biso   1.000  C
  C160     1.0000 0.84610  0.32427  0.47340  Biso   1.000  C
  C161     1.0000 0.84810  0.35226  0.50530  Biso   1.000  C
  H132     1.0000 0.86480  0.35540  0.55750  Biso   1.000  H
  C162     1.0000 0.82540  0.37553  0.45980  Biso   1.000  C
  H133     1.0000 0.82680  0.39480  0.48130  Biso   1.000  H
  C163     1.0000 0.87450  0.29949  0.52050  Biso   1.000  C
  C164     1.0000 0.91560  0.29154  0.50800  Biso   1.000  C
  H134     1.0000 0.92760  0.30130  0.47240  Biso   1.000  H
  C165     1.0000 0.93900  0.26646  0.55540  Biso   1.000  C
  H135     1.0000 0.96530  0.25770  0.54550  Biso   1.000  H
  C166     1.0000 0.92413  0.25492  0.61500  Biso   1.000  C
  C167     1.0000 0.88620  0.26644  0.62910  Biso   1.000  C
  H136     1.0000 0.87610  0.25930  0.66990  Biso   1.000  H
  C168     1.0000 0.86220  0.28938  0.58120  Biso   1.000  C
  H137     1.0000 0.83620  0.29830  0.59170  Biso   1.000  H
  C169     1.0000 0.95274  0.23029  0.66350  Biso   1.000  C
  C170     1.0000 0.80250  0.29060  0.36880  Biso   1.000  C
  H138     1.0000 0.81750  0.28400  0.33070  Biso   1.000  H
  H139     1.0000 0.81410  0.27700  0.41290  Biso   1.000  H
  N21      1.0000 0.75180  0.28390  0.33520  Biso   1.000  N
  C171     1.0000 0.71810  0.28820  0.38070  Biso   1.000  C
  H140     1.0000 0.72360  0.29390  0.43230  Biso   1.000  H
  N22      1.0000 0.68470  0.28260  0.33500  Biso   1.000  N
  C172     1.0000 0.68750  0.26290  0.25510  Biso   1.000  C
  H141     1.0000 0.66430  0.25220  0.21730  Biso   1.000  H
  C173     1.0000 0.73580  0.26810  0.26490  Biso   1.000  C
  H142     1.0000 0.75330  0.26230  0.23220  Biso   1.000  H
  C174     1.0000 0.63760  0.27030  0.34420  Biso   1.000  C
  H143     1.0000 0.61620  0.26480  0.29420  Biso   1.000  H
  H144     1.0000 0.62300  0.28570  0.36700  Biso   1.000  H
  H145     1.0000 0.64420  0.25270  0.37730  Biso   1.000  H
  C175     1.0000 0.83337  0.44937  0.25160  Biso   1.000  C
  C176     1.0000 0.88292  0.45163  0.24960  Biso   1.000  C
  C177     1.0000 0.91514  0.46632  0.30320  Biso   1.000  C
  H146     1.0000 0.90770  0.47350  0.34650  Biso   1.000  H
  C178     1.0000 0.95926  0.47146  0.29760  Biso   1.000  C
  C179     1.0000 0.97520  0.45483  0.24970  Biso   1.000  C
  C180     1.0000 0.94391  0.43655  0.20160  Biso   1.000  C
  H147     1.0000 0.95360  0.42480  0.16630  Biso   1.000  H
  C181     1.0000 0.89818  0.43451  0.20260  Biso   1.000  C
  H148     1.0000 0.87740  0.42080  0.16970  Biso   1.000  H
  C182     1.0000 0.99750  0.49580  0.32070  Biso   1.000  C
  H149     1.0000 0.02140  0.48940  0.29730  Biso   1.000  H
  H150     1.0000 0.98270  0.51370  0.29190  Biso   1.000  H
  N23      1.0000 0.02390  0.50700  0.39440  Biso   1.000  N
  C183     1.0000 0.02420  0.54010  0.41120  Biso   1.000  C
  H151     1.0000 0.00730  0.55550  0.37910  Biso   1.000  H
  N24      1.0000 0.04970  0.54210  0.47200  Biso   1.000  N
  C184     1.0000 0.07770  0.50960  0.50760  Biso   1.000  C
  H152     1.0000 0.10320  0.50670  0.55260  Biso   1.000  H
  C185     1.0000 0.05390  0.48860  0.45400  Biso   1.000  C
  H153     1.0000 0.05670  0.46760  0.45660  Biso   1.000  H
  C186     1.0000 0.07440  0.56810  0.52440  Biso   1.000  C
  H154     1.0000 0.09740  0.56010  0.57010  Biso   1.000  H
  H155     1.0000 0.05110  0.57990  0.53900  Biso   1.000  H
  H156     1.0000 0.09030  0.58080  0.49690  Biso   1.000  H
  Cu10     1.0000 0.26140  0.96001  0.31689  Biso   1.000  Cu
  Cu11     1.0000 0.24096  0.92649  0.19381  Biso   1.000  Cu
  Cu12     1.0000 0.02950  0.19124  0.71053  Biso   1.000  Cu
  O37      1.0000 0.24159  0.99369  0.24754  Biso   1.000  O
  O38      1.0000 0.22184  0.96515  0.14357  Biso   1.000  O
  O39      1.0000 0.27958  0.92225  0.36920  Biso   1.000  O
  O40      1.0000 0.26368  0.89332  0.26366  Biso   1.000  O
  O41      1.0000 0.19583  0.95331  0.30762  Biso   1.000  O
  O42      1.0000 0.17903  0.92305  0.20691  Biso   1.000  O
  O43      1.0000 0.32355  0.96244  0.30497  Biso   1.000  O
  O44      1.0000 0.30605  0.93432  0.19915  Biso   1.000  O
  O45      1.0000 0.06469  0.16294  0.78820  Biso   1.000  O
  O46      1.0000 0.00985  0.15912  0.84613  Biso   1.000  O
  O47      1.0000 0.48672  0.72013  0.64623  Biso   1.000  O
  O48      1.0000 0.44009  0.72408  0.72310  Biso   1.000  O
  C187     1.0000 0.22452  0.98947  0.17730  Biso   1.000  C
  C188     1.0000 0.20491  0.01557  0.12990  Biso   1.000  C
  C189     1.0000 0.19786  0.04247  0.16390  Biso   1.000  C
  H157     1.0000 0.20810  0.04430  0.21780  Biso   1.000  H
  C190     1.0000 0.17600  0.06645  0.11940  Biso   1.000  C
  H158     1.0000 0.17180  0.08450  0.14310  Biso   1.000  H
  C191     1.0000 0.16032  0.06411  0.04030  Biso   1.000  C
  C192     1.0000 0.16780  0.03779  0.00710  Biso   1.000  C
  H159     1.0000 0.15860  0.03620  0.95320  Biso   1.000  H
  C193     1.0000 0.18859  0.01378  0.05120  Biso   1.000  C
  H160     1.0000 0.19170  0.99560  0.02700  Biso   1.000  H
  C194     1.0000 0.13410  0.08861  0.99110  Biso   1.000  C
  C195     1.0000 0.14998  0.10258  0.93860  Biso   1.000  C
  C196     1.0000 0.12239  0.12367  0.88900  Biso   1.000  C
  H161     1.0000 0.13390  0.13310  0.85230  Biso   1.000  H
  C197     1.0000 0.07930  0.13082  0.89290  Biso   1.000  C
  C198     1.0000 0.06270  0.11764  0.94820  Biso   1.000  C
  H162     1.0000 0.03320  0.12340  0.95210  Biso   1.000  H
  C199     1.0000 0.08860  0.09644  0.99700  Biso   1.000  C
  H163     1.0000 0.07700  0.08720  0.03370  Biso   1.000  H
  C200     1.0000 0.04882  0.15330  0.83720  Biso   1.000  C
  C201     1.0000 0.19820  0.09940  0.93670  Biso   1.000  C
  H164     1.0000 0.20030  0.08090  0.90890  Biso   1.000  H
  H165     1.0000 0.20510  0.11620  0.90720  Biso   1.000  H
  N25      1.0000 0.23400  0.09850  0.00950  Biso   1.000  N
  C202     1.0000 0.24280  0.12610  0.05710  Biso   1.000  C
  H166     1.0000 0.22670  0.14460  0.04780  Biso   1.000  H
  N26      1.0000 0.27420  0.11900  0.10840  Biso   1.000  N
  C203     1.0000 0.29400  0.08360  0.10830  Biso   1.000  C
  H167     1.0000 0.31800  0.07330  0.14570  Biso   1.000  H
  C204     1.0000 0.26460  0.07380  0.03660  Biso   1.000  C
  H168     1.0000 0.26510  0.05520  0.01230  Biso   1.000  H
  C205     1.0000 0.30110  0.13310  0.18680  Biso   1.000  C
  H169     1.0000 0.32580  0.11940  0.21520  Biso   1.000  H
  H170     1.0000 0.27940  0.13670  0.21590  Biso   1.000  H
  H171     1.0000 0.31520  0.15200  0.17860  Biso   1.000  H
  C206     1.0000 0.16896  0.93728  0.25780  Biso   1.000  C
  C207     1.0000 0.11821  0.93635  0.25620  Biso   1.000  C
  C208     1.0000 0.10187  0.95866  0.29360  Biso   1.000  C
  H172     1.0000 0.12270  0.97350  0.32150  Biso   1.000  H
  C209     1.0000 0.05533  0.95933  0.29030  Biso   1.000  C
  C210     1.0000 0.02543  0.93603  0.25240  Biso   1.000  C
  C211     1.0000 0.04273  0.91379  0.21770  Biso   1.000  C
  H173     1.0000 0.02280  0.89800  0.19280  Biso   1.000  H
  C212     1.0000 0.08901  0.91413  0.21890  Biso   1.000  C
  H174     1.0000 0.10050  0.89890  0.19370  Biso   1.000  H
  C213     1.0000 0.03560  0.98870  0.31350  Biso   1.000  C
  H175     1.0000 0.06130  0.00210  0.34100  Biso   1.000  H
  H176     1.0000 0.01540  0.99910  0.26800  Biso   1.000  H
  N27      1.0000 0.00890  0.97930  0.36220  Biso   1.000  N
  C214     1.0000 0.03290  0.96350  0.43630  Biso   1.000  C
  H177     1.0000 0.06530  0.95940  0.45870  Biso   1.000  H
  N28      1.0000 0.00320  0.95780  0.45840  Biso   1.000  N
  C215     1.0000 0.95190  0.97610  0.41670  Biso   1.000  C
  H178     1.0000 0.92450  0.97780  0.43150  Biso   1.000  H
  C216     1.0000 0.96310  0.98810  0.35220  Biso   1.000  C
  H179     1.0000 0.94350  0.99960  0.31160  Biso   1.000  H
  C217     1.0000 0.99080  0.93550  0.51300  Biso   1.000  C
  H180     1.0000 0.96120  0.94120  0.52060  Biso   1.000  H
  H181     1.0000 0.01560  0.93550  0.56210  Biso   1.000  H
  H182     1.0000 0.98790  0.91550  0.49090  Biso   1.000  H
  C218     1.0000 0.27911  0.89784  0.33370  Biso   1.000  C
  C219     1.0000 0.30079  0.87147  0.38450  Biso   1.000  C
  C220     1.0000 0.30092  0.84344  0.35360  Biso   1.000  C
  H183     1.0000 0.28500  0.84030  0.30110  Biso   1.000  H
  C221     1.0000 0.32280  0.82071  0.39600  Biso   1.000  C
  C222     1.0000 0.34610  0.82427  0.47340  Biso   1.000  C
  C223     1.0000 0.34810  0.85226  0.50530  Biso   1.000  C
  H184     1.0000 0.36480  0.85540  0.55750  Biso   1.000  H
  C224     1.0000 0.32540  0.87553  0.45980  Biso   1.000  C
  H185     1.0000 0.32680  0.89480  0.48130  Biso   1.000  H
  C225     1.0000 0.37450  0.79949  0.52050  Biso   1.000  C
  C226     1.0000 0.41560  0.79154  0.50800  Biso   1.000  C
  H186     1.0000 0.42760  0.80130  0.47240  Biso   1.000  H
  C227     1.0000 0.43900  0.76646  0.55540  Biso   1.000  C
  H187     1.0000 0.46530  0.75770  0.54550  Biso   1.000  H
  C228     1.0000 0.42413  0.75492  0.61500  Biso   1.000  C
  C229     1.0000 0.38620  0.76644  0.62910  Biso   1.000  C
  H188     1.0000 0.37610  0.75930  0.66990  Biso   1.000  H
  C230     1.0000 0.36220  0.78938  0.58120  Biso   1.000  C
  H189     1.0000 0.33620  0.79830  0.59170  Biso   1.000  H
  C231     1.0000 0.45274  0.73029  0.66350  Biso   1.000  C
  C232     1.0000 0.30250  0.79060  0.36880  Biso   1.000  C
  H190     1.0000 0.31750  0.78400  0.33070  Biso   1.000  H
  H191     1.0000 0.31410  0.77700  0.41290  Biso   1.000  H
  N29      1.0000 0.25180  0.78390  0.33520  Biso   1.000  N
  C233     1.0000 0.21810  0.78820  0.38070  Biso   1.000  C
  H192     1.0000 0.22360  0.79390  0.43230  Biso   1.000  H
  N30      1.0000 0.18470  0.78260  0.33500  Biso   1.000  N
  C234     1.0000 0.18750  0.76290  0.25510  Biso   1.000  C
  H193     1.0000 0.16430  0.75220  0.21730  Biso   1.000  H
  C235     1.0000 0.23580  0.76810  0.26490  Biso   1.000  C
  H194     1.0000 0.25330  0.76230  0.23220  Biso   1.000  H
  C236     1.0000 0.13760  0.77030  0.34420  Biso   1.000  C
  H195     1.0000 0.11620  0.76480  0.29420  Biso   1.000  H
  H196     1.0000 0.12300  0.78570  0.36700  Biso   1.000  H
  H197     1.0000 0.14420  0.75270  0.37730  Biso   1.000  H
  C237     1.0000 0.33337  0.94937  0.25160  Biso   1.000  C
  C238     1.0000 0.38292  0.95163  0.24960  Biso   1.000  C
  C239     1.0000 0.41514  0.96632  0.30320  Biso   1.000  C
  H198     1.0000 0.40770  0.97350  0.34650  Biso   1.000  H
  C240     1.0000 0.45926  0.97146  0.29760  Biso   1.000  C
  C241     1.0000 0.47520  0.95483  0.24970  Biso   1.000  C
  C242     1.0000 0.44391  0.93655  0.20160  Biso   1.000  C
  H199     1.0000 0.45360  0.92480  0.16630  Biso   1.000  H
  C243     1.0000 0.39818  0.93451  0.20260  Biso   1.000  C
  H200     1.0000 0.37740  0.92080  0.16970  Biso   1.000  H
  C244     1.0000 0.49750  0.99580  0.32070  Biso   1.000  C
  H201     1.0000 0.52140  0.98940  0.29730  Biso   1.000  H
  H202     1.0000 0.48270  0.01370  0.29190  Biso   1.000  H
  N31      1.0000 0.52390  0.00700  0.39440  Biso   1.000  N
  C245     1.0000 0.52420  0.04010  0.41120  Biso   1.000  C
  H203     1.0000 0.50730  0.05550  0.37910  Biso   1.000  H
  N32      1.0000 0.54970  0.04210  0.47200  Biso   1.000  N
  C246     1.0000 0.57770  0.00960  0.50760  Biso   1.000  C
  H204     1.0000 0.60320  0.00670  0.55260  Biso   1.000  H
  C247     1.0000 0.55390  0.98860  0.45400  Biso   1.000  C
  H205     1.0000 0.55670  0.96760  0.45660  Biso   1.000  H
  C248     1.0000 0.57440  0.06810  0.52440  Biso   1.000  C
  H206     1.0000 0.59740  0.06010  0.57010  Biso   1.000  H
  H207     1.0000 0.55110  0.07990  0.53900  Biso   1.000  H
  H208     1.0000 0.59030  0.08080  0.49690  Biso   1.000  H
  Cu13     1.0000 0.76140  0.53999  0.81689  Biso   1.000  Cu
  Cu14     1.0000 0.74096  0.57351  0.69381  Biso   1.000  Cu
  Cu15     1.0000 0.52950  0.30876  0.21053  Biso   1.000  Cu
  O49      1.0000 0.74159  0.50631  0.74754  Biso   1.000  O
  O50      1.0000 0.72184  0.53485  0.64357  Biso   1.000  O
  O51      1.0000 0.77958  0.57775  0.86920  Biso   1.000  O
  O52      1.0000 0.76368  0.60668  0.76366  Biso   1.000  O
  O53      1.0000 0.69583  0.54669  0.80762  Biso   1.000  O
  O54      1.0000 0.67903  0.57695  0.70691  Biso   1.000  O
  O55      1.0000 0.82355  0.53756  0.80497  Biso   1.000  O
  O56      1.0000 0.80605  0.56568  0.69915  Biso   1.000  O
  O57      1.0000 0.56469  0.33706  0.28820  Biso   1.000  O
  O58      1.0000 0.50985  0.34088  0.34613  Biso   1.000  O
  O59      1.0000 0.98672  0.77987  0.14623  Biso   1.000  O
  O60      1.0000 0.94009  0.77592  0.22310  Biso   1.000  O
  C249     1.0000 0.72452  0.51053  0.67730  Biso   1.000  C
  C250     1.0000 0.70491  0.48443  0.62990  Biso   1.000  C
  C251     1.0000 0.69786  0.45753  0.66390  Biso   1.000  C
  H209     1.0000 0.70810  0.45570  0.71780  Biso   1.000  H
  C252     1.0000 0.67600  0.43355  0.61940  Biso   1.000  C
  H210     1.0000 0.67180  0.41550  0.64310  Biso   1.000  H
  C253     1.0000 0.66032  0.43589  0.54030  Biso   1.000  C
  C254     1.0000 0.66780  0.46221  0.50710  Biso   1.000  C
  H211     1.0000 0.65860  0.46380  0.45320  Biso   1.000  H
  C255     1.0000 0.68859  0.48622  0.55120  Biso   1.000  C
  H212     1.0000 0.69170  0.50440  0.52700  Biso   1.000  H
  C256     1.0000 0.63410  0.41139  0.49110  Biso   1.000  C
  C257     1.0000 0.64998  0.39742  0.43860  Biso   1.000  C
  C258     1.0000 0.62239  0.37633  0.38900  Biso   1.000  C
  H213     1.0000 0.63390  0.36690  0.35230  Biso   1.000  H
  C259     1.0000 0.57930  0.36918  0.39290  Biso   1.000  C
  C260     1.0000 0.56270  0.38236  0.44820  Biso   1.000  C
  H214     1.0000 0.53320  0.37660  0.45210  Biso   1.000  H
  C261     1.0000 0.58860  0.40356  0.49700  Biso   1.000  C
  H215     1.0000 0.57700  0.41280  0.53370  Biso   1.000  H
  C262     1.0000 0.54882  0.34670  0.33720  Biso   1.000  C
  C263     1.0000 0.69820  0.40060  0.43670  Biso   1.000  C
  H216     1.0000 0.70030  0.41910  0.40890  Biso   1.000  H
  H217     1.0000 0.70510  0.38380  0.40720  Biso   1.000  H
  N33      1.0000 0.73400  0.40150  0.50950  Biso   1.000  N
  C264     1.0000 0.74280  0.37390  0.55710  Biso   1.000  C
  H218     1.0000 0.72670  0.35540  0.54780  Biso   1.000  H
  N34      1.0000 0.77420  0.38100  0.60840  Biso   1.000  N
  C265     1.0000 0.79400  0.41640  0.60830  Biso   1.000  C
  H219     1.0000 0.81800  0.42670  0.64570  Biso   1.000  H
  C266     1.0000 0.76460  0.42620  0.53660  Biso   1.000  C
  H220     1.0000 0.76510  0.44480  0.51230  Biso   1.000  H
  C267     1.0000 0.80110  0.36690  0.68680  Biso   1.000  C
  H221     1.0000 0.82580  0.38060  0.71520  Biso   1.000  H
  H222     1.0000 0.77940  0.36330  0.71590  Biso   1.000  H
  H223     1.0000 0.81520  0.34800  0.67860  Biso   1.000  H
  C268     1.0000 0.66896  0.56272  0.75780  Biso   1.000  C
  C269     1.0000 0.61821  0.56365  0.75620  Biso   1.000  C
  C270     1.0000 0.60187  0.54134  0.79360  Biso   1.000  C
  H224     1.0000 0.62270  0.52650  0.82150  Biso   1.000  H
  C271     1.0000 0.55533  0.54067  0.79030  Biso   1.000  C
  C272     1.0000 0.52543  0.56397  0.75240  Biso   1.000  C
  C273     1.0000 0.54273  0.58621  0.71770  Biso   1.000  C
  H225     1.0000 0.52280  0.60200  0.69280  Biso   1.000  H
  C274     1.0000 0.58901  0.58587  0.71890  Biso   1.000  C
  H226     1.0000 0.60050  0.60110  0.69370  Biso   1.000  H
  C275     1.0000 0.53560  0.51130  0.81350  Biso   1.000  C
  H227     1.0000 0.56130  0.49790  0.84100  Biso   1.000  H
  H228     1.0000 0.51540  0.50090  0.76800  Biso   1.000  H
  N35      1.0000 0.50890  0.52070  0.86220  Biso   1.000  N
  C276     1.0000 0.53290  0.53650  0.93630  Biso   1.000  C
  H229     1.0000 0.56530  0.54060  0.95870  Biso   1.000  H
  N36      1.0000 0.50320  0.54220  0.95840  Biso   1.000  N
  C277     1.0000 0.45190  0.52390  0.91670  Biso   1.000  C
  H230     1.0000 0.42450  0.52220  0.93150  Biso   1.000  H
  C278     1.0000 0.46310  0.51190  0.85220  Biso   1.000  C
  H231     1.0000 0.44350  0.50040  0.81160  Biso   1.000  H
  C279     1.0000 0.49080  0.56450  0.01300  Biso   1.000  C
  H232     1.0000 0.46120  0.55880  0.02060  Biso   1.000  H
  H233     1.0000 0.51560  0.56450  0.06210  Biso   1.000  H
  H234     1.0000 0.48790  0.58450  0.99090  Biso   1.000  H
  C280     1.0000 0.77911  0.60216  0.83370  Biso   1.000  C
  C281     1.0000 0.80079  0.62853  0.88450  Biso   1.000  C
  C282     1.0000 0.80092  0.65656  0.85360  Biso   1.000  C
  H235     1.0000 0.78500  0.65970  0.80110  Biso   1.000  H
  C283     1.0000 0.82280  0.67929  0.89600  Biso   1.000  C
  C284     1.0000 0.84610  0.67573  0.97340  Biso   1.000  C
  C285     1.0000 0.84810  0.64774  0.00530  Biso   1.000  C
  H236     1.0000 0.86480  0.64460  0.05750  Biso   1.000  H
  C286     1.0000 0.82540  0.62447  0.95980  Biso   1.000  C
  H237     1.0000 0.82680  0.60520  0.98130  Biso   1.000  H
  C287     1.0000 0.87450  0.70051  0.02050  Biso   1.000  C
  C288     1.0000 0.91560  0.70846  0.00800  Biso   1.000  C
  H238     1.0000 0.92760  0.69870  0.97240  Biso   1.000  H
  C289     1.0000 0.93900  0.73354  0.05540  Biso   1.000  C
  H239     1.0000 0.96530  0.74230  0.04550  Biso   1.000  H
  C290     1.0000 0.92413  0.74508  0.11500  Biso   1.000  C
  C291     1.0000 0.88620  0.73356  0.12910  Biso   1.000  C
  H240     1.0000 0.87610  0.74070  0.16990  Biso   1.000  H
  C292     1.0000 0.86220  0.71062  0.08120  Biso   1.000  C
  H241     1.0000 0.83620  0.70170  0.09170  Biso   1.000  H
  C293     1.0000 0.95274  0.76971  0.16350  Biso   1.000  C
  C294     1.0000 0.80250  0.70940  0.86880  Biso   1.000  C
  H242     1.0000 0.81750  0.71600  0.83070  Biso   1.000  H
  H243     1.0000 0.81410  0.72300  0.91290  Biso   1.000  H
  N37      1.0000 0.75180  0.71610  0.83520  Biso   1.000  N
  C295     1.0000 0.71810  0.71180  0.88070  Biso   1.000  C
  H244     1.0000 0.72360  0.70610  0.93230  Biso   1.000  H
  N38      1.0000 0.68470  0.71740  0.83500  Biso   1.000  N
  C296     1.0000 0.68750  0.73710  0.75510  Biso   1.000  C
  H245     1.0000 0.66430  0.74780  0.71730  Biso   1.000  H
  C297     1.0000 0.73580  0.73190  0.76490  Biso   1.000  C
  H246     1.0000 0.75330  0.73770  0.73220  Biso   1.000  H
  C298     1.0000 0.63760  0.72970  0.84420  Biso   1.000  C
  H247     1.0000 0.61620  0.73520  0.79420  Biso   1.000  H
  H248     1.0000 0.62300  0.71430  0.86700  Biso   1.000  H
  H249     1.0000 0.64420  0.74730  0.87730  Biso   1.000  H
  C299     1.0000 0.83337  0.55063  0.75160  Biso   1.000  C
  C300     1.0000 0.88292  0.54837  0.74960  Biso   1.000  C
  C301     1.0000 0.91514  0.53368  0.80320  Biso   1.000  C
  H250     1.0000 0.90770  0.52650  0.84650  Biso   1.000  H
  C302     1.0000 0.95926  0.52854  0.79760  Biso   1.000  C
  C303     1.0000 0.97520  0.54517  0.74970  Biso   1.000  C
  C304     1.0000 0.94391  0.56345  0.70160  Biso   1.000  C
  H251     1.0000 0.95360  0.57520  0.66630  Biso   1.000  H
  C305     1.0000 0.89818  0.56549  0.70260  Biso   1.000  C
  H252     1.0000 0.87740  0.57920  0.66970  Biso   1.000  H
  C306     1.0000 0.99750  0.50420  0.82070  Biso   1.000  C
  H253     1.0000 0.02140  0.51060  0.79730  Biso   1.000  H
  H254     1.0000 0.98270  0.48630  0.79190  Biso   1.000  H
  N39      1.0000 0.02390  0.49300  0.89440  Biso   1.000  N
  C307     1.0000 0.02420  0.45990  0.91120  Biso   1.000  C
  H255     1.0000 0.00730  0.44450  0.87910  Biso   1.000  H
  N40      1.0000 0.04970  0.45790  0.97200  Biso   1.000  N
  C308     1.0000 0.07770  0.49040  0.00760  Biso   1.000  C
  H256     1.0000 0.10320  0.49330  0.05260  Biso   1.000  H
  C309     1.0000 0.05390  0.51140  0.95400  Biso   1.000  C
  H257     1.0000 0.05670  0.53240  0.95660  Biso   1.000  H
  C310     1.0000 0.07440  0.43190  0.02440  Biso   1.000  C
  H258     1.0000 0.09740  0.43990  0.07010  Biso   1.000  H
  H259     1.0000 0.05110  0.42010  0.03900  Biso   1.000  H
  H260     1.0000 0.09030  0.41920  0.99690  Biso   1.000  H
  Cu16     1.0000 0.26140  0.03999  0.81689  Biso   1.000  Cu
  Cu17     1.0000 0.24096  0.07351  0.69381  Biso   1.000  Cu
  Cu18     1.0000 0.02950  0.80876  0.21053  Biso   1.000  Cu
  O61      1.0000 0.24159  0.00631  0.74754  Biso   1.000  O
  O62      1.0000 0.22184  0.03485  0.64357  Biso   1.000  O
  O63      1.0000 0.27958  0.07775  0.86920  Biso   1.000  O
  O64      1.0000 0.26368  0.10668  0.76366  Biso   1.000  O
  O65      1.0000 0.19583  0.04669  0.80762  Biso   1.000  O
  O66      1.0000 0.17903  0.07695  0.70691  Biso   1.000  O
  O67      1.0000 0.32355  0.03756  0.80497  Biso   1.000  O
  O68      1.0000 0.30605  0.06568  0.69915  Biso   1.000  O
  O69      1.0000 0.06469  0.83706  0.28820  Biso   1.000  O
  O70      1.0000 0.00985  0.84088  0.34613  Biso   1.000  O
  O71      1.0000 0.48672  0.27987  0.14623  Biso   1.000  O
  O72      1.0000 0.44009  0.27592  0.22310  Biso   1.000  O
  C311     1.0000 0.22452  0.01053  0.67730  Biso   1.000  C
  C312     1.0000 0.20491  0.98443  0.62990  Biso   1.000  C
  C313     1.0000 0.19786  0.95753  0.66390  Biso   1.000  C
  H261     1.0000 0.20810  0.95570  0.71780  Biso   1.000  H
  C314     1.0000 0.17600  0.93355  0.61940  Biso   1.000  C
  H262     1.0000 0.17180  0.91550  0.64310  Biso   1.000  H
  C315     1.0000 0.16032  0.93589  0.54030  Biso   1.000  C
  C316     1.0000 0.16780  0.96221  0.50710  Biso   1.000  C
  H263     1.0000 0.15860  0.96380  0.45320  Biso   1.000  H
  C317     1.0000 0.18859  0.98622  0.55120  Biso   1.000  C
  H264     1.0000 0.19170  0.00440  0.52700  Biso   1.000  H
  C318     1.0000 0.13410  0.91139  0.49110  Biso   1.000  C
  C319     1.0000 0.14998  0.89742  0.43860  Biso   1.000  C
  C320     1.0000 0.12239  0.87633  0.38900  Biso   1.000  C
  H265     1.0000 0.13390  0.86690  0.35230  Biso   1.000  H
  C321     1.0000 0.07930  0.86918  0.39290  Biso   1.000  C
  C322     1.0000 0.06270  0.88236  0.44820  Biso   1.000  C
  H266     1.0000 0.03320  0.87660  0.45210  Biso   1.000  H
  C323     1.0000 0.08860  0.90356  0.49700  Biso   1.000  C
  H267     1.0000 0.07700  0.91280  0.53370  Biso   1.000  H
  C324     1.0000 0.04882  0.84670  0.33720  Biso   1.000  C
  C325     1.0000 0.19820  0.90060  0.43670  Biso   1.000  C
  H268     1.0000 0.20030  0.91910  0.40890  Biso   1.000  H
  H269     1.0000 0.20510  0.88380  0.40720  Biso   1.000  H
  N41      1.0000 0.23400  0.90150  0.50950  Biso   1.000  N
  C326     1.0000 0.24280  0.87390  0.55710  Biso   1.000  C
  H270     1.0000 0.22670  0.85540  0.54780  Biso   1.000  H
  N42      1.0000 0.27420  0.88100  0.60840  Biso   1.000  N
  C327     1.0000 0.29400  0.91640  0.60830  Biso   1.000  C
  H271     1.0000 0.31800  0.92670  0.64570  Biso   1.000  H
  C328     1.0000 0.26460  0.92620  0.53660  Biso   1.000  C
  H272     1.0000 0.26510  0.94480  0.51230  Biso   1.000  H
  C329     1.0000 0.30110  0.86690  0.68680  Biso   1.000  C
  H273     1.0000 0.32580  0.88060  0.71520  Biso   1.000  H
  H274     1.0000 0.27940  0.86330  0.71590  Biso   1.000  H
  H275     1.0000 0.31520  0.84800  0.67860  Biso   1.000  H
  C330     1.0000 0.16896  0.06272  0.75780  Biso   1.000  C
  C331     1.0000 0.11821  0.06365  0.75620  Biso   1.000  C
  C332     1.0000 0.10187  0.04134  0.79360  Biso   1.000  C
  H276     1.0000 0.12270  0.02650  0.82150  Biso   1.000  H
  C333     1.0000 0.05533  0.04067  0.79030  Biso   1.000  C
  C334     1.0000 0.02543  0.06397  0.75240  Biso   1.000  C
  C335     1.0000 0.04273  0.08621  0.71770  Biso   1.000  C
  H277     1.0000 0.02280  0.10200  0.69280  Biso   1.000  H
  C336     1.0000 0.08901  0.08587  0.71890  Biso   1.000  C
  H278     1.0000 0.10050  0.10110  0.69370  Biso   1.000  H
  C337     1.0000 0.03560  0.01130  0.81350  Biso   1.000  C
  H279     1.0000 0.06130  0.99790  0.84100  Biso   1.000  H
  H280     1.0000 0.01540  0.00090  0.76800  Biso   1.000  H
  N43      1.0000 0.00890  0.02070  0.86220  Biso   1.000  N
  C338     1.0000 0.03290  0.03650  0.93630  Biso   1.000  C
  H281     1.0000 0.06530  0.04060  0.95870  Biso   1.000  H
  N44      1.0000 0.00320  0.04220  0.95840  Biso   1.000  N
  C339     1.0000 0.95190  0.02390  0.91670  Biso   1.000  C
  H282     1.0000 0.92450  0.02220  0.93150  Biso   1.000  H
  C340     1.0000 0.96310  0.01190  0.85220  Biso   1.000  C
  H283     1.0000 0.94350  0.00040  0.81160  Biso   1.000  H
  C341     1.0000 0.99080  0.06450  0.01300  Biso   1.000  C
  H284     1.0000 0.96120  0.05880  0.02060  Biso   1.000  H
  H285     1.0000 0.01560  0.06450  0.06210  Biso   1.000  H
  H286     1.0000 0.98790  0.08450  0.99090  Biso   1.000  H
  C342     1.0000 0.27911  0.10216  0.83370  Biso   1.000  C
  C343     1.0000 0.30079  0.12853  0.88450  Biso   1.000  C
  C344     1.0000 0.30092  0.15656  0.85360  Biso   1.000  C
  H287     1.0000 0.28500  0.15970  0.80110  Biso   1.000  H
  C345     1.0000 0.32280  0.17929  0.89600  Biso   1.000  C
  C346     1.0000 0.34610  0.17573  0.97340  Biso   1.000  C
  C347     1.0000 0.34810  0.14774  0.00530  Biso   1.000  C
  H288     1.0000 0.36480  0.14460  0.05750  Biso   1.000  H
  C348     1.0000 0.32540  0.12447  0.95980  Biso   1.000  C
  H289     1.0000 0.32680  0.10520  0.98130  Biso   1.000  H
  C349     1.0000 0.37450  0.20051  0.02050  Biso   1.000  C
  C350     1.0000 0.41560  0.20846  0.00800  Biso   1.000  C
  H290     1.0000 0.42760  0.19870  0.97240  Biso   1.000  H
  C351     1.0000 0.43900  0.23354  0.05540  Biso   1.000  C
  H291     1.0000 0.46530  0.24230  0.04550  Biso   1.000  H
  C352     1.0000 0.42413  0.24508  0.11500  Biso   1.000  C
  C353     1.0000 0.38620  0.23356  0.12910  Biso   1.000  C
  H292     1.0000 0.37610  0.24070  0.16990  Biso   1.000  H
  C354     1.0000 0.36220  0.21062  0.08120  Biso   1.000  C
  H293     1.0000 0.33620  0.20170  0.09170  Biso   1.000  H
  C355     1.0000 0.45274  0.26971  0.16350  Biso   1.000  C
  C356     1.0000 0.30250  0.20940  0.86880  Biso   1.000  C
  H294     1.0000 0.31750  0.21600  0.83070  Biso   1.000  H
  H295     1.0000 0.31410  0.22300  0.91290  Biso   1.000  H
  N45      1.0000 0.25180  0.21610  0.83520  Biso   1.000  N
  C357     1.0000 0.21810  0.21180  0.88070  Biso   1.000  C
  H296     1.0000 0.22360  0.20610  0.93230  Biso   1.000  H
  N46      1.0000 0.18470  0.21740  0.83500  Biso   1.000  N
  C358     1.0000 0.18750  0.23710  0.75510  Biso   1.000  C
  H297     1.0000 0.16430  0.24780  0.71730  Biso   1.000  H
  C359     1.0000 0.23580  0.23190  0.76490  Biso   1.000  C
  H298     1.0000 0.25330  0.23770  0.73220  Biso   1.000  H
  C360     1.0000 0.13760  0.22970  0.84420  Biso   1.000  C
  H299     1.0000 0.11620  0.23520  0.79420  Biso   1.000  H
  H300     1.0000 0.12300  0.21430  0.86700  Biso   1.000  H
  H301     1.0000 0.14420  0.24730  0.87730  Biso   1.000  H
  C361     1.0000 0.33337  0.05063  0.75160  Biso   1.000  C
  C362     1.0000 0.38292  0.04837  0.74960  Biso   1.000  C
  C363     1.0000 0.41514  0.03368  0.80320  Biso   1.000  C
  H302     1.0000 0.40770  0.02650  0.84650  Biso   1.000  H
  C364     1.0000 0.45926  0.02854  0.79760  Biso   1.000  C
  C365     1.0000 0.47520  0.04517  0.74970  Biso   1.000  C
  C366     1.0000 0.44391  0.06345  0.70160  Biso   1.000  C
  H303     1.0000 0.45360  0.07520  0.66630  Biso   1.000  H
  C367     1.0000 0.39818  0.06549  0.70260  Biso   1.000  C
  H304     1.0000 0.37740  0.07920  0.66970  Biso   1.000  H
  C368     1.0000 0.49750  0.00420  0.82070  Biso   1.000  C
  H305     1.0000 0.52140  0.01060  0.79730  Biso   1.000  H
  H306     1.0000 0.48270  0.98630  0.79190  Biso   1.000  H
  N47      1.0000 0.52390  0.99300  0.89440  Biso   1.000  N
  C369     1.0000 0.52420  0.95990  0.91120  Biso   1.000  C
  H307     1.0000 0.50730  0.94450  0.87910  Biso   1.000  H
  N48      1.0000 0.54970  0.95790  0.97200  Biso   1.000  N
  C370     1.0000 0.57770  0.99040  0.00760  Biso   1.000  C
  H308     1.0000 0.60320  0.99330  0.05260  Biso   1.000  H
  C371     1.0000 0.55390  0.01140  0.95400  Biso   1.000  C
  H309     1.0000 0.55670  0.03240  0.95660  Biso   1.000  H
  C372     1.0000 0.57440  0.93190  0.02440  Biso   1.000  C
  H310     1.0000 0.59740  0.93990  0.07010  Biso   1.000  H
  H311     1.0000 0.55110  0.92010  0.03900  Biso   1.000  H
  H312     1.0000 0.59030  0.91920  0.99690  Biso   1.000  H
  Cu19     1.0000 0.23860  0.53999  0.68311  Biso   1.000  Cu
  Cu20     1.0000 0.25904  0.57351  0.80619  Biso   1.000  Cu
  Cu21     1.0000 0.47050  0.30876  0.28947  Biso   1.000  Cu
  O73      1.0000 0.25841  0.50631  0.75246  Biso   1.000  O
  O74      1.0000 0.27816  0.53485  0.85643  Biso   1.000  O
  O75      1.0000 0.22042  0.57775  0.63080  Biso   1.000  O
  O76      1.0000 0.23632  0.60668  0.73634  Biso   1.000  O
  O77      1.0000 0.30417  0.54669  0.69238  Biso   1.000  O
  O78      1.0000 0.32097  0.57695  0.79309  Biso   1.000  O
  O79      1.0000 0.17645  0.53756  0.69503  Biso   1.000  O
  O80      1.0000 0.19395  0.56568  0.80085  Biso   1.000  O
  O81      1.0000 0.43531  0.33706  0.21180  Biso   1.000  O
  O82      1.0000 0.49015  0.34088  0.15387  Biso   1.000  O
  O83      1.0000 0.01328  0.77987  0.35377  Biso   1.000  O
  O84      1.0000 0.05991  0.77592  0.27690  Biso   1.000  O
  C373     1.0000 0.27548  0.51053  0.82270  Biso   1.000  C
  C374     1.0000 0.29509  0.48443  0.87010  Biso   1.000  C
  C375     1.0000 0.30214  0.45753  0.83610  Biso   1.000  C
  H313     1.0000 0.29190  0.45570  0.78220  Biso   1.000  H
  C376     1.0000 0.32400  0.43355  0.88060  Biso   1.000  C
  H314     1.0000 0.32820  0.41550  0.85690  Biso   1.000  H
  C377     1.0000 0.33968  0.43589  0.95970  Biso   1.000  C
  C378     1.0000 0.33220  0.46221  0.99290  Biso   1.000  C
  H315     1.0000 0.34140  0.46380  0.04680  Biso   1.000  H
  C379     1.0000 0.31141  0.48622  0.94880  Biso   1.000  C
  H316     1.0000 0.30830  0.50440  0.97300  Biso   1.000  H
  C380     1.0000 0.36590  0.41139  0.00890  Biso   1.000  C
  C381     1.0000 0.35002  0.39742  0.06140  Biso   1.000  C
  C382     1.0000 0.37761  0.37633  0.11100  Biso   1.000  C
  H317     1.0000 0.36610  0.36690  0.14770  Biso   1.000  H
  C383     1.0000 0.42070  0.36918  0.10710  Biso   1.000  C
  C384     1.0000 0.43730  0.38236  0.05180  Biso   1.000  C
  H318     1.0000 0.46680  0.37660  0.04790  Biso   1.000  H
  C385     1.0000 0.41140  0.40356  0.00300  Biso   1.000  C
  H319     1.0000 0.42300  0.41280  0.96630  Biso   1.000  H
  C386     1.0000 0.45118  0.34670  0.16280  Biso   1.000  C
  C387     1.0000 0.30180  0.40060  0.06330  Biso   1.000  C
  H320     1.0000 0.29970  0.41910  0.09110  Biso   1.000  H
  H321     1.0000 0.29490  0.38380  0.09280  Biso   1.000  H
  N49      1.0000 0.26600  0.40150  0.99050  Biso   1.000  N
  C388     1.0000 0.25720  0.37390  0.94290  Biso   1.000  C
  H322     1.0000 0.27330  0.35540  0.95220  Biso   1.000  H
  N50      1.0000 0.22580  0.38100  0.89160  Biso   1.000  N
  C389     1.0000 0.20600  0.41640  0.89170  Biso   1.000  C
  H323     1.0000 0.18200  0.42670  0.85430  Biso   1.000  H
  C390     1.0000 0.23540  0.42620  0.96340  Biso   1.000  C
  H324     1.0000 0.23490  0.44480  0.98770  Biso   1.000  H
  C391     1.0000 0.19890  0.36690  0.81320  Biso   1.000  C
  H325     1.0000 0.17420  0.38060  0.78480  Biso   1.000  H
  H326     1.0000 0.22060  0.36330  0.78410  Biso   1.000  H
  H327     1.0000 0.18480  0.34800  0.82140  Biso   1.000  H
  C392     1.0000 0.33104  0.56272  0.74220  Biso   1.000  C
  C393     1.0000 0.38179  0.56365  0.74380  Biso   1.000  C
  C394     1.0000 0.39813  0.54134  0.70640  Biso   1.000  C
  H328     1.0000 0.37730  0.52650  0.67850  Biso   1.000  H
  C395     1.0000 0.44467  0.54067  0.70970  Biso   1.000  C
  C396     1.0000 0.47457  0.56397  0.74760  Biso   1.000  C
  C397     1.0000 0.45727  0.58621  0.78230  Biso   1.000  C
  H329     1.0000 0.47720  0.60200  0.80720  Biso   1.000  H
  C398     1.0000 0.41099  0.58587  0.78110  Biso   1.000  C
  H330     1.0000 0.39950  0.60110  0.80630  Biso   1.000  H
  C399     1.0000 0.46440  0.51130  0.68650  Biso   1.000  C
  H331     1.0000 0.43870  0.49790  0.65900  Biso   1.000  H
  H332     1.0000 0.48460  0.50090  0.73200  Biso   1.000  H
  N51      1.0000 0.49110  0.52070  0.63780  Biso   1.000  N
  C400     1.0000 0.46710  0.53650  0.56370  Biso   1.000  C
  H333     1.0000 0.43470  0.54060  0.54130  Biso   1.000  H
  N52      1.0000 0.49680  0.54220  0.54160  Biso   1.000  N
  C401     1.0000 0.54810  0.52390  0.58330  Biso   1.000  C
  H334     1.0000 0.57550  0.52220  0.56850  Biso   1.000  H
  C402     1.0000 0.53690  0.51190  0.64780  Biso   1.000  C
  H335     1.0000 0.55650  0.50040  0.68840  Biso   1.000  H
  C403     1.0000 0.50920  0.56450  0.48700  Biso   1.000  C
  H336     1.0000 0.53880  0.55880  0.47940  Biso   1.000  H
  H337     1.0000 0.48440  0.56450  0.43790  Biso   1.000  H
  H338     1.0000 0.51210  0.58450  0.50910  Biso   1.000  H
  C404     1.0000 0.22089  0.60216  0.66630  Biso   1.000  C
  C405     1.0000 0.19921  0.62853  0.61550  Biso   1.000  C
  C406     1.0000 0.19908  0.65656  0.64640  Biso   1.000  C
  H339     1.0000 0.21500  0.65970  0.69890  Biso   1.000  H
  C407     1.0000 0.17720  0.67929  0.60400  Biso   1.000  C
  C408     1.0000 0.15390  0.67573  0.52660  Biso   1.000  C
  C409     1.0000 0.15190  0.64774  0.49470  Biso   1.000  C
  H340     1.0000 0.13520  0.64460  0.44250  Biso   1.000  H
  C410     1.0000 0.17460  0.62447  0.54020  Biso   1.000  C
  H341     1.0000 0.17320  0.60520  0.51870  Biso   1.000  H
  C411     1.0000 0.12550  0.70051  0.47950  Biso   1.000  C
  C412     1.0000 0.08440  0.70846  0.49200  Biso   1.000  C
  H342     1.0000 0.07240  0.69870  0.52760  Biso   1.000  H
  C413     1.0000 0.06100  0.73354  0.44460  Biso   1.000  C
  H343     1.0000 0.03470  0.74230  0.45450  Biso   1.000  H
  C414     1.0000 0.07587  0.74508  0.38500  Biso   1.000  C
  C415     1.0000 0.11380  0.73356  0.37090  Biso   1.000  C
  H344     1.0000 0.12390  0.74070  0.33010  Biso   1.000  H
  C416     1.0000 0.13780  0.71062  0.41880  Biso   1.000  C
  H345     1.0000 0.16380  0.70170  0.40830  Biso   1.000  H
  C417     1.0000 0.04726  0.76971  0.33650  Biso   1.000  C
  C418     1.0000 0.19750  0.70940  0.63120  Biso   1.000  C
  H346     1.0000 0.18250  0.71600  0.66930  Biso   1.000  H
  H347     1.0000 0.18590  0.72300  0.58710  Biso   1.000  H
  N53      1.0000 0.24820  0.71610  0.66480  Biso   1.000  N
  C419     1.0000 0.28190  0.71180  0.61930  Biso   1.000  C
  H348     1.0000 0.27640  0.70610  0.56770  Biso   1.000  H
  N54      1.0000 0.31530  0.71740  0.66500  Biso   1.000  N
  C420     1.0000 0.31250  0.73710  0.74490  Biso   1.000  C
  H349     1.0000 0.33570  0.74780  0.78270  Biso   1.000  H
  C421     1.0000 0.26420  0.73190  0.73510  Biso   1.000  C
  H350     1.0000 0.24670  0.73770  0.76780  Biso   1.000  H
  C422     1.0000 0.36240  0.72970  0.65580  Biso   1.000  C
  H351     1.0000 0.38380  0.73520  0.70580  Biso   1.000  H
  H352     1.0000 0.37700  0.71430  0.63300  Biso   1.000  H
  H353     1.0000 0.35580  0.74730  0.62270  Biso   1.000  H
  C423     1.0000 0.16663  0.55063  0.74840  Biso   1.000  C
  C424     1.0000 0.11708  0.54837  0.75040  Biso   1.000  C
  C425     1.0000 0.08486  0.53368  0.69680  Biso   1.000  C
  H354     1.0000 0.09230  0.52650  0.65350  Biso   1.000  H
  C426     1.0000 0.04074  0.52854  0.70240  Biso   1.000  C
  C427     1.0000 0.02480  0.54517  0.75030  Biso   1.000  C
  C428     1.0000 0.05609  0.56345  0.79840  Biso   1.000  C
  H355     1.0000 0.04640  0.57520  0.83370  Biso   1.000  H
  C429     1.0000 0.10182  0.56549  0.79740  Biso   1.000  C
  H356     1.0000 0.12260  0.57920  0.83030  Biso   1.000  H
  C430     1.0000 0.00250  0.50420  0.67930  Biso   1.000  C
  H357     1.0000 0.97860  0.51060  0.70270  Biso   1.000  H
  H358     1.0000 0.01730  0.48630  0.70810  Biso   1.000  H
  N55      1.0000 0.97610  0.49300  0.60560  Biso   1.000  N
  C431     1.0000 0.97580  0.45990  0.58880  Biso   1.000  C
  H359     1.0000 0.99270  0.44450  0.62090  Biso   1.000  H
  N56      1.0000 0.95030  0.45790  0.52800  Biso   1.000  N
  C432     1.0000 0.92230  0.49040  0.49240  Biso   1.000  C
  H360     1.0000 0.89680  0.49330  0.44740  Biso   1.000  H
  C433     1.0000 0.94610  0.51140  0.54600  Biso   1.000  C
  H361     1.0000 0.94330  0.53240  0.54340  Biso   1.000  H
  C434     1.0000 0.92560  0.43190  0.47560  Biso   1.000  C
  H362     1.0000 0.90260  0.43990  0.42990  Biso   1.000  H
  H363     1.0000 0.94890  0.42010  0.46100  Biso   1.000  H
  H364     1.0000 0.90970  0.41920  0.50310  Biso   1.000  H
  Cu22     1.0000 0.73860  0.03999  0.68311  Biso   1.000  Cu
  Cu23     1.0000 0.75904  0.07351  0.80619  Biso   1.000  Cu
  Cu24     1.0000 0.97050  0.80876  0.28947  Biso   1.000  Cu
  O85      1.0000 0.75841  0.00631  0.75246  Biso   1.000  O
  O86      1.0000 0.77816  0.03485  0.85643  Biso   1.000  O
  O87      1.0000 0.72042  0.07775  0.63080  Biso   1.000  O
  O88      1.0000 0.73632  0.10668  0.73634  Biso   1.000  O
  O89      1.0000 0.80417  0.04669  0.69238  Biso   1.000  O
  O90      1.0000 0.82097  0.07695  0.79309  Biso   1.000  O
  O91      1.0000 0.67645  0.03756  0.69503  Biso   1.000  O
  O92      1.0000 0.69395  0.06568  0.80085  Biso   1.000  O
  O93      1.0000 0.93531  0.83706  0.21180  Biso   1.000  O
  O94      1.0000 0.99015  0.84088  0.15387  Biso   1.000  O
  O95      1.0000 0.51328  0.27987  0.35377  Biso   1.000  O
  O96      1.0000 0.55991  0.27592  0.27690  Biso   1.000  O
  C435     1.0000 0.77548  0.01053  0.82270  Biso   1.000  C
  C436     1.0000 0.79509  0.98443  0.87010  Biso   1.000  C
  C437     1.0000 0.80214  0.95753  0.83610  Biso   1.000  C
  H365     1.0000 0.79190  0.95570  0.78220  Biso   1.000  H
  C438     1.0000 0.82400  0.93355  0.88060  Biso   1.000  C
  H366     1.0000 0.82820  0.91550  0.85690  Biso   1.000  H
  C439     1.0000 0.83968  0.93589  0.95970  Biso   1.000  C
  C440     1.0000 0.83220  0.96221  0.99290  Biso   1.000  C
  H367     1.0000 0.84140  0.96380  0.04680  Biso   1.000  H
  C441     1.0000 0.81141  0.98622  0.94880  Biso   1.000  C
  H368     1.0000 0.80830  0.00440  0.97300  Biso   1.000  H
  C442     1.0000 0.86590  0.91139  0.00890  Biso   1.000  C
  C443     1.0000 0.85002  0.89742  0.06140  Biso   1.000  C
  C444     1.0000 0.87761  0.87633  0.11100  Biso   1.000  C
  H369     1.0000 0.86610  0.86690  0.14770  Biso   1.000  H
  C445     1.0000 0.92070  0.86918  0.10710  Biso   1.000  C
  C446     1.0000 0.93730  0.88236  0.05180  Biso   1.000  C
  H370     1.0000 0.96680  0.87660  0.04790  Biso   1.000  H
  C447     1.0000 0.91140  0.90356  0.00300  Biso   1.000  C
  H371     1.0000 0.92300  0.91280  0.96630  Biso   1.000  H
  C448     1.0000 0.95118  0.84670  0.16280  Biso   1.000  C
  C449     1.0000 0.80180  0.90060  0.06330  Biso   1.000  C
  H372     1.0000 0.79970  0.91910  0.09110  Biso   1.000  H
  H373     1.0000 0.79490  0.88380  0.09280  Biso   1.000  H
  N57      1.0000 0.76600  0.90150  0.99050  Biso   1.000  N
  C450     1.0000 0.75720  0.87390  0.94290  Biso   1.000  C
  H374     1.0000 0.77330  0.85540  0.95220  Biso   1.000  H
  N58      1.0000 0.72580  0.88100  0.89160  Biso   1.000  N
  C451     1.0000 0.70600  0.91640  0.89170  Biso   1.000  C
  H375     1.0000 0.68200  0.92670  0.85430  Biso   1.000  H
  C452     1.0000 0.73540  0.92620  0.96340  Biso   1.000  C
  H376     1.0000 0.73490  0.94480  0.98770  Biso   1.000  H
  C453     1.0000 0.69890  0.86690  0.81320  Biso   1.000  C
  H377     1.0000 0.67420  0.88060  0.78480  Biso   1.000  H
  H378     1.0000 0.72060  0.86330  0.78410  Biso   1.000  H
  H379     1.0000 0.68480  0.84800  0.82140  Biso   1.000  H
  C454     1.0000 0.83104  0.06272  0.74220  Biso   1.000  C
  C455     1.0000 0.88179  0.06365  0.74380  Biso   1.000  C
  C456     1.0000 0.89813  0.04134  0.70640  Biso   1.000  C
  H380     1.0000 0.87730  0.02650  0.67850  Biso   1.000  H
  C457     1.0000 0.94467  0.04067  0.70970  Biso   1.000  C
  C458     1.0000 0.97457  0.06397  0.74760  Biso   1.000  C
  C459     1.0000 0.95727  0.08621  0.78230  Biso   1.000  C
  H381     1.0000 0.97720  0.10200  0.80720  Biso   1.000  H
  C460     1.0000 0.91099  0.08587  0.78110  Biso   1.000  C
  H382     1.0000 0.89950  0.10110  0.80630  Biso   1.000  H
  C461     1.0000 0.96440  0.01130  0.68650  Biso   1.000  C
  H383     1.0000 0.93870  0.99790  0.65900  Biso   1.000  H
  H384     1.0000 0.98460  0.00090  0.73200  Biso   1.000  H
  N59      1.0000 0.99110  0.02070  0.63780  Biso   1.000  N
  C462     1.0000 0.96710  0.03650  0.56370  Biso   1.000  C
  H385     1.0000 0.93470  0.04060  0.54130  Biso   1.000  H
  N60      1.0000 0.99680  0.04220  0.54160  Biso   1.000  N
  C463     1.0000 0.04810  0.02390  0.58330  Biso   1.000  C
  H386     1.0000 0.07550  0.02220  0.56850  Biso   1.000  H
  C464     1.0000 0.03690  0.01190  0.64780  Biso   1.000  C
  H387     1.0000 0.05650  0.00040  0.68840  Biso   1.000  H
  C465     1.0000 0.00920  0.06450  0.48700  Biso   1.000  C
  H388     1.0000 0.03880  0.05880  0.47940  Biso   1.000  H
  H389     1.0000 0.98440  0.06450  0.43790  Biso   1.000  H
  H390     1.0000 0.01210  0.08450  0.50910  Biso   1.000  H
  C466     1.0000 0.72089  0.10216  0.66630  Biso   1.000  C
  C467     1.0000 0.69921  0.12853  0.61550  Biso   1.000  C
  C468     1.0000 0.69908  0.15656  0.64640  Biso   1.000  C
  H391     1.0000 0.71500  0.15970  0.69890  Biso   1.000  H
  C469     1.0000 0.67720  0.17929  0.60400  Biso   1.000  C
  C470     1.0000 0.65390  0.17573  0.52660  Biso   1.000  C
  C471     1.0000 0.65190  0.14774  0.49470  Biso   1.000  C
  H392     1.0000 0.63520  0.14460  0.44250  Biso   1.000  H
  C472     1.0000 0.67460  0.12447  0.54020  Biso   1.000  C
  H393     1.0000 0.67320  0.10520  0.51870  Biso   1.000  H
  C473     1.0000 0.62550  0.20051  0.47950  Biso   1.000  C
  C474     1.0000 0.58440  0.20846  0.49200  Biso   1.000  C
  H394     1.0000 0.57240  0.19870  0.52760  Biso   1.000  H
  C475     1.0000 0.56100  0.23354  0.44460  Biso   1.000  C
  H395     1.0000 0.53470  0.24230  0.45450  Biso   1.000  H
  C476     1.0000 0.57587  0.24508  0.38500  Biso   1.000  C
  C477     1.0000 0.61380  0.23356  0.37090  Biso   1.000  C
  H396     1.0000 0.62390  0.24070  0.33010  Biso   1.000  H
  C478     1.0000 0.63780  0.21062  0.41880  Biso   1.000  C
  H397     1.0000 0.66380  0.20170  0.40830  Biso   1.000  H
  C479     1.0000 0.54726  0.26971  0.33650  Biso   1.000  C
  C480     1.0000 0.69750  0.20940  0.63120  Biso   1.000  C
  H398     1.0000 0.68250  0.21600  0.66930  Biso   1.000  H
  H399     1.0000 0.68590  0.22300  0.58710  Biso   1.000  H
  N61      1.0000 0.74820  0.21610  0.66480  Biso   1.000  N
  C481     1.0000 0.78190  0.21180  0.61930  Biso   1.000  C
  H400     1.0000 0.77640  0.20610  0.56770  Biso   1.000  H
  N62      1.0000 0.81530  0.21740  0.66500  Biso   1.000  N
  C482     1.0000 0.81250  0.23710  0.74490  Biso   1.000  C
  H401     1.0000 0.83570  0.24780  0.78270  Biso   1.000  H
  C483     1.0000 0.76420  0.23190  0.73510  Biso   1.000  C
  H402     1.0000 0.74670  0.23770  0.76780  Biso   1.000  H
  C484     1.0000 0.86240  0.22970  0.65580  Biso   1.000  C
  H403     1.0000 0.88380  0.23520  0.70580  Biso   1.000  H
  H404     1.0000 0.87700  0.21430  0.63300  Biso   1.000  H
  H405     1.0000 0.85580  0.24730  0.62270  Biso   1.000  H
  C485     1.0000 0.66663  0.05063  0.74840  Biso   1.000  C
  C486     1.0000 0.61708  0.04837  0.75040  Biso   1.000  C
  C487     1.0000 0.58486  0.03368  0.69680  Biso   1.000  C
  H406     1.0000 0.59230  0.02650  0.65350  Biso   1.000  H
  C488     1.0000 0.54074  0.02854  0.70240  Biso   1.000  C
  C489     1.0000 0.52480  0.04517  0.75030  Biso   1.000  C
  C490     1.0000 0.55609  0.06345  0.79840  Biso   1.000  C
  H407     1.0000 0.54640  0.07520  0.83370  Biso   1.000  H
  C491     1.0000 0.60182  0.06549  0.79740  Biso   1.000  C
  H408     1.0000 0.62260  0.07920  0.83030  Biso   1.000  H
  C492     1.0000 0.50250  0.00420  0.67930  Biso   1.000  C
  H409     1.0000 0.47860  0.01060  0.70270  Biso   1.000  H
  H410     1.0000 0.51730  0.98630  0.70810  Biso   1.000  H
  N63      1.0000 0.47610  0.99300  0.60560  Biso   1.000  N
  C493     1.0000 0.47580  0.95990  0.58880  Biso   1.000  C
  H411     1.0000 0.49270  0.94450  0.62090  Biso   1.000  H
  N64      1.0000 0.45030  0.95790  0.52800  Biso   1.000  N
  C494     1.0000 0.42230  0.99040  0.49240  Biso   1.000  C
  H412     1.0000 0.39680  0.99330  0.44740  Biso   1.000  H
  C495     1.0000 0.44610  0.01140  0.54600  Biso   1.000  C
  H413     1.0000 0.44330  0.03240  0.54340  Biso   1.000  H
  C496     1.0000 0.42560  0.93190  0.47560  Biso   1.000  C
  H414     1.0000 0.40260  0.93990  0.42990  Biso   1.000  H
  H415     1.0000 0.44890  0.92010  0.46100  Biso   1.000  H
  H416     1.0000 0.40970  0.91920  0.50310  Biso   1.000  H
