data_image0
_cell_length_a       35.963
_cell_length_b       35.963
_cell_length_c       31.9
_cell_angle_alpha    90
_cell_angle_beta     90
_cell_angle_gamma    90

_symmetry_space_group_name_H-M    "P 1"
_symmetry_int_tables_number       1

loop_
  _symmetry_equiv_pos_as_xyz
  'x, y, z'

loop_
  _atom_site_label
  _atom_site_occupancy
  _atom_site_fract_x
  _atom_site_fract_y
  _atom_site_fract_z
  _atom_site_thermal_displace_type
  _atom_site_B_iso_or_equiv
  _atom_site_type_symbol
  O1       1.0000 0.28726  0.15382  0.19726  Biso   1.000  O
  O2       1.0000 0.29765  0.10994  0.24460  Biso   1.000  O
  O3       1.0000 0.25007  0.12244  0.05283  Biso   1.000  O
  O4       1.0000 0.21087  0.07532  0.04879  Biso   1.000  O
  O5       1.0000 0.21085  0.76748  0.18331  Biso   1.000  O
  O6       1.0000 0.24478  0.80270  0.22550  Biso   1.000  O
  O7       1.0000 0.15687  0.82693  0.05479  Biso   1.000  O
  O8       1.0000 0.16210  0.88788  0.04720  Biso   1.000  O
  O9       1.0000 0.02710  0.10210  0.96160  Biso   1.000  O
  N1       1.0000 0.27670  0.97444  0.20020  Biso   1.000  N
  N2       1.0000 0.26760  0.93792  0.19723  Biso   1.000  N
  H1       1.0000 0.27520  0.92080  0.21400  Biso   1.000  H
  N3       1.0000 0.23890  0.96430  0.14440  Biso   1.000  N
  C1       1.0000 0.28755  0.12037  0.20890  Biso   1.000  C
  C2       1.0000 0.27516  0.09215  0.17733  Biso   1.000  C
  C3       1.0000 0.26340  0.10414  0.13820  Biso   1.000  C
  H2       1.0000 0.26490  0.12920  0.13140  Biso   1.000  H
  C4       1.0000 0.24940  0.07915  0.10900  Biso   1.000  C
  C5       1.0000 0.24770  0.04139  0.11950  Biso   1.000  C
  H3       1.0000 0.23780  0.02450  0.10040  Biso   1.000  H
  C6       1.0000 0.26050  0.02899  0.15740  Biso   1.000  C
  C7       1.0000 0.27420  0.05456  0.18679  Biso   1.000  C
  H4       1.0000 0.28270  0.04630  0.21270  Biso   1.000  H
  C8       1.0000 0.25900  0.98881  0.16750  Biso   1.000  C
  C9       1.0000 0.24500  0.93238  0.16430  Biso   1.000  C
  C10      1.0000 0.23640  0.09261  0.06730  Biso   1.000  C
  C11      1.0000 0.22539  0.79764  0.19331  Biso   1.000  C
  C12      1.0000 0.21909  0.83094  0.16566  Biso   1.000  C
  C13      1.0000 0.23480  0.86501  0.17720  Biso   1.000  C
  H5       1.0000 0.24930  0.86670  0.20120  Biso   1.000  H
  C14      1.0000 0.22860  0.89612  0.15260  Biso   1.000  C
  C15      1.0000 0.20720  0.89389  0.11700  Biso   1.000  C
  H6       1.0000 0.20310  0.91500  0.10090  Biso   1.000  H
  C16      1.0000 0.19180  0.86025  0.10500  Biso   1.000  C
  C17      1.0000 0.19735  0.82866  0.12980  Biso   1.000  C
  H7       1.0000 0.18650  0.80620  0.12230  Biso   1.000  H
  C18      1.0000 0.16840  0.85830  0.06550  Biso   1.000  C
  O10      1.0000 0.03470  0.12800  0.94320  Biso   1.000  O
  O11      1.0000 0.78726  0.65382  0.69726  Biso   1.000  O
  O12      1.0000 0.79765  0.60994  0.74460  Biso   1.000  O
  O13      1.0000 0.75007  0.62244  0.55283  Biso   1.000  O
  O14      1.0000 0.71087  0.57532  0.54879  Biso   1.000  O
  O15      1.0000 0.71085  0.26748  0.68331  Biso   1.000  O
  O16      1.0000 0.74478  0.30270  0.72550  Biso   1.000  O
  O17      1.0000 0.65687  0.32693  0.55479  Biso   1.000  O
  O18      1.0000 0.66210  0.38788  0.54720  Biso   1.000  O
  O19      1.0000 0.52710  0.60210  0.46160  Biso   1.000  O
  N4       1.0000 0.77670  0.47444  0.70020  Biso   1.000  N
  N5       1.0000 0.76760  0.43792  0.69723  Biso   1.000  N
  H8       1.0000 0.77520  0.42080  0.71400  Biso   1.000  H
  N6       1.0000 0.73890  0.46430  0.64440  Biso   1.000  N
  C19      1.0000 0.78755  0.62037  0.70890  Biso   1.000  C
  C20      1.0000 0.77516  0.59215  0.67733  Biso   1.000  C
  C21      1.0000 0.76340  0.60414  0.63820  Biso   1.000  C
  H9       1.0000 0.76490  0.62920  0.63140  Biso   1.000  H
  C22      1.0000 0.74940  0.57915  0.60900  Biso   1.000  C
  C23      1.0000 0.74770  0.54139  0.61950  Biso   1.000  C
  H10      1.0000 0.73780  0.52450  0.60040  Biso   1.000  H
  C24      1.0000 0.76050  0.52899  0.65740  Biso   1.000  C
  C25      1.0000 0.77420  0.55456  0.68679  Biso   1.000  C
  H11      1.0000 0.78270  0.54630  0.71270  Biso   1.000  H
  C26      1.0000 0.75900  0.48881  0.66750  Biso   1.000  C
  C27      1.0000 0.74500  0.43238  0.66430  Biso   1.000  C
  C28      1.0000 0.73640  0.59261  0.56730  Biso   1.000  C
  C29      1.0000 0.72539  0.29764  0.69331  Biso   1.000  C
  C30      1.0000 0.71909  0.33094  0.66566  Biso   1.000  C
  C31      1.0000 0.73480  0.36501  0.67720  Biso   1.000  C
  H12      1.0000 0.74930  0.36670  0.70120  Biso   1.000  H
  C32      1.0000 0.72860  0.39612  0.65260  Biso   1.000  C
  C33      1.0000 0.70720  0.39389  0.61700  Biso   1.000  C
  H13      1.0000 0.70310  0.41500  0.60090  Biso   1.000  H
  C34      1.0000 0.69180  0.36025  0.60500  Biso   1.000  C
  C35      1.0000 0.69735  0.32866  0.62980  Biso   1.000  C
  H14      1.0000 0.68650  0.30620  0.62230  Biso   1.000  H
  C36      1.0000 0.66840  0.35830  0.56550  Biso   1.000  C
  O20      1.0000 0.53470  0.62800  0.44320  Biso   1.000  O
  O21      1.0000 0.71274  0.84618  0.19726  Biso   1.000  O
  O22      1.0000 0.70235  0.89006  0.24460  Biso   1.000  O
  O23      1.0000 0.74993  0.87756  0.05283  Biso   1.000  O
  O24      1.0000 0.78913  0.92468  0.04879  Biso   1.000  O
  O25      1.0000 0.78915  0.23252  0.18331  Biso   1.000  O
  O26      1.0000 0.75522  0.19730  0.22550  Biso   1.000  O
  O27      1.0000 0.84313  0.17307  0.05479  Biso   1.000  O
  O28      1.0000 0.83790  0.11212  0.04720  Biso   1.000  O
  O29      1.0000 0.97290  0.89790  0.96160  Biso   1.000  O
  N7       1.0000 0.72330  0.02556  0.20020  Biso   1.000  N
  N8       1.0000 0.73240  0.06208  0.19723  Biso   1.000  N
  H15      1.0000 0.72480  0.07920  0.21400  Biso   1.000  H
  N9       1.0000 0.76110  0.03570  0.14440  Biso   1.000  N
  C37      1.0000 0.71245  0.87963  0.20890  Biso   1.000  C
  C38      1.0000 0.72484  0.90785  0.17733  Biso   1.000  C
  C39      1.0000 0.73660  0.89586  0.13820  Biso   1.000  C
  H16      1.0000 0.73510  0.87080  0.13140  Biso   1.000  H
  C40      1.0000 0.75060  0.92085  0.10900  Biso   1.000  C
  C41      1.0000 0.75230  0.95861  0.11950  Biso   1.000  C
  H17      1.0000 0.76220  0.97550  0.10040  Biso   1.000  H
  C42      1.0000 0.73950  0.97101  0.15740  Biso   1.000  C
  C43      1.0000 0.72580  0.94544  0.18679  Biso   1.000  C
  H18      1.0000 0.71730  0.95370  0.21270  Biso   1.000  H
  C44      1.0000 0.74100  0.01119  0.16750  Biso   1.000  C
  C45      1.0000 0.75500  0.06762  0.16430  Biso   1.000  C
  C46      1.0000 0.76360  0.90739  0.06730  Biso   1.000  C
  C47      1.0000 0.77461  0.20236  0.19331  Biso   1.000  C
  C48      1.0000 0.78091  0.16906  0.16566  Biso   1.000  C
  C49      1.0000 0.76520  0.13499  0.17720  Biso   1.000  C
  H19      1.0000 0.75070  0.13330  0.20120  Biso   1.000  H
  C50      1.0000 0.77140  0.10388  0.15260  Biso   1.000  C
  C51      1.0000 0.79280  0.10611  0.11700  Biso   1.000  C
  H20      1.0000 0.79690  0.08500  0.10090  Biso   1.000  H
  C52      1.0000 0.80820  0.13975  0.10500  Biso   1.000  C
  C53      1.0000 0.80265  0.17134  0.12980  Biso   1.000  C
  H21      1.0000 0.81350  0.19380  0.12230  Biso   1.000  H
  C54      1.0000 0.83160  0.14170  0.06550  Biso   1.000  C
  O30      1.0000 0.96530  0.87200  0.94320  Biso   1.000  O
  O31      1.0000 0.21274  0.34618  0.69726  Biso   1.000  O
  O32      1.0000 0.20235  0.39006  0.74460  Biso   1.000  O
  O33      1.0000 0.24993  0.37756  0.55283  Biso   1.000  O
  O34      1.0000 0.28913  0.42468  0.54879  Biso   1.000  O
  O35      1.0000 0.28915  0.73252  0.68331  Biso   1.000  O
  O36      1.0000 0.25522  0.69730  0.72550  Biso   1.000  O
  O37      1.0000 0.34313  0.67307  0.55479  Biso   1.000  O
  O38      1.0000 0.33790  0.61212  0.54720  Biso   1.000  O
  O39      1.0000 0.47290  0.39790  0.46160  Biso   1.000  O
  N10      1.0000 0.22330  0.52556  0.70020  Biso   1.000  N
  N11      1.0000 0.23240  0.56208  0.69723  Biso   1.000  N
  H22      1.0000 0.22480  0.57920  0.71400  Biso   1.000  H
  N12      1.0000 0.26110  0.53570  0.64440  Biso   1.000  N
  C55      1.0000 0.21245  0.37963  0.70890  Biso   1.000  C
  C56      1.0000 0.22484  0.40785  0.67733  Biso   1.000  C
  C57      1.0000 0.23660  0.39586  0.63820  Biso   1.000  C
  H23      1.0000 0.23510  0.37080  0.63140  Biso   1.000  H
  C58      1.0000 0.25060  0.42085  0.60900  Biso   1.000  C
  C59      1.0000 0.25230  0.45861  0.61950  Biso   1.000  C
  H24      1.0000 0.26220  0.47550  0.60040  Biso   1.000  H
  C60      1.0000 0.23950  0.47101  0.65740  Biso   1.000  C
  C61      1.0000 0.22580  0.44544  0.68679  Biso   1.000  C
  H25      1.0000 0.21730  0.45370  0.71270  Biso   1.000  H
  C62      1.0000 0.24100  0.51119  0.66750  Biso   1.000  C
  C63      1.0000 0.25500  0.56762  0.66430  Biso   1.000  C
  C64      1.0000 0.26360  0.40739  0.56730  Biso   1.000  C
  C65      1.0000 0.27461  0.70236  0.69331  Biso   1.000  C
  C66      1.0000 0.28091  0.66906  0.66566  Biso   1.000  C
  C67      1.0000 0.26520  0.63499  0.67720  Biso   1.000  C
  H26      1.0000 0.25070  0.63330  0.70120  Biso   1.000  H
  C68      1.0000 0.27140  0.60388  0.65260  Biso   1.000  C
  C69      1.0000 0.29280  0.60611  0.61700  Biso   1.000  C
  H27      1.0000 0.29690  0.58500  0.60090  Biso   1.000  H
  C70      1.0000 0.30820  0.63975  0.60500  Biso   1.000  C
  C71      1.0000 0.30265  0.67134  0.62980  Biso   1.000  C
  H28      1.0000 0.31350  0.69380  0.62230  Biso   1.000  H
  C72      1.0000 0.33160  0.64170  0.56550  Biso   1.000  C
  O40      1.0000 0.46530  0.37200  0.44320  Biso   1.000  O
  O41      1.0000 0.84618  0.28726  0.19726  Biso   1.000  O
  O42      1.0000 0.89006  0.29765  0.24460  Biso   1.000  O
  O43      1.0000 0.87756  0.25007  0.05283  Biso   1.000  O
  O44      1.0000 0.92468  0.21087  0.04879  Biso   1.000  O
  O45      1.0000 0.23252  0.21085  0.18331  Biso   1.000  O
  O46      1.0000 0.19730  0.24478  0.22550  Biso   1.000  O
  O47      1.0000 0.17307  0.15687  0.05479  Biso   1.000  O
  O48      1.0000 0.11212  0.16210  0.04720  Biso   1.000  O
  O49      1.0000 0.89790  0.02710  0.96160  Biso   1.000  O
  N13      1.0000 0.02556  0.27670  0.20020  Biso   1.000  N
  N14      1.0000 0.06208  0.26760  0.19723  Biso   1.000  N
  H29      1.0000 0.07920  0.27520  0.21400  Biso   1.000  H
  N15      1.0000 0.03570  0.23890  0.14440  Biso   1.000  N
  C73      1.0000 0.87963  0.28755  0.20890  Biso   1.000  C
  C74      1.0000 0.90785  0.27516  0.17733  Biso   1.000  C
  C75      1.0000 0.89586  0.26340  0.13820  Biso   1.000  C
  H30      1.0000 0.87080  0.26490  0.13140  Biso   1.000  H
  C76      1.0000 0.92085  0.24940  0.10900  Biso   1.000  C
  C77      1.0000 0.95861  0.24770  0.11950  Biso   1.000  C
  H31      1.0000 0.97550  0.23780  0.10040  Biso   1.000  H
  C78      1.0000 0.97101  0.26050  0.15740  Biso   1.000  C
  C79      1.0000 0.94544  0.27420  0.18679  Biso   1.000  C
  H32      1.0000 0.95370  0.28270  0.21270  Biso   1.000  H
  C80      1.0000 0.01119  0.25900  0.16750  Biso   1.000  C
  C81      1.0000 0.06762  0.24500  0.16430  Biso   1.000  C
  C82      1.0000 0.90739  0.23640  0.06730  Biso   1.000  C
  C83      1.0000 0.20236  0.22539  0.19331  Biso   1.000  C
  C84      1.0000 0.16906  0.21909  0.16566  Biso   1.000  C
  C85      1.0000 0.13499  0.23480  0.17720  Biso   1.000  C
  H33      1.0000 0.13330  0.24930  0.20120  Biso   1.000  H
  C86      1.0000 0.10388  0.22860  0.15260  Biso   1.000  C
  C87      1.0000 0.10611  0.20720  0.11700  Biso   1.000  C
  H34      1.0000 0.08500  0.20310  0.10090  Biso   1.000  H
  C88      1.0000 0.13975  0.19180  0.10500  Biso   1.000  C
  C89      1.0000 0.17134  0.19735  0.12980  Biso   1.000  C
  H35      1.0000 0.19380  0.18650  0.12230  Biso   1.000  H
  C90      1.0000 0.14170  0.16840  0.06550  Biso   1.000  C
  O50      1.0000 0.87200  0.03470  0.94320  Biso   1.000  O
  O51      1.0000 0.34618  0.78726  0.69726  Biso   1.000  O
  O52      1.0000 0.39006  0.79765  0.74460  Biso   1.000  O
  O53      1.0000 0.37756  0.75007  0.55283  Biso   1.000  O
  O54      1.0000 0.42468  0.71087  0.54879  Biso   1.000  O
  O55      1.0000 0.73252  0.71085  0.68331  Biso   1.000  O
  O56      1.0000 0.69730  0.74478  0.72550  Biso   1.000  O
  O57      1.0000 0.67307  0.65687  0.55479  Biso   1.000  O
  O58      1.0000 0.61212  0.66210  0.54720  Biso   1.000  O
  O59      1.0000 0.39790  0.52710  0.46160  Biso   1.000  O
  N16      1.0000 0.52556  0.77670  0.70020  Biso   1.000  N
  N17      1.0000 0.56208  0.76760  0.69723  Biso   1.000  N
  H36      1.0000 0.57920  0.77520  0.71400  Biso   1.000  H
  N18      1.0000 0.53570  0.73890  0.64440  Biso   1.000  N
  C91      1.0000 0.37963  0.78755  0.70890  Biso   1.000  C
  C92      1.0000 0.40785  0.77516  0.67733  Biso   1.000  C
  C93      1.0000 0.39586  0.76340  0.63820  Biso   1.000  C
  H37      1.0000 0.37080  0.76490  0.63140  Biso   1.000  H
  C94      1.0000 0.42085  0.74940  0.60900  Biso   1.000  C
  C95      1.0000 0.45861  0.74770  0.61950  Biso   1.000  C
  H38      1.0000 0.47550  0.73780  0.60040  Biso   1.000  H
  C96      1.0000 0.47101  0.76050  0.65740  Biso   1.000  C
  C97      1.0000 0.44544  0.77420  0.68679  Biso   1.000  C
  H39      1.0000 0.45370  0.78270  0.71270  Biso   1.000  H
  C98      1.0000 0.51119  0.75900  0.66750  Biso   1.000  C
  C99      1.0000 0.56762  0.74500  0.66430  Biso   1.000  C
  C100     1.0000 0.40739  0.73640  0.56730  Biso   1.000  C
  C101     1.0000 0.70236  0.72539  0.69331  Biso   1.000  C
  C102     1.0000 0.66906  0.71909  0.66566  Biso   1.000  C
  C103     1.0000 0.63499  0.73480  0.67720  Biso   1.000  C
  H40      1.0000 0.63330  0.74930  0.70120  Biso   1.000  H
  C104     1.0000 0.60388  0.72860  0.65260  Biso   1.000  C
  C105     1.0000 0.60611  0.70720  0.61700  Biso   1.000  C
  H41      1.0000 0.58500  0.70310  0.60090  Biso   1.000  H
  C106     1.0000 0.63975  0.69180  0.60500  Biso   1.000  C
  C107     1.0000 0.67134  0.69735  0.62980  Biso   1.000  C
  H42      1.0000 0.69380  0.68650  0.62230  Biso   1.000  H
  C108     1.0000 0.64170  0.66840  0.56550  Biso   1.000  C
  O60      1.0000 0.37200  0.53470  0.44320  Biso   1.000  O
  O61      1.0000 0.15382  0.71274  0.19726  Biso   1.000  O
  O62      1.0000 0.10994  0.70235  0.24460  Biso   1.000  O
  O63      1.0000 0.12244  0.74993  0.05283  Biso   1.000  O
  O64      1.0000 0.07532  0.78913  0.04879  Biso   1.000  O
  O65      1.0000 0.76748  0.78915  0.18331  Biso   1.000  O
  O66      1.0000 0.80270  0.75522  0.22550  Biso   1.000  O
  O67      1.0000 0.82693  0.84313  0.05479  Biso   1.000  O
  O68      1.0000 0.88788  0.83790  0.04720  Biso   1.000  O
  O69      1.0000 0.10210  0.97290  0.96160  Biso   1.000  O
  N19      1.0000 0.97444  0.72330  0.20020  Biso   1.000  N
  N20      1.0000 0.93792  0.73240  0.19723  Biso   1.000  N
  H43      1.0000 0.92080  0.72480  0.21400  Biso   1.000  H
  N21      1.0000 0.96430  0.76110  0.14440  Biso   1.000  N
  C109     1.0000 0.12037  0.71245  0.20890  Biso   1.000  C
  C110     1.0000 0.09215  0.72484  0.17733  Biso   1.000  C
  C111     1.0000 0.10414  0.73660  0.13820  Biso   1.000  C
  H44      1.0000 0.12920  0.73510  0.13140  Biso   1.000  H
  C112     1.0000 0.07915  0.75060  0.10900  Biso   1.000  C
  C113     1.0000 0.04139  0.75230  0.11950  Biso   1.000  C
  H45      1.0000 0.02450  0.76220  0.10040  Biso   1.000  H
  C114     1.0000 0.02899  0.73950  0.15740  Biso   1.000  C
  C115     1.0000 0.05456  0.72580  0.18679  Biso   1.000  C
  H46      1.0000 0.04630  0.71730  0.21270  Biso   1.000  H
  C116     1.0000 0.98881  0.74100  0.16750  Biso   1.000  C
  C117     1.0000 0.93238  0.75500  0.16430  Biso   1.000  C
  C118     1.0000 0.09261  0.76360  0.06730  Biso   1.000  C
  C119     1.0000 0.79764  0.77461  0.19331  Biso   1.000  C
  C120     1.0000 0.83094  0.78091  0.16566  Biso   1.000  C
  C121     1.0000 0.86501  0.76520  0.17720  Biso   1.000  C
  H47      1.0000 0.86670  0.75070  0.20120  Biso   1.000  H
  C122     1.0000 0.89612  0.77140  0.15260  Biso   1.000  C
  C123     1.0000 0.89389  0.79280  0.11700  Biso   1.000  C
  H48      1.0000 0.91500  0.79690  0.10090  Biso   1.000  H
  C124     1.0000 0.86025  0.80820  0.10500  Biso   1.000  C
  C125     1.0000 0.82866  0.80265  0.12980  Biso   1.000  C
  H49      1.0000 0.80620  0.81350  0.12230  Biso   1.000  H
  C126     1.0000 0.85830  0.83160  0.06550  Biso   1.000  C
  O70      1.0000 0.12800  0.96530  0.94320  Biso   1.000  O
  O71      1.0000 0.65382  0.21274  0.69726  Biso   1.000  O
  O72      1.0000 0.60994  0.20235  0.74460  Biso   1.000  O
  O73      1.0000 0.62244  0.24993  0.55283  Biso   1.000  O
  O74      1.0000 0.57532  0.28913  0.54879  Biso   1.000  O
  O75      1.0000 0.26748  0.28915  0.68331  Biso   1.000  O
  O76      1.0000 0.30270  0.25522  0.72550  Biso   1.000  O
  O77      1.0000 0.32693  0.34313  0.55479  Biso   1.000  O
  O78      1.0000 0.38788  0.33790  0.54720  Biso   1.000  O
  O79      1.0000 0.60210  0.47290  0.46160  Biso   1.000  O
  N22      1.0000 0.47444  0.22330  0.70020  Biso   1.000  N
  N23      1.0000 0.43792  0.23240  0.69723  Biso   1.000  N
  H50      1.0000 0.42080  0.22480  0.71400  Biso   1.000  H
  N24      1.0000 0.46430  0.26110  0.64440  Biso   1.000  N
  C127     1.0000 0.62037  0.21245  0.70890  Biso   1.000  C
  C128     1.0000 0.59215  0.22484  0.67733  Biso   1.000  C
  C129     1.0000 0.60414  0.23660  0.63820  Biso   1.000  C
  H51      1.0000 0.62920  0.23510  0.63140  Biso   1.000  H
  C130     1.0000 0.57915  0.25060  0.60900  Biso   1.000  C
  C131     1.0000 0.54139  0.25230  0.61950  Biso   1.000  C
  H52      1.0000 0.52450  0.26220  0.60040  Biso   1.000  H
  C132     1.0000 0.52899  0.23950  0.65740  Biso   1.000  C
  C133     1.0000 0.55456  0.22580  0.68679  Biso   1.000  C
  H53      1.0000 0.54630  0.21730  0.71270  Biso   1.000  H
  C134     1.0000 0.48881  0.24100  0.66750  Biso   1.000  C
  C135     1.0000 0.43238  0.25500  0.66430  Biso   1.000  C
  C136     1.0000 0.59261  0.26360  0.56730  Biso   1.000  C
  C137     1.0000 0.29764  0.27461  0.69331  Biso   1.000  C
  C138     1.0000 0.33094  0.28091  0.66566  Biso   1.000  C
  C139     1.0000 0.36501  0.26520  0.67720  Biso   1.000  C
  H54      1.0000 0.36670  0.25070  0.70120  Biso   1.000  H
  C140     1.0000 0.39612  0.27140  0.65260  Biso   1.000  C
  C141     1.0000 0.39389  0.29280  0.61700  Biso   1.000  C
  H55      1.0000 0.41500  0.29690  0.60090  Biso   1.000  H
  C142     1.0000 0.36025  0.30820  0.60500  Biso   1.000  C
  C143     1.0000 0.32866  0.30265  0.62980  Biso   1.000  C
  H56      1.0000 0.30620  0.31350  0.62230  Biso   1.000  H
  C144     1.0000 0.35830  0.33160  0.56550  Biso   1.000  C
  O80      1.0000 0.62800  0.46530  0.44320  Biso   1.000  O
  O81      1.0000 0.71274  0.15382  0.30274  Biso   1.000  O
  O82      1.0000 0.70235  0.10994  0.25540  Biso   1.000  O
  O83      1.0000 0.74993  0.12244  0.44717  Biso   1.000  O
  O84      1.0000 0.78913  0.07532  0.45121  Biso   1.000  O
  O85      1.0000 0.78915  0.76748  0.31669  Biso   1.000  O
  O86      1.0000 0.75522  0.80270  0.27450  Biso   1.000  O
  O87      1.0000 0.84313  0.82693  0.44521  Biso   1.000  O
  O88      1.0000 0.83790  0.88788  0.45280  Biso   1.000  O
  O89      1.0000 0.97290  0.10210  0.53840  Biso   1.000  O
  N25      1.0000 0.72330  0.97444  0.29980  Biso   1.000  N
  N26      1.0000 0.73240  0.93792  0.30277  Biso   1.000  N
  H57      1.0000 0.72480  0.92080  0.28600  Biso   1.000  H
  N27      1.0000 0.76110  0.96430  0.35560  Biso   1.000  N
  C145     1.0000 0.71245  0.12037  0.29110  Biso   1.000  C
  C146     1.0000 0.72484  0.09215  0.32267  Biso   1.000  C
  C147     1.0000 0.73660  0.10414  0.36180  Biso   1.000  C
  H58      1.0000 0.73510  0.12920  0.36860  Biso   1.000  H
  C148     1.0000 0.75060  0.07915  0.39100  Biso   1.000  C
  C149     1.0000 0.75230  0.04139  0.38050  Biso   1.000  C
  H59      1.0000 0.76220  0.02450  0.39960  Biso   1.000  H
  C150     1.0000 0.73950  0.02899  0.34260  Biso   1.000  C
  C151     1.0000 0.72580  0.05456  0.31321  Biso   1.000  C
  H60      1.0000 0.71730  0.04630  0.28730  Biso   1.000  H
  C152     1.0000 0.74100  0.98881  0.33250  Biso   1.000  C
  C153     1.0000 0.75500  0.93238  0.33570  Biso   1.000  C
  C154     1.0000 0.76360  0.09261  0.43270  Biso   1.000  C
  C155     1.0000 0.77461  0.79764  0.30669  Biso   1.000  C
  C156     1.0000 0.78091  0.83094  0.33434  Biso   1.000  C
  C157     1.0000 0.76520  0.86501  0.32280  Biso   1.000  C
  H61      1.0000 0.75070  0.86670  0.29880  Biso   1.000  H
  C158     1.0000 0.77140  0.89612  0.34740  Biso   1.000  C
  C159     1.0000 0.79280  0.89389  0.38300  Biso   1.000  C
  H62      1.0000 0.79690  0.91500  0.39910  Biso   1.000  H
  C160     1.0000 0.80820  0.86025  0.39500  Biso   1.000  C
  C161     1.0000 0.80265  0.82866  0.37020  Biso   1.000  C
  H63      1.0000 0.81350  0.80620  0.37770  Biso   1.000  H
  C162     1.0000 0.83160  0.85830  0.43450  Biso   1.000  C
  O90      1.0000 0.96530  0.12800  0.55680  Biso   1.000  O
  O91      1.0000 0.21274  0.65382  0.80274  Biso   1.000  O
  O92      1.0000 0.20235  0.60994  0.75540  Biso   1.000  O
  O93      1.0000 0.24993  0.62244  0.94717  Biso   1.000  O
  O94      1.0000 0.28913  0.57532  0.95121  Biso   1.000  O
  O95      1.0000 0.28915  0.26748  0.81669  Biso   1.000  O
  O96      1.0000 0.25522  0.30270  0.77450  Biso   1.000  O
  O97      1.0000 0.34313  0.32693  0.94521  Biso   1.000  O
  O98      1.0000 0.33790  0.38788  0.95280  Biso   1.000  O
  O99      1.0000 0.47290  0.60210  0.03840  Biso   1.000  O
  N28      1.0000 0.22330  0.47444  0.79980  Biso   1.000  N
  N29      1.0000 0.23240  0.43792  0.80277  Biso   1.000  N
  H64      1.0000 0.22480  0.42080  0.78600  Biso   1.000  H
  N30      1.0000 0.26110  0.46430  0.85560  Biso   1.000  N
  C163     1.0000 0.21245  0.62037  0.79110  Biso   1.000  C
  C164     1.0000 0.22484  0.59215  0.82267  Biso   1.000  C
  C165     1.0000 0.23660  0.60414  0.86180  Biso   1.000  C
  H65      1.0000 0.23510  0.62920  0.86860  Biso   1.000  H
  C166     1.0000 0.25060  0.57915  0.89100  Biso   1.000  C
  C167     1.0000 0.25230  0.54139  0.88050  Biso   1.000  C
  H66      1.0000 0.26220  0.52450  0.89960  Biso   1.000  H
  C168     1.0000 0.23950  0.52899  0.84260  Biso   1.000  C
  C169     1.0000 0.22580  0.55456  0.81321  Biso   1.000  C
  H67      1.0000 0.21730  0.54630  0.78730  Biso   1.000  H
  C170     1.0000 0.24100  0.48881  0.83250  Biso   1.000  C
  C171     1.0000 0.25500  0.43238  0.83570  Biso   1.000  C
  C172     1.0000 0.26360  0.59261  0.93270  Biso   1.000  C
  C173     1.0000 0.27461  0.29764  0.80669  Biso   1.000  C
  C174     1.0000 0.28091  0.33094  0.83434  Biso   1.000  C
  C175     1.0000 0.26520  0.36501  0.82280  Biso   1.000  C
  H68      1.0000 0.25070  0.36670  0.79880  Biso   1.000  H
  C176     1.0000 0.27140  0.39612  0.84740  Biso   1.000  C
  C177     1.0000 0.29280  0.39389  0.88300  Biso   1.000  C
  H69      1.0000 0.29690  0.41500  0.89910  Biso   1.000  H
  C178     1.0000 0.30820  0.36025  0.89500  Biso   1.000  C
  C179     1.0000 0.30265  0.32866  0.87020  Biso   1.000  C
  H70      1.0000 0.31350  0.30620  0.87770  Biso   1.000  H
  C180     1.0000 0.33160  0.35830  0.93450  Biso   1.000  C
  O100     1.0000 0.46530  0.62800  0.05680  Biso   1.000  O
  O101     1.0000 0.28726  0.84618  0.30274  Biso   1.000  O
  O102     1.0000 0.29765  0.89006  0.25540  Biso   1.000  O
  O103     1.0000 0.25007  0.87756  0.44717  Biso   1.000  O
  O104     1.0000 0.21087  0.92468  0.45121  Biso   1.000  O
  O105     1.0000 0.21085  0.23252  0.31669  Biso   1.000  O
  O106     1.0000 0.24478  0.19730  0.27450  Biso   1.000  O
  O107     1.0000 0.15687  0.17307  0.44521  Biso   1.000  O
  O108     1.0000 0.16210  0.11212  0.45280  Biso   1.000  O
  O109     1.0000 0.02710  0.89790  0.53840  Biso   1.000  O
  N31      1.0000 0.27670  0.02556  0.29980  Biso   1.000  N
  N32      1.0000 0.26760  0.06208  0.30277  Biso   1.000  N
  H71      1.0000 0.27520  0.07920  0.28600  Biso   1.000  H
  N33      1.0000 0.23890  0.03570  0.35560  Biso   1.000  N
  C181     1.0000 0.28755  0.87963  0.29110  Biso   1.000  C
  C182     1.0000 0.27516  0.90785  0.32267  Biso   1.000  C
  C183     1.0000 0.26340  0.89586  0.36180  Biso   1.000  C
  H72      1.0000 0.26490  0.87080  0.36860  Biso   1.000  H
  C184     1.0000 0.24940  0.92085  0.39100  Biso   1.000  C
  C185     1.0000 0.24770  0.95861  0.38050  Biso   1.000  C
  H73      1.0000 0.23780  0.97550  0.39960  Biso   1.000  H
  C186     1.0000 0.26050  0.97101  0.34260  Biso   1.000  C
  C187     1.0000 0.27420  0.94544  0.31321  Biso   1.000  C
  H74      1.0000 0.28270  0.95370  0.28730  Biso   1.000  H
  C188     1.0000 0.25900  0.01119  0.33250  Biso   1.000  C
  C189     1.0000 0.24500  0.06762  0.33570  Biso   1.000  C
  C190     1.0000 0.23640  0.90739  0.43270  Biso   1.000  C
  C191     1.0000 0.22539  0.20236  0.30669  Biso   1.000  C
  C192     1.0000 0.21909  0.16906  0.33434  Biso   1.000  C
  C193     1.0000 0.23480  0.13499  0.32280  Biso   1.000  C
  H75      1.0000 0.24930  0.13330  0.29880  Biso   1.000  H
  C194     1.0000 0.22860  0.10388  0.34740  Biso   1.000  C
  C195     1.0000 0.20720  0.10611  0.38300  Biso   1.000  C
  H76      1.0000 0.20310  0.08500  0.39910  Biso   1.000  H
  C196     1.0000 0.19180  0.13975  0.39500  Biso   1.000  C
  C197     1.0000 0.19735  0.17134  0.37020  Biso   1.000  C
  H77      1.0000 0.18650  0.19380  0.37770  Biso   1.000  H
  C198     1.0000 0.16840  0.14170  0.43450  Biso   1.000  C
  O110     1.0000 0.03470  0.87200  0.55680  Biso   1.000  O
  O111     1.0000 0.78726  0.34618  0.80274  Biso   1.000  O
  O112     1.0000 0.79765  0.39006  0.75540  Biso   1.000  O
  O113     1.0000 0.75007  0.37756  0.94717  Biso   1.000  O
  O114     1.0000 0.71087  0.42468  0.95121  Biso   1.000  O
  O115     1.0000 0.71085  0.73252  0.81669  Biso   1.000  O
  O116     1.0000 0.74478  0.69730  0.77450  Biso   1.000  O
  O117     1.0000 0.65687  0.67307  0.94521  Biso   1.000  O
  O118     1.0000 0.66210  0.61212  0.95280  Biso   1.000  O
  O119     1.0000 0.52710  0.39790  0.03840  Biso   1.000  O
  N34      1.0000 0.77670  0.52556  0.79980  Biso   1.000  N
  N35      1.0000 0.76760  0.56208  0.80277  Biso   1.000  N
  H78      1.0000 0.77520  0.57920  0.78600  Biso   1.000  H
  N36      1.0000 0.73890  0.53570  0.85560  Biso   1.000  N
  C199     1.0000 0.78755  0.37963  0.79110  Biso   1.000  C
  C200     1.0000 0.77516  0.40785  0.82267  Biso   1.000  C
  C201     1.0000 0.76340  0.39586  0.86180  Biso   1.000  C
  H79      1.0000 0.76490  0.37080  0.86860  Biso   1.000  H
  C202     1.0000 0.74940  0.42085  0.89100  Biso   1.000  C
  C203     1.0000 0.74770  0.45861  0.88050  Biso   1.000  C
  H80      1.0000 0.73780  0.47550  0.89960  Biso   1.000  H
  C204     1.0000 0.76050  0.47101  0.84260  Biso   1.000  C
  C205     1.0000 0.77420  0.44544  0.81321  Biso   1.000  C
  H81      1.0000 0.78270  0.45370  0.78730  Biso   1.000  H
  C206     1.0000 0.75900  0.51119  0.83250  Biso   1.000  C
  C207     1.0000 0.74500  0.56762  0.83570  Biso   1.000  C
  C208     1.0000 0.73640  0.40739  0.93270  Biso   1.000  C
  C209     1.0000 0.72539  0.70236  0.80669  Biso   1.000  C
  C210     1.0000 0.71909  0.66906  0.83434  Biso   1.000  C
  C211     1.0000 0.73480  0.63499  0.82280  Biso   1.000  C
  H82      1.0000 0.74930  0.63330  0.79880  Biso   1.000  H
  C212     1.0000 0.72860  0.60388  0.84740  Biso   1.000  C
  C213     1.0000 0.70720  0.60611  0.88300  Biso   1.000  C
  H83      1.0000 0.70310  0.58500  0.89910  Biso   1.000  H
  C214     1.0000 0.69180  0.63975  0.89500  Biso   1.000  C
  C215     1.0000 0.69735  0.67134  0.87020  Biso   1.000  C
  H84      1.0000 0.68650  0.69380  0.87770  Biso   1.000  H
  C216     1.0000 0.66840  0.64170  0.93450  Biso   1.000  C
  O120     1.0000 0.53470  0.37200  0.05680  Biso   1.000  O
  O121     1.0000 0.15382  0.28726  0.30274  Biso   1.000  O
  O122     1.0000 0.10994  0.29765  0.25540  Biso   1.000  O
  O123     1.0000 0.12244  0.25007  0.44717  Biso   1.000  O
  O124     1.0000 0.07532  0.21087  0.45121  Biso   1.000  O
  O125     1.0000 0.76748  0.21085  0.31669  Biso   1.000  O
  O126     1.0000 0.80270  0.24478  0.27450  Biso   1.000  O
  O127     1.0000 0.82693  0.15687  0.44521  Biso   1.000  O
  O128     1.0000 0.88788  0.16210  0.45280  Biso   1.000  O
  O129     1.0000 0.10210  0.02710  0.53840  Biso   1.000  O
  N37      1.0000 0.97444  0.27670  0.29980  Biso   1.000  N
  N38      1.0000 0.93792  0.26760  0.30277  Biso   1.000  N
  H85      1.0000 0.92080  0.27520  0.28600  Biso   1.000  H
  N39      1.0000 0.96430  0.23890  0.35560  Biso   1.000  N
  C217     1.0000 0.12037  0.28755  0.29110  Biso   1.000  C
  C218     1.0000 0.09215  0.27516  0.32267  Biso   1.000  C
  C219     1.0000 0.10414  0.26340  0.36180  Biso   1.000  C
  H86      1.0000 0.12920  0.26490  0.36860  Biso   1.000  H
  C220     1.0000 0.07915  0.24940  0.39100  Biso   1.000  C
  C221     1.0000 0.04139  0.24770  0.38050  Biso   1.000  C
  H87      1.0000 0.02450  0.23780  0.39960  Biso   1.000  H
  C222     1.0000 0.02899  0.26050  0.34260  Biso   1.000  C
  C223     1.0000 0.05456  0.27420  0.31321  Biso   1.000  C
  H88      1.0000 0.04630  0.28270  0.28730  Biso   1.000  H
  C224     1.0000 0.98881  0.25900  0.33250  Biso   1.000  C
  C225     1.0000 0.93238  0.24500  0.33570  Biso   1.000  C
  C226     1.0000 0.09261  0.23640  0.43270  Biso   1.000  C
  C227     1.0000 0.79764  0.22539  0.30669  Biso   1.000  C
  C228     1.0000 0.83094  0.21909  0.33434  Biso   1.000  C
  C229     1.0000 0.86501  0.23480  0.32280  Biso   1.000  C
  H89      1.0000 0.86670  0.24930  0.29880  Biso   1.000  H
  C230     1.0000 0.89612  0.22860  0.34740  Biso   1.000  C
  C231     1.0000 0.89389  0.20720  0.38300  Biso   1.000  C
  H90      1.0000 0.91500  0.20310  0.39910  Biso   1.000  H
  C232     1.0000 0.86025  0.19180  0.39500  Biso   1.000  C
  C233     1.0000 0.82866  0.19735  0.37020  Biso   1.000  C
  H91      1.0000 0.80620  0.18650  0.37770  Biso   1.000  H
  C234     1.0000 0.85830  0.16840  0.43450  Biso   1.000  C
  O130     1.0000 0.12800  0.03470  0.55680  Biso   1.000  O
  O131     1.0000 0.65382  0.78726  0.80274  Biso   1.000  O
  O132     1.0000 0.60994  0.79765  0.75540  Biso   1.000  O
  O133     1.0000 0.62244  0.75007  0.94717  Biso   1.000  O
  O134     1.0000 0.57532  0.71087  0.95121  Biso   1.000  O
  O135     1.0000 0.26748  0.71085  0.81669  Biso   1.000  O
  O136     1.0000 0.30270  0.74478  0.77450  Biso   1.000  O
  O137     1.0000 0.32693  0.65687  0.94521  Biso   1.000  O
  O138     1.0000 0.38788  0.66210  0.95280  Biso   1.000  O
  O139     1.0000 0.60210  0.52710  0.03840  Biso   1.000  O
  N40      1.0000 0.47444  0.77670  0.79980  Biso   1.000  N
  N41      1.0000 0.43792  0.76760  0.80277  Biso   1.000  N
  H92      1.0000 0.42080  0.77520  0.78600  Biso   1.000  H
  N42      1.0000 0.46430  0.73890  0.85560  Biso   1.000  N
  C235     1.0000 0.62037  0.78755  0.79110  Biso   1.000  C
  C236     1.0000 0.59215  0.77516  0.82267  Biso   1.000  C
  C237     1.0000 0.60414  0.76340  0.86180  Biso   1.000  C
  H93      1.0000 0.62920  0.76490  0.86860  Biso   1.000  H
  C238     1.0000 0.57915  0.74940  0.89100  Biso   1.000  C
  C239     1.0000 0.54139  0.74770  0.88050  Biso   1.000  C
  H94      1.0000 0.52450  0.73780  0.89960  Biso   1.000  H
  C240     1.0000 0.52899  0.76050  0.84260  Biso   1.000  C
  C241     1.0000 0.55456  0.77420  0.81321  Biso   1.000  C
  H95      1.0000 0.54630  0.78270  0.78730  Biso   1.000  H
  C242     1.0000 0.48881  0.75900  0.83250  Biso   1.000  C
  C243     1.0000 0.43238  0.74500  0.83570  Biso   1.000  C
  C244     1.0000 0.59261  0.73640  0.93270  Biso   1.000  C
  C245     1.0000 0.29764  0.72539  0.80669  Biso   1.000  C
  C246     1.0000 0.33094  0.71909  0.83434  Biso   1.000  C
  C247     1.0000 0.36501  0.73480  0.82280  Biso   1.000  C
  H96      1.0000 0.36670  0.74930  0.79880  Biso   1.000  H
  C248     1.0000 0.39612  0.72860  0.84740  Biso   1.000  C
  C249     1.0000 0.39389  0.70720  0.88300  Biso   1.000  C
  H97      1.0000 0.41500  0.70310  0.89910  Biso   1.000  H
  C250     1.0000 0.36025  0.69180  0.89500  Biso   1.000  C
  C251     1.0000 0.32866  0.69735  0.87020  Biso   1.000  C
  H98      1.0000 0.30620  0.68650  0.87770  Biso   1.000  H
  C252     1.0000 0.35830  0.66840  0.93450  Biso   1.000  C
  O140     1.0000 0.62800  0.53470  0.05680  Biso   1.000  O
  O141     1.0000 0.84618  0.71274  0.30274  Biso   1.000  O
  O142     1.0000 0.89006  0.70235  0.25540  Biso   1.000  O
  O143     1.0000 0.87756  0.74993  0.44717  Biso   1.000  O
  O144     1.0000 0.92468  0.78913  0.45121  Biso   1.000  O
  O145     1.0000 0.23252  0.78915  0.31669  Biso   1.000  O
  O146     1.0000 0.19730  0.75522  0.27450  Biso   1.000  O
  O147     1.0000 0.17307  0.84313  0.44521  Biso   1.000  O
  O148     1.0000 0.11212  0.83790  0.45280  Biso   1.000  O
  O149     1.0000 0.89790  0.97290  0.53840  Biso   1.000  O
  N43      1.0000 0.02556  0.72330  0.29980  Biso   1.000  N
  N44      1.0000 0.06208  0.73240  0.30277  Biso   1.000  N
  H99      1.0000 0.07920  0.72480  0.28600  Biso   1.000  H
  N45      1.0000 0.03570  0.76110  0.35560  Biso   1.000  N
  C253     1.0000 0.87963  0.71245  0.29110  Biso   1.000  C
  C254     1.0000 0.90785  0.72484  0.32267  Biso   1.000  C
  C255     1.0000 0.89586  0.73660  0.36180  Biso   1.000  C
  H100     1.0000 0.87080  0.73510  0.36860  Biso   1.000  H
  C256     1.0000 0.92085  0.75060  0.39100  Biso   1.000  C
  C257     1.0000 0.95861  0.75230  0.38050  Biso   1.000  C
  H101     1.0000 0.97550  0.76220  0.39960  Biso   1.000  H
  C258     1.0000 0.97101  0.73950  0.34260  Biso   1.000  C
  C259     1.0000 0.94544  0.72580  0.31321  Biso   1.000  C
  H102     1.0000 0.95370  0.71730  0.28730  Biso   1.000  H
  C260     1.0000 0.01119  0.74100  0.33250  Biso   1.000  C
  C261     1.0000 0.06762  0.75500  0.33570  Biso   1.000  C
  C262     1.0000 0.90739  0.76360  0.43270  Biso   1.000  C
  C263     1.0000 0.20236  0.77461  0.30669  Biso   1.000  C
  C264     1.0000 0.16906  0.78091  0.33434  Biso   1.000  C
  C265     1.0000 0.13499  0.76520  0.32280  Biso   1.000  C
  H103     1.0000 0.13330  0.75070  0.29880  Biso   1.000  H
  C266     1.0000 0.10388  0.77140  0.34740  Biso   1.000  C
  C267     1.0000 0.10611  0.79280  0.38300  Biso   1.000  C
  H104     1.0000 0.08500  0.79690  0.39910  Biso   1.000  H
  C268     1.0000 0.13975  0.80820  0.39500  Biso   1.000  C
  C269     1.0000 0.17134  0.80265  0.37020  Biso   1.000  C
  H105     1.0000 0.19380  0.81350  0.37770  Biso   1.000  H
  C270     1.0000 0.14170  0.83160  0.43450  Biso   1.000  C
  O150     1.0000 0.87200  0.96530  0.55680  Biso   1.000  O
  O151     1.0000 0.34618  0.21274  0.80274  Biso   1.000  O
  O152     1.0000 0.39006  0.20235  0.75540  Biso   1.000  O
  O153     1.0000 0.37756  0.24993  0.94717  Biso   1.000  O
  O154     1.0000 0.42468  0.28913  0.95121  Biso   1.000  O
  O155     1.0000 0.73252  0.28915  0.81669  Biso   1.000  O
  O156     1.0000 0.69730  0.25522  0.77450  Biso   1.000  O
  O157     1.0000 0.67307  0.34313  0.94521  Biso   1.000  O
  O158     1.0000 0.61212  0.33790  0.95280  Biso   1.000  O
  O159     1.0000 0.39790  0.47290  0.03840  Biso   1.000  O
  N46      1.0000 0.52556  0.22330  0.79980  Biso   1.000  N
  N47      1.0000 0.56208  0.23240  0.80277  Biso   1.000  N
  H106     1.0000 0.57920  0.22480  0.78600  Biso   1.000  H
  N48      1.0000 0.53570  0.26110  0.85560  Biso   1.000  N
  C271     1.0000 0.37963  0.21245  0.79110  Biso   1.000  C
  C272     1.0000 0.40785  0.22484  0.82267  Biso   1.000  C
  C273     1.0000 0.39586  0.23660  0.86180  Biso   1.000  C
  H107     1.0000 0.37080  0.23510  0.86860  Biso   1.000  H
  C274     1.0000 0.42085  0.25060  0.89100  Biso   1.000  C
  C275     1.0000 0.45861  0.25230  0.88050  Biso   1.000  C
  H108     1.0000 0.47550  0.26220  0.89960  Biso   1.000  H
  C276     1.0000 0.47101  0.23950  0.84260  Biso   1.000  C
  C277     1.0000 0.44544  0.22580  0.81321  Biso   1.000  C
  H109     1.0000 0.45370  0.21730  0.78730  Biso   1.000  H
  C278     1.0000 0.51119  0.24100  0.83250  Biso   1.000  C
  C279     1.0000 0.56762  0.25500  0.83570  Biso   1.000  C
  C280     1.0000 0.40739  0.26360  0.93270  Biso   1.000  C
  C281     1.0000 0.70236  0.27461  0.80669  Biso   1.000  C
  C282     1.0000 0.66906  0.28091  0.83434  Biso   1.000  C
  C283     1.0000 0.63499  0.26520  0.82280  Biso   1.000  C
  H110     1.0000 0.63330  0.25070  0.79880  Biso   1.000  H
  C284     1.0000 0.60388  0.27140  0.84740  Biso   1.000  C
  C285     1.0000 0.60611  0.29280  0.88300  Biso   1.000  C
  H111     1.0000 0.58500  0.29690  0.89910  Biso   1.000  H
  C286     1.0000 0.63975  0.30820  0.89500  Biso   1.000  C
  C287     1.0000 0.67134  0.30265  0.87020  Biso   1.000  C
  H112     1.0000 0.69380  0.31350  0.87770  Biso   1.000  H
  C288     1.0000 0.64170  0.33160  0.93450  Biso   1.000  C
  O160     1.0000 0.37200  0.46530  0.05680  Biso   1.000  O
  O161     1.0000 0.71274  0.84618  0.80274  Biso   1.000  O
  O162     1.0000 0.70235  0.89006  0.75540  Biso   1.000  O
  O163     1.0000 0.74993  0.87756  0.94717  Biso   1.000  O
  O164     1.0000 0.78913  0.92468  0.95121  Biso   1.000  O
  O165     1.0000 0.78915  0.23252  0.81669  Biso   1.000  O
  O166     1.0000 0.75522  0.19730  0.77450  Biso   1.000  O
  O167     1.0000 0.84313  0.17307  0.94521  Biso   1.000  O
  O168     1.0000 0.83790  0.11212  0.95280  Biso   1.000  O
  O169     1.0000 0.97290  0.89790  0.03840  Biso   1.000  O
  N49      1.0000 0.72330  0.02556  0.79980  Biso   1.000  N
  N50      1.0000 0.73240  0.06208  0.80277  Biso   1.000  N
  H113     1.0000 0.72480  0.07920  0.78600  Biso   1.000  H
  N51      1.0000 0.76110  0.03570  0.85560  Biso   1.000  N
  C289     1.0000 0.71245  0.87963  0.79110  Biso   1.000  C
  C290     1.0000 0.72484  0.90785  0.82267  Biso   1.000  C
  C291     1.0000 0.73660  0.89586  0.86180  Biso   1.000  C
  H114     1.0000 0.73510  0.87080  0.86860  Biso   1.000  H
  C292     1.0000 0.75060  0.92085  0.89100  Biso   1.000  C
  C293     1.0000 0.75230  0.95861  0.88050  Biso   1.000  C
  H115     1.0000 0.76220  0.97550  0.89960  Biso   1.000  H
  C294     1.0000 0.73950  0.97101  0.84260  Biso   1.000  C
  C295     1.0000 0.72580  0.94544  0.81321  Biso   1.000  C
  H116     1.0000 0.71730  0.95370  0.78730  Biso   1.000  H
  C296     1.0000 0.74100  0.01119  0.83250  Biso   1.000  C
  C297     1.0000 0.75500  0.06762  0.83570  Biso   1.000  C
  C298     1.0000 0.76360  0.90739  0.93270  Biso   1.000  C
  C299     1.0000 0.77461  0.20236  0.80669  Biso   1.000  C
  C300     1.0000 0.78091  0.16906  0.83434  Biso   1.000  C
  C301     1.0000 0.76520  0.13499  0.82280  Biso   1.000  C
  H117     1.0000 0.75070  0.13330  0.79880  Biso   1.000  H
  C302     1.0000 0.77140  0.10388  0.84740  Biso   1.000  C
  C303     1.0000 0.79280  0.10611  0.88300  Biso   1.000  C
  H118     1.0000 0.79690  0.08500  0.89910  Biso   1.000  H
  C304     1.0000 0.80820  0.13975  0.89500  Biso   1.000  C
  C305     1.0000 0.80265  0.17134  0.87020  Biso   1.000  C
  H119     1.0000 0.81350  0.19380  0.87770  Biso   1.000  H
  C306     1.0000 0.83160  0.14170  0.93450  Biso   1.000  C
  O170     1.0000 0.96530  0.87200  0.05680  Biso   1.000  O
  O171     1.0000 0.21274  0.34618  0.30274  Biso   1.000  O
  O172     1.0000 0.20235  0.39006  0.25540  Biso   1.000  O
  O173     1.0000 0.24993  0.37756  0.44717  Biso   1.000  O
  O174     1.0000 0.28913  0.42468  0.45121  Biso   1.000  O
  O175     1.0000 0.28915  0.73252  0.31669  Biso   1.000  O
  O176     1.0000 0.25522  0.69730  0.27450  Biso   1.000  O
  O177     1.0000 0.34313  0.67307  0.44521  Biso   1.000  O
  O178     1.0000 0.33790  0.61212  0.45280  Biso   1.000  O
  O179     1.0000 0.47290  0.39790  0.53840  Biso   1.000  O
  N52      1.0000 0.22330  0.52556  0.29980  Biso   1.000  N
  N53      1.0000 0.23240  0.56208  0.30277  Biso   1.000  N
  H120     1.0000 0.22480  0.57920  0.28600  Biso   1.000  H
  N54      1.0000 0.26110  0.53570  0.35560  Biso   1.000  N
  C307     1.0000 0.21245  0.37963  0.29110  Biso   1.000  C
  C308     1.0000 0.22484  0.40785  0.32267  Biso   1.000  C
  C309     1.0000 0.23660  0.39586  0.36180  Biso   1.000  C
  H121     1.0000 0.23510  0.37080  0.36860  Biso   1.000  H
  C310     1.0000 0.25060  0.42085  0.39100  Biso   1.000  C
  C311     1.0000 0.25230  0.45861  0.38050  Biso   1.000  C
  H122     1.0000 0.26220  0.47550  0.39960  Biso   1.000  H
  C312     1.0000 0.23950  0.47101  0.34260  Biso   1.000  C
  C313     1.0000 0.22580  0.44544  0.31321  Biso   1.000  C
  H123     1.0000 0.21730  0.45370  0.28730  Biso   1.000  H
  C314     1.0000 0.24100  0.51119  0.33250  Biso   1.000  C
  C315     1.0000 0.25500  0.56762  0.33570  Biso   1.000  C
  C316     1.0000 0.26360  0.40739  0.43270  Biso   1.000  C
  C317     1.0000 0.27461  0.70236  0.30669  Biso   1.000  C
  C318     1.0000 0.28091  0.66906  0.33434  Biso   1.000  C
  C319     1.0000 0.26520  0.63499  0.32280  Biso   1.000  C
  H124     1.0000 0.25070  0.63330  0.29880  Biso   1.000  H
  C320     1.0000 0.27140  0.60388  0.34740  Biso   1.000  C
  C321     1.0000 0.29280  0.60611  0.38300  Biso   1.000  C
  H125     1.0000 0.29690  0.58500  0.39910  Biso   1.000  H
  C322     1.0000 0.30820  0.63975  0.39500  Biso   1.000  C
  C323     1.0000 0.30265  0.67134  0.37020  Biso   1.000  C
  H126     1.0000 0.31350  0.69380  0.37770  Biso   1.000  H
  C324     1.0000 0.33160  0.64170  0.43450  Biso   1.000  C
  O180     1.0000 0.46530  0.37200  0.55680  Biso   1.000  O
  O181     1.0000 0.28726  0.15382  0.80274  Biso   1.000  O
  O182     1.0000 0.29765  0.10994  0.75540  Biso   1.000  O
  O183     1.0000 0.25007  0.12244  0.94717  Biso   1.000  O
  O184     1.0000 0.21087  0.07532  0.95121  Biso   1.000  O
  O185     1.0000 0.21085  0.76748  0.81669  Biso   1.000  O
  O186     1.0000 0.24478  0.80270  0.77450  Biso   1.000  O
  O187     1.0000 0.15687  0.82693  0.94521  Biso   1.000  O
  O188     1.0000 0.16210  0.88788  0.95280  Biso   1.000  O
  O189     1.0000 0.02710  0.10210  0.03840  Biso   1.000  O
  N55      1.0000 0.27670  0.97444  0.79980  Biso   1.000  N
  N56      1.0000 0.26760  0.93792  0.80277  Biso   1.000  N
  H127     1.0000 0.27520  0.92080  0.78600  Biso   1.000  H
  N57      1.0000 0.23890  0.96430  0.85560  Biso   1.000  N
  C325     1.0000 0.28755  0.12037  0.79110  Biso   1.000  C
  C326     1.0000 0.27516  0.09215  0.82267  Biso   1.000  C
  C327     1.0000 0.26340  0.10414  0.86180  Biso   1.000  C
  H128     1.0000 0.26490  0.12920  0.86860  Biso   1.000  H
  C328     1.0000 0.24940  0.07915  0.89100  Biso   1.000  C
  C329     1.0000 0.24770  0.04139  0.88050  Biso   1.000  C
  H129     1.0000 0.23780  0.02450  0.89960  Biso   1.000  H
  C330     1.0000 0.26050  0.02899  0.84260  Biso   1.000  C
  C331     1.0000 0.27420  0.05456  0.81321  Biso   1.000  C
  H130     1.0000 0.28270  0.04630  0.78730  Biso   1.000  H
  C332     1.0000 0.25900  0.98881  0.83250  Biso   1.000  C
  C333     1.0000 0.24500  0.93238  0.83570  Biso   1.000  C
  C334     1.0000 0.23640  0.09261  0.93270  Biso   1.000  C
  C335     1.0000 0.22539  0.79764  0.80669  Biso   1.000  C
  C336     1.0000 0.21909  0.83094  0.83434  Biso   1.000  C
  C337     1.0000 0.23480  0.86501  0.82280  Biso   1.000  C
  H131     1.0000 0.24930  0.86670  0.79880  Biso   1.000  H
  C338     1.0000 0.22860  0.89612  0.84740  Biso   1.000  C
  C339     1.0000 0.20720  0.89389  0.88300  Biso   1.000  C
  H132     1.0000 0.20310  0.91500  0.89910  Biso   1.000  H
  C340     1.0000 0.19180  0.86025  0.89500  Biso   1.000  C
  C341     1.0000 0.19735  0.82866  0.87020  Biso   1.000  C
  H133     1.0000 0.18650  0.80620  0.87770  Biso   1.000  H
  C342     1.0000 0.16840  0.85830  0.93450  Biso   1.000  C
  O190     1.0000 0.03470  0.12800  0.05680  Biso   1.000  O
  O191     1.0000 0.78726  0.65382  0.30274  Biso   1.000  O
  O192     1.0000 0.79765  0.60994  0.25540  Biso   1.000  O
  O193     1.0000 0.75007  0.62244  0.44717  Biso   1.000  O
  O194     1.0000 0.71087  0.57532  0.45121  Biso   1.000  O
  O195     1.0000 0.71085  0.26748  0.31669  Biso   1.000  O
  O196     1.0000 0.74478  0.30270  0.27450  Biso   1.000  O
  O197     1.0000 0.65687  0.32693  0.44521  Biso   1.000  O
  O198     1.0000 0.66210  0.38788  0.45280  Biso   1.000  O
  O199     1.0000 0.52710  0.60210  0.53840  Biso   1.000  O
  N58      1.0000 0.77670  0.47444  0.29980  Biso   1.000  N
  N59      1.0000 0.76760  0.43792  0.30277  Biso   1.000  N
  H134     1.0000 0.77520  0.42080  0.28600  Biso   1.000  H
  N60      1.0000 0.73890  0.46430  0.35560  Biso   1.000  N
  C343     1.0000 0.78755  0.62037  0.29110  Biso   1.000  C
  C344     1.0000 0.77516  0.59215  0.32267  Biso   1.000  C
  C345     1.0000 0.76340  0.60414  0.36180  Biso   1.000  C
  H135     1.0000 0.76490  0.62920  0.36860  Biso   1.000  H
  C346     1.0000 0.74940  0.57915  0.39100  Biso   1.000  C
  C347     1.0000 0.74770  0.54139  0.38050  Biso   1.000  C
  H136     1.0000 0.73780  0.52450  0.39960  Biso   1.000  H
  C348     1.0000 0.76050  0.52899  0.34260  Biso   1.000  C
  C349     1.0000 0.77420  0.55456  0.31321  Biso   1.000  C
  H137     1.0000 0.78270  0.54630  0.28730  Biso   1.000  H
  C350     1.0000 0.75900  0.48881  0.33250  Biso   1.000  C
  C351     1.0000 0.74500  0.43238  0.33570  Biso   1.000  C
  C352     1.0000 0.73640  0.59261  0.43270  Biso   1.000  C
  C353     1.0000 0.72539  0.29764  0.30669  Biso   1.000  C
  C354     1.0000 0.71909  0.33094  0.33434  Biso   1.000  C
  C355     1.0000 0.73480  0.36501  0.32280  Biso   1.000  C
  H138     1.0000 0.74930  0.36670  0.29880  Biso   1.000  H
  C356     1.0000 0.72860  0.39612  0.34740  Biso   1.000  C
  C357     1.0000 0.70720  0.39389  0.38300  Biso   1.000  C
  H139     1.0000 0.70310  0.41500  0.39910  Biso   1.000  H
  C358     1.0000 0.69180  0.36025  0.39500  Biso   1.000  C
  C359     1.0000 0.69735  0.32866  0.37020  Biso   1.000  C
  H140     1.0000 0.68650  0.30620  0.37770  Biso   1.000  H
  C360     1.0000 0.66840  0.35830  0.43450  Biso   1.000  C
  O200     1.0000 0.53470  0.62800  0.55680  Biso   1.000  O
  O201     1.0000 0.15382  0.71274  0.80274  Biso   1.000  O
  O202     1.0000 0.10994  0.70235  0.75540  Biso   1.000  O
  O203     1.0000 0.12244  0.74993  0.94717  Biso   1.000  O
  O204     1.0000 0.07532  0.78913  0.95121  Biso   1.000  O
  O205     1.0000 0.76748  0.78915  0.81669  Biso   1.000  O
  O206     1.0000 0.80270  0.75522  0.77450  Biso   1.000  O
  O207     1.0000 0.82693  0.84313  0.94521  Biso   1.000  O
  O208     1.0000 0.88788  0.83790  0.95280  Biso   1.000  O
  O209     1.0000 0.10210  0.97290  0.03840  Biso   1.000  O
  N61      1.0000 0.97444  0.72330  0.79980  Biso   1.000  N
  N62      1.0000 0.93792  0.73240  0.80277  Biso   1.000  N
  H141     1.0000 0.92080  0.72480  0.78600  Biso   1.000  H
  N63      1.0000 0.96430  0.76110  0.85560  Biso   1.000  N
  C361     1.0000 0.12037  0.71245  0.79110  Biso   1.000  C
  C362     1.0000 0.09215  0.72484  0.82267  Biso   1.000  C
  C363     1.0000 0.10414  0.73660  0.86180  Biso   1.000  C
  H142     1.0000 0.12920  0.73510  0.86860  Biso   1.000  H
  C364     1.0000 0.07915  0.75060  0.89100  Biso   1.000  C
  C365     1.0000 0.04139  0.75230  0.88050  Biso   1.000  C
  H143     1.0000 0.02450  0.76220  0.89960  Biso   1.000  H
  C366     1.0000 0.02899  0.73950  0.84260  Biso   1.000  C
  C367     1.0000 0.05456  0.72580  0.81321  Biso   1.000  C
  H144     1.0000 0.04630  0.71730  0.78730  Biso   1.000  H
  C368     1.0000 0.98881  0.74100  0.83250  Biso   1.000  C
  C369     1.0000 0.93238  0.75500  0.83570  Biso   1.000  C
  C370     1.0000 0.09261  0.76360  0.93270  Biso   1.000  C
  C371     1.0000 0.79764  0.77461  0.80669  Biso   1.000  C
  C372     1.0000 0.83094  0.78091  0.83434  Biso   1.000  C
  C373     1.0000 0.86501  0.76520  0.82280  Biso   1.000  C
  H145     1.0000 0.86670  0.75070  0.79880  Biso   1.000  H
  C374     1.0000 0.89612  0.77140  0.84740  Biso   1.000  C
  C375     1.0000 0.89389  0.79280  0.88300  Biso   1.000  C
  H146     1.0000 0.91500  0.79690  0.89910  Biso   1.000  H
  C376     1.0000 0.86025  0.80820  0.89500  Biso   1.000  C
  C377     1.0000 0.82866  0.80265  0.87020  Biso   1.000  C
  H147     1.0000 0.80620  0.81350  0.87770  Biso   1.000  H
  C378     1.0000 0.85830  0.83160  0.93450  Biso   1.000  C
  O210     1.0000 0.12800  0.96530  0.05680  Biso   1.000  O
  O211     1.0000 0.65382  0.21274  0.30274  Biso   1.000  O
  O212     1.0000 0.60994  0.20235  0.25540  Biso   1.000  O
  O213     1.0000 0.62244  0.24993  0.44717  Biso   1.000  O
  O214     1.0000 0.57532  0.28913  0.45121  Biso   1.000  O
  O215     1.0000 0.26748  0.28915  0.31669  Biso   1.000  O
  O216     1.0000 0.30270  0.25522  0.27450  Biso   1.000  O
  O217     1.0000 0.32693  0.34313  0.44521  Biso   1.000  O
  O218     1.0000 0.38788  0.33790  0.45280  Biso   1.000  O
  O219     1.0000 0.60210  0.47290  0.53840  Biso   1.000  O
  N64      1.0000 0.47444  0.22330  0.29980  Biso   1.000  N
  N65      1.0000 0.43792  0.23240  0.30277  Biso   1.000  N
  H148     1.0000 0.42080  0.22480  0.28600  Biso   1.000  H
  N66      1.0000 0.46430  0.26110  0.35560  Biso   1.000  N
  C379     1.0000 0.62037  0.21245  0.29110  Biso   1.000  C
  C380     1.0000 0.59215  0.22484  0.32267  Biso   1.000  C
  C381     1.0000 0.60414  0.23660  0.36180  Biso   1.000  C
  H149     1.0000 0.62920  0.23510  0.36860  Biso   1.000  H
  C382     1.0000 0.57915  0.25060  0.39100  Biso   1.000  C
  C383     1.0000 0.54139  0.25230  0.38050  Biso   1.000  C
  H150     1.0000 0.52450  0.26220  0.39960  Biso   1.000  H
  C384     1.0000 0.52899  0.23950  0.34260  Biso   1.000  C
  C385     1.0000 0.55456  0.22580  0.31321  Biso   1.000  C
  H151     1.0000 0.54630  0.21730  0.28730  Biso   1.000  H
  C386     1.0000 0.48881  0.24100  0.33250  Biso   1.000  C
  C387     1.0000 0.43238  0.25500  0.33570  Biso   1.000  C
  C388     1.0000 0.59261  0.26360  0.43270  Biso   1.000  C
  C389     1.0000 0.29764  0.27461  0.30669  Biso   1.000  C
  C390     1.0000 0.33094  0.28091  0.33434  Biso   1.000  C
  C391     1.0000 0.36501  0.26520  0.32280  Biso   1.000  C
  H152     1.0000 0.36670  0.25070  0.29880  Biso   1.000  H
  C392     1.0000 0.39612  0.27140  0.34740  Biso   1.000  C
  C393     1.0000 0.39389  0.29280  0.38300  Biso   1.000  C
  H153     1.0000 0.41500  0.29690  0.39910  Biso   1.000  H
  C394     1.0000 0.36025  0.30820  0.39500  Biso   1.000  C
  C395     1.0000 0.32866  0.30265  0.37020  Biso   1.000  C
  H154     1.0000 0.30620  0.31350  0.37770  Biso   1.000  H
  C396     1.0000 0.35830  0.33160  0.43450  Biso   1.000  C
  O220     1.0000 0.62800  0.46530  0.55680  Biso   1.000  O
  O221     1.0000 0.84618  0.28726  0.80274  Biso   1.000  O
  O222     1.0000 0.89006  0.29765  0.75540  Biso   1.000  O
  O223     1.0000 0.87756  0.25007  0.94717  Biso   1.000  O
  O224     1.0000 0.92468  0.21087  0.95121  Biso   1.000  O
  O225     1.0000 0.23252  0.21085  0.81669  Biso   1.000  O
  O226     1.0000 0.19730  0.24478  0.77450  Biso   1.000  O
  O227     1.0000 0.17307  0.15687  0.94521  Biso   1.000  O
  O228     1.0000 0.11212  0.16210  0.95280  Biso   1.000  O
  O229     1.0000 0.89790  0.02710  0.03840  Biso   1.000  O
  N67      1.0000 0.02556  0.27670  0.79980  Biso   1.000  N
  N68      1.0000 0.06208  0.26760  0.80277  Biso   1.000  N
  H155     1.0000 0.07920  0.27520  0.78600  Biso   1.000  H
  N69      1.0000 0.03570  0.23890  0.85560  Biso   1.000  N
  C397     1.0000 0.87963  0.28755  0.79110  Biso   1.000  C
  C398     1.0000 0.90785  0.27516  0.82267  Biso   1.000  C
  C399     1.0000 0.89586  0.26340  0.86180  Biso   1.000  C
  H156     1.0000 0.87080  0.26490  0.86860  Biso   1.000  H
  C400     1.0000 0.92085  0.24940  0.89100  Biso   1.000  C
  C401     1.0000 0.95861  0.24770  0.88050  Biso   1.000  C
  H157     1.0000 0.97550  0.23780  0.89960  Biso   1.000  H
  C402     1.0000 0.97101  0.26050  0.84260  Biso   1.000  C
  C403     1.0000 0.94544  0.27420  0.81321  Biso   1.000  C
  H158     1.0000 0.95370  0.28270  0.78730  Biso   1.000  H
  C404     1.0000 0.01119  0.25900  0.83250  Biso   1.000  C
  C405     1.0000 0.06762  0.24500  0.83570  Biso   1.000  C
  C406     1.0000 0.90739  0.23640  0.93270  Biso   1.000  C
  C407     1.0000 0.20236  0.22539  0.80669  Biso   1.000  C
  C408     1.0000 0.16906  0.21909  0.83434  Biso   1.000  C
  C409     1.0000 0.13499  0.23480  0.82280  Biso   1.000  C
  H159     1.0000 0.13330  0.24930  0.79880  Biso   1.000  H
  C410     1.0000 0.10388  0.22860  0.84740  Biso   1.000  C
  C411     1.0000 0.10611  0.20720  0.88300  Biso   1.000  C
  H160     1.0000 0.08500  0.20310  0.89910  Biso   1.000  H
  C412     1.0000 0.13975  0.19180  0.89500  Biso   1.000  C
  C413     1.0000 0.17134  0.19735  0.87020  Biso   1.000  C
  H161     1.0000 0.19380  0.18650  0.87770  Biso   1.000  H
  C414     1.0000 0.14170  0.16840  0.93450  Biso   1.000  C
  O230     1.0000 0.87200  0.03470  0.05680  Biso   1.000  O
  O231     1.0000 0.34618  0.78726  0.30274  Biso   1.000  O
  O232     1.0000 0.39006  0.79765  0.25540  Biso   1.000  O
  O233     1.0000 0.37756  0.75007  0.44717  Biso   1.000  O
  O234     1.0000 0.42468  0.71087  0.45121  Biso   1.000  O
  O235     1.0000 0.73252  0.71085  0.31669  Biso   1.000  O
  O236     1.0000 0.69730  0.74478  0.27450  Biso   1.000  O
  O237     1.0000 0.67307  0.65687  0.44521  Biso   1.000  O
  O238     1.0000 0.61212  0.66210  0.45280  Biso   1.000  O
  O239     1.0000 0.39790  0.52710  0.53840  Biso   1.000  O
  N70      1.0000 0.52556  0.77670  0.29980  Biso   1.000  N
  N71      1.0000 0.56208  0.76760  0.30277  Biso   1.000  N
  H162     1.0000 0.57920  0.77520  0.28600  Biso   1.000  H
  N72      1.0000 0.53570  0.73890  0.35560  Biso   1.000  N
  C415     1.0000 0.37963  0.78755  0.29110  Biso   1.000  C
  C416     1.0000 0.40785  0.77516  0.32267  Biso   1.000  C
  C417     1.0000 0.39586  0.76340  0.36180  Biso   1.000  C
  H163     1.0000 0.37080  0.76490  0.36860  Biso   1.000  H
  C418     1.0000 0.42085  0.74940  0.39100  Biso   1.000  C
  C419     1.0000 0.45861  0.74770  0.38050  Biso   1.000  C
  H164     1.0000 0.47550  0.73780  0.39960  Biso   1.000  H
  C420     1.0000 0.47101  0.76050  0.34260  Biso   1.000  C
  C421     1.0000 0.44544  0.77420  0.31321  Biso   1.000  C
  H165     1.0000 0.45370  0.78270  0.28730  Biso   1.000  H
  C422     1.0000 0.51119  0.75900  0.33250  Biso   1.000  C
  C423     1.0000 0.56762  0.74500  0.33570  Biso   1.000  C
  C424     1.0000 0.40739  0.73640  0.43270  Biso   1.000  C
  C425     1.0000 0.70236  0.72539  0.30669  Biso   1.000  C
  C426     1.0000 0.66906  0.71909  0.33434  Biso   1.000  C
  C427     1.0000 0.63499  0.73480  0.32280  Biso   1.000  C
  H166     1.0000 0.63330  0.74930  0.29880  Biso   1.000  H
  C428     1.0000 0.60388  0.72860  0.34740  Biso   1.000  C
  C429     1.0000 0.60611  0.70720  0.38300  Biso   1.000  C
  H167     1.0000 0.58500  0.70310  0.39910  Biso   1.000  H
  C430     1.0000 0.63975  0.69180  0.39500  Biso   1.000  C
  C431     1.0000 0.67134  0.69735  0.37020  Biso   1.000  C
  H168     1.0000 0.69380  0.68650  0.37770  Biso   1.000  H
  C432     1.0000 0.64170  0.66840  0.43450  Biso   1.000  C
  O240     1.0000 0.37200  0.53470  0.55680  Biso   1.000  O
  O241     1.0000 0.28726  0.84618  0.69726  Biso   1.000  O
  O242     1.0000 0.29765  0.89006  0.74460  Biso   1.000  O
  O243     1.0000 0.25007  0.87756  0.55283  Biso   1.000  O
  O244     1.0000 0.21087  0.92468  0.54879  Biso   1.000  O
  O245     1.0000 0.21085  0.23252  0.68331  Biso   1.000  O
  O246     1.0000 0.24478  0.19730  0.72550  Biso   1.000  O
  O247     1.0000 0.15687  0.17307  0.55479  Biso   1.000  O
  O248     1.0000 0.16210  0.11212  0.54720  Biso   1.000  O
  O249     1.0000 0.02710  0.89790  0.46160  Biso   1.000  O
  N73      1.0000 0.27670  0.02556  0.70020  Biso   1.000  N
  N74      1.0000 0.26760  0.06208  0.69723  Biso   1.000  N
  H169     1.0000 0.27520  0.07920  0.71400  Biso   1.000  H
  N75      1.0000 0.23890  0.03570  0.64440  Biso   1.000  N
  C433     1.0000 0.28755  0.87963  0.70890  Biso   1.000  C
  C434     1.0000 0.27516  0.90785  0.67733  Biso   1.000  C
  C435     1.0000 0.26340  0.89586  0.63820  Biso   1.000  C
  H170     1.0000 0.26490  0.87080  0.63140  Biso   1.000  H
  C436     1.0000 0.24940  0.92085  0.60900  Biso   1.000  C
  C437     1.0000 0.24770  0.95861  0.61950  Biso   1.000  C
  H171     1.0000 0.23780  0.97550  0.60040  Biso   1.000  H
  C438     1.0000 0.26050  0.97101  0.65740  Biso   1.000  C
  C439     1.0000 0.27420  0.94544  0.68679  Biso   1.000  C
  H172     1.0000 0.28270  0.95370  0.71270  Biso   1.000  H
  C440     1.0000 0.25900  0.01119  0.66750  Biso   1.000  C
  C441     1.0000 0.24500  0.06762  0.66430  Biso   1.000  C
  C442     1.0000 0.23640  0.90739  0.56730  Biso   1.000  C
  C443     1.0000 0.22539  0.20236  0.69331  Biso   1.000  C
  C444     1.0000 0.21909  0.16906  0.66566  Biso   1.000  C
  C445     1.0000 0.23480  0.13499  0.67720  Biso   1.000  C
  H173     1.0000 0.24930  0.13330  0.70120  Biso   1.000  H
  C446     1.0000 0.22860  0.10388  0.65260  Biso   1.000  C
  C447     1.0000 0.20720  0.10611  0.61700  Biso   1.000  C
  H174     1.0000 0.20310  0.08500  0.60090  Biso   1.000  H
  C448     1.0000 0.19180  0.13975  0.60500  Biso   1.000  C
  C449     1.0000 0.19735  0.17134  0.62980  Biso   1.000  C
  H175     1.0000 0.18650  0.19380  0.62230  Biso   1.000  H
  C450     1.0000 0.16840  0.14170  0.56550  Biso   1.000  C
  O250     1.0000 0.03470  0.87200  0.44320  Biso   1.000  O
  O251     1.0000 0.78726  0.34618  0.19726  Biso   1.000  O
  O252     1.0000 0.79765  0.39006  0.24460  Biso   1.000  O
  O253     1.0000 0.75007  0.37756  0.05283  Biso   1.000  O
  O254     1.0000 0.71087  0.42468  0.04879  Biso   1.000  O
  O255     1.0000 0.71085  0.73252  0.18331  Biso   1.000  O
  O256     1.0000 0.74478  0.69730  0.22550  Biso   1.000  O
  O257     1.0000 0.65687  0.67307  0.05479  Biso   1.000  O
  O258     1.0000 0.66210  0.61212  0.04720  Biso   1.000  O
  O259     1.0000 0.52710  0.39790  0.96160  Biso   1.000  O
  N76      1.0000 0.77670  0.52556  0.20020  Biso   1.000  N
  N77      1.0000 0.76760  0.56208  0.19723  Biso   1.000  N
  H176     1.0000 0.77520  0.57920  0.21400  Biso   1.000  H
  N78      1.0000 0.73890  0.53570  0.14440  Biso   1.000  N
  C451     1.0000 0.78755  0.37963  0.20890  Biso   1.000  C
  C452     1.0000 0.77516  0.40785  0.17733  Biso   1.000  C
  C453     1.0000 0.76340  0.39586  0.13820  Biso   1.000  C
  H177     1.0000 0.76490  0.37080  0.13140  Biso   1.000  H
  C454     1.0000 0.74940  0.42085  0.10900  Biso   1.000  C
  C455     1.0000 0.74770  0.45861  0.11950  Biso   1.000  C
  H178     1.0000 0.73780  0.47550  0.10040  Biso   1.000  H
  C456     1.0000 0.76050  0.47101  0.15740  Biso   1.000  C
  C457     1.0000 0.77420  0.44544  0.18679  Biso   1.000  C
  H179     1.0000 0.78270  0.45370  0.21270  Biso   1.000  H
  C458     1.0000 0.75900  0.51119  0.16750  Biso   1.000  C
  C459     1.0000 0.74500  0.56762  0.16430  Biso   1.000  C
  C460     1.0000 0.73640  0.40739  0.06730  Biso   1.000  C
  C461     1.0000 0.72539  0.70236  0.19331  Biso   1.000  C
  C462     1.0000 0.71909  0.66906  0.16566  Biso   1.000  C
  C463     1.0000 0.73480  0.63499  0.17720  Biso   1.000  C
  H180     1.0000 0.74930  0.63330  0.20120  Biso   1.000  H
  C464     1.0000 0.72860  0.60388  0.15260  Biso   1.000  C
  C465     1.0000 0.70720  0.60611  0.11700  Biso   1.000  C
  H181     1.0000 0.70310  0.58500  0.10090  Biso   1.000  H
  C466     1.0000 0.69180  0.63975  0.10500  Biso   1.000  C
  C467     1.0000 0.69735  0.67134  0.12980  Biso   1.000  C
  H182     1.0000 0.68650  0.69380  0.12230  Biso   1.000  H
  C468     1.0000 0.66840  0.64170  0.06550  Biso   1.000  C
  O260     1.0000 0.53470  0.37200  0.94320  Biso   1.000  O
  O261     1.0000 0.71274  0.15382  0.69726  Biso   1.000  O
  O262     1.0000 0.70235  0.10994  0.74460  Biso   1.000  O
  O263     1.0000 0.74993  0.12244  0.55283  Biso   1.000  O
  O264     1.0000 0.78913  0.07532  0.54879  Biso   1.000  O
  O265     1.0000 0.78915  0.76748  0.68331  Biso   1.000  O
  O266     1.0000 0.75522  0.80270  0.72550  Biso   1.000  O
  O267     1.0000 0.84313  0.82693  0.55479  Biso   1.000  O
  O268     1.0000 0.83790  0.88788  0.54720  Biso   1.000  O
  O269     1.0000 0.97290  0.10210  0.46160  Biso   1.000  O
  N79      1.0000 0.72330  0.97444  0.70020  Biso   1.000  N
  N80      1.0000 0.73240  0.93792  0.69723  Biso   1.000  N
  H183     1.0000 0.72480  0.92080  0.71400  Biso   1.000  H
  N81      1.0000 0.76110  0.96430  0.64440  Biso   1.000  N
  C469     1.0000 0.71245  0.12037  0.70890  Biso   1.000  C
  C470     1.0000 0.72484  0.09215  0.67733  Biso   1.000  C
  C471     1.0000 0.73660  0.10414  0.63820  Biso   1.000  C
  H184     1.0000 0.73510  0.12920  0.63140  Biso   1.000  H
  C472     1.0000 0.75060  0.07915  0.60900  Biso   1.000  C
  C473     1.0000 0.75230  0.04139  0.61950  Biso   1.000  C
  H185     1.0000 0.76220  0.02450  0.60040  Biso   1.000  H
  C474     1.0000 0.73950  0.02899  0.65740  Biso   1.000  C
  C475     1.0000 0.72580  0.05456  0.68679  Biso   1.000  C
  H186     1.0000 0.71730  0.04630  0.71270  Biso   1.000  H
  C476     1.0000 0.74100  0.98881  0.66750  Biso   1.000  C
  C477     1.0000 0.75500  0.93238  0.66430  Biso   1.000  C
  C478     1.0000 0.76360  0.09261  0.56730  Biso   1.000  C
  C479     1.0000 0.77461  0.79764  0.69331  Biso   1.000  C
  C480     1.0000 0.78091  0.83094  0.66566  Biso   1.000  C
  C481     1.0000 0.76520  0.86501  0.67720  Biso   1.000  C
  H187     1.0000 0.75070  0.86670  0.70120  Biso   1.000  H
  C482     1.0000 0.77140  0.89612  0.65260  Biso   1.000  C
  C483     1.0000 0.79280  0.89389  0.61700  Biso   1.000  C
  H188     1.0000 0.79690  0.91500  0.60090  Biso   1.000  H
  C484     1.0000 0.80820  0.86025  0.60500  Biso   1.000  C
  C485     1.0000 0.80265  0.82866  0.62980  Biso   1.000  C
  H189     1.0000 0.81350  0.80620  0.62230  Biso   1.000  H
  C486     1.0000 0.83160  0.85830  0.56550  Biso   1.000  C
  O270     1.0000 0.96530  0.12800  0.44320  Biso   1.000  O
  O271     1.0000 0.21274  0.65382  0.19726  Biso   1.000  O
  O272     1.0000 0.20235  0.60994  0.24460  Biso   1.000  O
  O273     1.0000 0.24993  0.62244  0.05283  Biso   1.000  O
  O274     1.0000 0.28913  0.57532  0.04879  Biso   1.000  O
  O275     1.0000 0.28915  0.26748  0.18331  Biso   1.000  O
  O276     1.0000 0.25522  0.30270  0.22550  Biso   1.000  O
  O277     1.0000 0.34313  0.32693  0.05479  Biso   1.000  O
  O278     1.0000 0.33790  0.38788  0.04720  Biso   1.000  O
  O279     1.0000 0.47290  0.60210  0.96160  Biso   1.000  O
  N82      1.0000 0.22330  0.47444  0.20020  Biso   1.000  N
  N83      1.0000 0.23240  0.43792  0.19723  Biso   1.000  N
  H190     1.0000 0.22480  0.42080  0.21400  Biso   1.000  H
  N84      1.0000 0.26110  0.46430  0.14440  Biso   1.000  N
  C487     1.0000 0.21245  0.62037  0.20890  Biso   1.000  C
  C488     1.0000 0.22484  0.59215  0.17733  Biso   1.000  C
  C489     1.0000 0.23660  0.60414  0.13820  Biso   1.000  C
  H191     1.0000 0.23510  0.62920  0.13140  Biso   1.000  H
  C490     1.0000 0.25060  0.57915  0.10900  Biso   1.000  C
  C491     1.0000 0.25230  0.54139  0.11950  Biso   1.000  C
  H192     1.0000 0.26220  0.52450  0.10040  Biso   1.000  H
  C492     1.0000 0.23950  0.52899  0.15740  Biso   1.000  C
  C493     1.0000 0.22580  0.55456  0.18679  Biso   1.000  C
  H193     1.0000 0.21730  0.54630  0.21270  Biso   1.000  H
  C494     1.0000 0.24100  0.48881  0.16750  Biso   1.000  C
  C495     1.0000 0.25500  0.43238  0.16430  Biso   1.000  C
  C496     1.0000 0.26360  0.59261  0.06730  Biso   1.000  C
  C497     1.0000 0.27461  0.29764  0.19331  Biso   1.000  C
  C498     1.0000 0.28091  0.33094  0.16566  Biso   1.000  C
  C499     1.0000 0.26520  0.36501  0.17720  Biso   1.000  C
  H194     1.0000 0.25070  0.36670  0.20120  Biso   1.000  H
  C500     1.0000 0.27140  0.39612  0.15260  Biso   1.000  C
  C501     1.0000 0.29280  0.39389  0.11700  Biso   1.000  C
  H195     1.0000 0.29690  0.41500  0.10090  Biso   1.000  H
  C502     1.0000 0.30820  0.36025  0.10500  Biso   1.000  C
  C503     1.0000 0.30265  0.32866  0.12980  Biso   1.000  C
  H196     1.0000 0.31350  0.30620  0.12230  Biso   1.000  H
  C504     1.0000 0.33160  0.35830  0.06550  Biso   1.000  C
  O280     1.0000 0.46530  0.62800  0.94320  Biso   1.000  O
  O281     1.0000 0.84618  0.71274  0.69726  Biso   1.000  O
  O282     1.0000 0.89006  0.70235  0.74460  Biso   1.000  O
  O283     1.0000 0.87756  0.74993  0.55283  Biso   1.000  O
  O284     1.0000 0.92468  0.78913  0.54879  Biso   1.000  O
  O285     1.0000 0.23252  0.78915  0.68331  Biso   1.000  O
  O286     1.0000 0.19730  0.75522  0.72550  Biso   1.000  O
  O287     1.0000 0.17307  0.84313  0.55479  Biso   1.000  O
  O288     1.0000 0.11212  0.83790  0.54720  Biso   1.000  O
  O289     1.0000 0.89790  0.97290  0.46160  Biso   1.000  O
  N85      1.0000 0.02556  0.72330  0.70020  Biso   1.000  N
  N86      1.0000 0.06208  0.73240  0.69723  Biso   1.000  N
  H197     1.0000 0.07920  0.72480  0.71400  Biso   1.000  H
  N87      1.0000 0.03570  0.76110  0.64440  Biso   1.000  N
  C505     1.0000 0.87963  0.71245  0.70890  Biso   1.000  C
  C506     1.0000 0.90785  0.72484  0.67733  Biso   1.000  C
  C507     1.0000 0.89586  0.73660  0.63820  Biso   1.000  C
  H198     1.0000 0.87080  0.73510  0.63140  Biso   1.000  H
  C508     1.0000 0.92085  0.75060  0.60900  Biso   1.000  C
  C509     1.0000 0.95861  0.75230  0.61950  Biso   1.000  C
  H199     1.0000 0.97550  0.76220  0.60040  Biso   1.000  H
  C510     1.0000 0.97101  0.73950  0.65740  Biso   1.000  C
  C511     1.0000 0.94544  0.72580  0.68679  Biso   1.000  C
  H200     1.0000 0.95370  0.71730  0.71270  Biso   1.000  H
  C512     1.0000 0.01119  0.74100  0.66750  Biso   1.000  C
  C513     1.0000 0.06762  0.75500  0.66430  Biso   1.000  C
  C514     1.0000 0.90739  0.76360  0.56730  Biso   1.000  C
  C515     1.0000 0.20236  0.77461  0.69331  Biso   1.000  C
  C516     1.0000 0.16906  0.78091  0.66566  Biso   1.000  C
  C517     1.0000 0.13499  0.76520  0.67720  Biso   1.000  C
  H201     1.0000 0.13330  0.75070  0.70120  Biso   1.000  H
  C518     1.0000 0.10388  0.77140  0.65260  Biso   1.000  C
  C519     1.0000 0.10611  0.79280  0.61700  Biso   1.000  C
  H202     1.0000 0.08500  0.79690  0.60090  Biso   1.000  H
  C520     1.0000 0.13975  0.80820  0.60500  Biso   1.000  C
  C521     1.0000 0.17134  0.80265  0.62980  Biso   1.000  C
  H203     1.0000 0.19380  0.81350  0.62230  Biso   1.000  H
  C522     1.0000 0.14170  0.83160  0.56550  Biso   1.000  C
  O290     1.0000 0.87200  0.96530  0.44320  Biso   1.000  O
  O291     1.0000 0.34618  0.21274  0.19726  Biso   1.000  O
  O292     1.0000 0.39006  0.20235  0.24460  Biso   1.000  O
  O293     1.0000 0.37756  0.24993  0.05283  Biso   1.000  O
  O294     1.0000 0.42468  0.28913  0.04879  Biso   1.000  O
  O295     1.0000 0.73252  0.28915  0.18331  Biso   1.000  O
  O296     1.0000 0.69730  0.25522  0.22550  Biso   1.000  O
  O297     1.0000 0.67307  0.34313  0.05479  Biso   1.000  O
  O298     1.0000 0.61212  0.33790  0.04720  Biso   1.000  O
  O299     1.0000 0.39790  0.47290  0.96160  Biso   1.000  O
  N88      1.0000 0.52556  0.22330  0.20020  Biso   1.000  N
  N89      1.0000 0.56208  0.23240  0.19723  Biso   1.000  N
  H204     1.0000 0.57920  0.22480  0.21400  Biso   1.000  H
  N90      1.0000 0.53570  0.26110  0.14440  Biso   1.000  N
  C523     1.0000 0.37963  0.21245  0.20890  Biso   1.000  C
  C524     1.0000 0.40785  0.22484  0.17733  Biso   1.000  C
  C525     1.0000 0.39586  0.23660  0.13820  Biso   1.000  C
  H205     1.0000 0.37080  0.23510  0.13140  Biso   1.000  H
  C526     1.0000 0.42085  0.25060  0.10900  Biso   1.000  C
  C527     1.0000 0.45861  0.25230  0.11950  Biso   1.000  C
  H206     1.0000 0.47550  0.26220  0.10040  Biso   1.000  H
  C528     1.0000 0.47101  0.23950  0.15740  Biso   1.000  C
  C529     1.0000 0.44544  0.22580  0.18679  Biso   1.000  C
  H207     1.0000 0.45370  0.21730  0.21270  Biso   1.000  H
  C530     1.0000 0.51119  0.24100  0.16750  Biso   1.000  C
  C531     1.0000 0.56762  0.25500  0.16430  Biso   1.000  C
  C532     1.0000 0.40739  0.26360  0.06730  Biso   1.000  C
  C533     1.0000 0.70236  0.27461  0.19331  Biso   1.000  C
  C534     1.0000 0.66906  0.28091  0.16566  Biso   1.000  C
  C535     1.0000 0.63499  0.26520  0.17720  Biso   1.000  C
  H208     1.0000 0.63330  0.25070  0.20120  Biso   1.000  H
  C536     1.0000 0.60388  0.27140  0.15260  Biso   1.000  C
  C537     1.0000 0.60611  0.29280  0.11700  Biso   1.000  C
  H209     1.0000 0.58500  0.29690  0.10090  Biso   1.000  H
  C538     1.0000 0.63975  0.30820  0.10500  Biso   1.000  C
  C539     1.0000 0.67134  0.30265  0.12980  Biso   1.000  C
  H210     1.0000 0.69380  0.31350  0.12230  Biso   1.000  H
  C540     1.0000 0.64170  0.33160  0.06550  Biso   1.000  C
  O300     1.0000 0.37200  0.46530  0.94320  Biso   1.000  O
  O301     1.0000 0.15382  0.28726  0.69726  Biso   1.000  O
  O302     1.0000 0.10994  0.29765  0.74460  Biso   1.000  O
  O303     1.0000 0.12244  0.25007  0.55283  Biso   1.000  O
  O304     1.0000 0.07532  0.21087  0.54879  Biso   1.000  O
  O305     1.0000 0.76748  0.21085  0.68331  Biso   1.000  O
  O306     1.0000 0.80270  0.24478  0.72550  Biso   1.000  O
  O307     1.0000 0.82693  0.15687  0.55479  Biso   1.000  O
  O308     1.0000 0.88788  0.16210  0.54720  Biso   1.000  O
  O309     1.0000 0.10210  0.02710  0.46160  Biso   1.000  O
  N91      1.0000 0.97444  0.27670  0.70020  Biso   1.000  N
  N92      1.0000 0.93792  0.26760  0.69723  Biso   1.000  N
  H211     1.0000 0.92080  0.27520  0.71400  Biso   1.000  H
  N93      1.0000 0.96430  0.23890  0.64440  Biso   1.000  N
  C541     1.0000 0.12037  0.28755  0.70890  Biso   1.000  C
  C542     1.0000 0.09215  0.27516  0.67733  Biso   1.000  C
  C543     1.0000 0.10414  0.26340  0.63820  Biso   1.000  C
  H212     1.0000 0.12920  0.26490  0.63140  Biso   1.000  H
  C544     1.0000 0.07915  0.24940  0.60900  Biso   1.000  C
  C545     1.0000 0.04139  0.24770  0.61950  Biso   1.000  C
  H213     1.0000 0.02450  0.23780  0.60040  Biso   1.000  H
  C546     1.0000 0.02899  0.26050  0.65740  Biso   1.000  C
  C547     1.0000 0.05456  0.27420  0.68679  Biso   1.000  C
  H214     1.0000 0.04630  0.28270  0.71270  Biso   1.000  H
  C548     1.0000 0.98881  0.25900  0.66750  Biso   1.000  C
  C549     1.0000 0.93238  0.24500  0.66430  Biso   1.000  C
  C550     1.0000 0.09261  0.23640  0.56730  Biso   1.000  C
  C551     1.0000 0.79764  0.22539  0.69331  Biso   1.000  C
  C552     1.0000 0.83094  0.21909  0.66566  Biso   1.000  C
  C553     1.0000 0.86501  0.23480  0.67720  Biso   1.000  C
  H215     1.0000 0.86670  0.24930  0.70120  Biso   1.000  H
  C554     1.0000 0.89612  0.22860  0.65260  Biso   1.000  C
  C555     1.0000 0.89389  0.20720  0.61700  Biso   1.000  C
  H216     1.0000 0.91500  0.20310  0.60090  Biso   1.000  H
  C556     1.0000 0.86025  0.19180  0.60500  Biso   1.000  C
  C557     1.0000 0.82866  0.19735  0.62980  Biso   1.000  C
  H217     1.0000 0.80620  0.18650  0.62230  Biso   1.000  H
  C558     1.0000 0.85830  0.16840  0.56550  Biso   1.000  C
  O310     1.0000 0.12800  0.03470  0.44320  Biso   1.000  O
  O311     1.0000 0.65382  0.78726  0.19726  Biso   1.000  O
  O312     1.0000 0.60994  0.79765  0.24460  Biso   1.000  O
  O313     1.0000 0.62244  0.75007  0.05283  Biso   1.000  O
  O314     1.0000 0.57532  0.71087  0.04879  Biso   1.000  O
  O315     1.0000 0.26748  0.71085  0.18331  Biso   1.000  O
  O316     1.0000 0.30270  0.74478  0.22550  Biso   1.000  O
  O317     1.0000 0.32693  0.65687  0.05479  Biso   1.000  O
  O318     1.0000 0.38788  0.66210  0.04720  Biso   1.000  O
  O319     1.0000 0.60210  0.52710  0.96160  Biso   1.000  O
  N94      1.0000 0.47444  0.77670  0.20020  Biso   1.000  N
  N95      1.0000 0.43792  0.76760  0.19723  Biso   1.000  N
  H218     1.0000 0.42080  0.77520  0.21400  Biso   1.000  H
  N96      1.0000 0.46430  0.73890  0.14440  Biso   1.000  N
  C559     1.0000 0.62037  0.78755  0.20890  Biso   1.000  C
  C560     1.0000 0.59215  0.77516  0.17733  Biso   1.000  C
  C561     1.0000 0.60414  0.76340  0.13820  Biso   1.000  C
  H219     1.0000 0.62920  0.76490  0.13140  Biso   1.000  H
  C562     1.0000 0.57915  0.74940  0.10900  Biso   1.000  C
  C563     1.0000 0.54139  0.74770  0.11950  Biso   1.000  C
  H220     1.0000 0.52450  0.73780  0.10040  Biso   1.000  H
  C564     1.0000 0.52899  0.76050  0.15740  Biso   1.000  C
  C565     1.0000 0.55456  0.77420  0.18679  Biso   1.000  C
  H221     1.0000 0.54630  0.78270  0.21270  Biso   1.000  H
  C566     1.0000 0.48881  0.75900  0.16750  Biso   1.000  C
  C567     1.0000 0.43238  0.74500  0.16430  Biso   1.000  C
  C568     1.0000 0.59261  0.73640  0.06730  Biso   1.000  C
  C569     1.0000 0.29764  0.72539  0.19331  Biso   1.000  C
  C570     1.0000 0.33094  0.71909  0.16566  Biso   1.000  C
  C571     1.0000 0.36501  0.73480  0.17720  Biso   1.000  C
  H222     1.0000 0.36670  0.74930  0.20120  Biso   1.000  H
  C572     1.0000 0.39612  0.72860  0.15260  Biso   1.000  C
  C573     1.0000 0.39389  0.70720  0.11700  Biso   1.000  C
  H223     1.0000 0.41500  0.70310  0.10090  Biso   1.000  H
  C574     1.0000 0.36025  0.69180  0.10500  Biso   1.000  C
  C575     1.0000 0.32866  0.69735  0.12980  Biso   1.000  C
  H224     1.0000 0.30620  0.68650  0.12230  Biso   1.000  H
  C576     1.0000 0.35830  0.66840  0.06550  Biso   1.000  C
  O320     1.0000 0.62800  0.53470  0.94320  Biso   1.000  O
  Tb1      1.0000 0.28721  0.21279  0.22453  Biso   1.000  Tb
  Tb2      1.0000 0.71279  0.78721  0.22453  Biso   1.000  Tb
  Tb3      1.0000 0.21279  0.28721  0.72453  Biso   1.000  Tb
  Tb4      1.0000 0.78721  0.28721  0.22453  Biso   1.000  Tb
  Tb5      1.0000 0.21279  0.71279  0.22453  Biso   1.000  Tb
  Tb6      1.0000 0.71279  0.21279  0.27547  Biso   1.000  Tb
  Tb7      1.0000 0.28721  0.78721  0.27547  Biso   1.000  Tb
  Tb8      1.0000 0.21279  0.28721  0.27547  Biso   1.000  Tb
  Tb9      1.0000 0.78721  0.71279  0.27547  Biso   1.000  Tb
  Tb10     1.0000 0.71279  0.78721  0.77547  Biso   1.000  Tb
  Tb11     1.0000 0.28721  0.21279  0.77547  Biso   1.000  Tb
  Tb12     1.0000 0.21279  0.71279  0.77547  Biso   1.000  Tb
  Tb13     1.0000 0.78721  0.28721  0.77547  Biso   1.000  Tb
  Tb14     1.0000 0.28721  0.78721  0.72453  Biso   1.000  Tb
  Tb15     1.0000 0.71279  0.21279  0.72453  Biso   1.000  Tb
  Tb16     1.0000 0.78721  0.71279  0.72453  Biso   1.000  Tb
  Tb17     1.0000 0.20283  0.12728  0.00000  Biso   1.000  Tb
  Tb18     1.0000 0.08058  0.12699  0.00000  Biso   1.000  Tb
  O321     1.0000 0.14340  0.09790  0.00000  Biso   1.000  O
  Tb19     1.0000 0.70283  0.62728  0.50000  Biso   1.000  Tb
  Tb20     1.0000 0.58058  0.62699  0.50000  Biso   1.000  Tb
  O322     1.0000 0.64340  0.59790  0.50000  Biso   1.000  O
  Tb21     1.0000 0.79717  0.87272  0.00000  Biso   1.000  Tb
  Tb22     1.0000 0.91942  0.87301  0.00000  Biso   1.000  Tb
  O323     1.0000 0.85660  0.90210  0.00000  Biso   1.000  O
  Tb23     1.0000 0.29717  0.37272  0.50000  Biso   1.000  Tb
  Tb24     1.0000 0.41942  0.37301  0.50000  Biso   1.000  Tb
  O324     1.0000 0.35660  0.40210  0.50000  Biso   1.000  O
  Tb25     1.0000 0.87272  0.20283  0.00000  Biso   1.000  Tb
  Tb26     1.0000 0.87301  0.08058  0.00000  Biso   1.000  Tb
  O325     1.0000 0.90210  0.14340  0.00000  Biso   1.000  O
  Tb27     1.0000 0.37272  0.70283  0.50000  Biso   1.000  Tb
  Tb28     1.0000 0.37301  0.58058  0.50000  Biso   1.000  Tb
  O326     1.0000 0.40210  0.64340  0.50000  Biso   1.000  O
  Tb29     1.0000 0.12728  0.79717  0.00000  Biso   1.000  Tb
  Tb30     1.0000 0.12699  0.91942  0.00000  Biso   1.000  Tb
  O327     1.0000 0.09790  0.85660  0.00000  Biso   1.000  O
  Tb31     1.0000 0.62728  0.29717  0.50000  Biso   1.000  Tb
  Tb32     1.0000 0.62699  0.41942  0.50000  Biso   1.000  Tb
  O328     1.0000 0.59790  0.35660  0.50000  Biso   1.000  O
  Tb33     1.0000 0.79717  0.12728  0.50000  Biso   1.000  Tb
  Tb34     1.0000 0.91942  0.12699  0.50000  Biso   1.000  Tb
  O329     1.0000 0.85660  0.09790  0.50000  Biso   1.000  O
  Tb35     1.0000 0.29717  0.62728  0.00000  Biso   1.000  Tb
  Tb36     1.0000 0.41942  0.62699  0.00000  Biso   1.000  Tb
  O330     1.0000 0.35660  0.59790  0.00000  Biso   1.000  O
  Tb37     1.0000 0.20283  0.87272  0.50000  Biso   1.000  Tb
  Tb38     1.0000 0.08058  0.87301  0.50000  Biso   1.000  Tb
  O331     1.0000 0.14340  0.90210  0.50000  Biso   1.000  O
  Tb39     1.0000 0.70283  0.37272  0.00000  Biso   1.000  Tb
  Tb40     1.0000 0.58058  0.37301  0.00000  Biso   1.000  Tb
  O332     1.0000 0.64340  0.40210  0.00000  Biso   1.000  O
  Tb41     1.0000 0.12728  0.20283  0.50000  Biso   1.000  Tb
  Tb42     1.0000 0.12699  0.08058  0.50000  Biso   1.000  Tb
  O333     1.0000 0.09790  0.14340  0.50000  Biso   1.000  O
  Tb43     1.0000 0.62728  0.70283  0.00000  Biso   1.000  Tb
  Tb44     1.0000 0.62699  0.58058  0.00000  Biso   1.000  Tb
  O334     1.0000 0.59790  0.64340  0.00000  Biso   1.000  O
  Tb45     1.0000 0.87272  0.79717  0.50000  Biso   1.000  Tb
  Tb46     1.0000 0.87301  0.91942  0.50000  Biso   1.000  Tb
  O335     1.0000 0.90210  0.85660  0.50000  Biso   1.000  O
  Tb47     1.0000 0.37272  0.29717  0.00000  Biso   1.000  Tb
  Tb48     1.0000 0.37301  0.41942  0.00000  Biso   1.000  Tb
  O336     1.0000 0.40210  0.35660  0.00000  Biso   1.000  O
