data_image0
_cell_length_a       23.7715
_cell_length_b       23.7715
_cell_length_c       14.1007
_cell_angle_alpha    90
_cell_angle_beta     90
_cell_angle_gamma    90

_symmetry_space_group_name_H-M    "P 1"
_symmetry_int_tables_number       1

loop_
  _symmetry_equiv_pos_as_xyz
  'x, y, z'

loop_
  _atom_site_label
  _atom_site_occupancy
  _atom_site_fract_x
  _atom_site_fract_y
  _atom_site_fract_z
  _atom_site_thermal_displace_type
  _atom_site_B_iso_or_equiv
  _atom_site_type_symbol
  Ag1      1.0000 0.04852  0.23302  0.10694  Biso   1.000  Ag
  S1       1.0000 0.06955  0.14891  0.98959  Biso   1.000  S
  C1       1.0000 0.00640  0.12510  0.93800  Biso   1.000  C
  C2       1.0000 0.95920  0.11040  0.99240  Biso   1.000  C
  C3       1.0000 0.09100  0.08870  0.05440  Biso   1.000  C
  C4       1.0000 0.08880  0.09080  0.15430  Biso   1.000  C
  H1       1.0000 0.07470  0.12360  0.18450  Biso   1.000  H
  C5       1.0000 0.00350  0.12260  0.83790  Biso   1.000  C
  H2       1.0000 0.03600  0.13190  0.80180  Biso   1.000  H
  C6       1.0000 0.10680  0.04570  0.20960  Biso   1.000  C
  O1       1.0000 0.96090  0.11660  0.08780  Biso   1.000  O
  C7       1.0000 0.93680  0.16870  0.11710  Biso   1.000  C
  H3       1.0000 0.89560  0.16760  0.10790  Biso   1.000  H
  H4       1.0000 0.95210  0.19960  0.07770  Biso   1.000  H
  C8       1.0000 0.95000  0.17960  0.21990  Biso   1.000  C
  N1       1.0000 0.99750  0.20770  0.24020  Biso   1.000  N
  C9       1.0000 0.01000  0.21890  0.33010  Biso   1.000  C
  H5       1.0000 0.04500  0.23650  0.34370  Biso   1.000  H
  C10      1.0000 0.97480  0.20620  0.40390  Biso   1.000  C
  H6       1.0000 0.98410  0.21690  0.46690  Biso   1.000  H
  C11      1.0000 0.92520  0.17730  0.38460  Biso   1.000  C
  H7       1.0000 0.90110  0.16590  0.43480  Biso   1.000  H
  C12      1.0000 0.91110  0.16520  0.28990  Biso   1.000  C
  H8       1.0000 0.87630  0.14780  0.27420  Biso   1.000  H
  C13      1.0000 0.11190  0.05070  0.31690  Biso   1.000  C
  C14      1.0000 0.17490  0.06650  0.33720  Biso   1.000  C
  H9       1.0000 0.19050  0.08630  0.28230  Biso   1.000  H
  H10      1.0000 0.17680  0.09100  0.39310  Biso   1.000  H
  H11      1.0000 0.19660  0.03220  0.34900  Biso   1.000  H
  C15      1.0000 0.07630  0.09920  0.35730  Biso   1.000  C
  H12      1.0000 0.03630  0.09060  0.34920  Biso   1.000  H
  H13      1.0000 0.08470  0.10390  0.42490  Biso   1.000  H
  H14      1.0000 0.08540  0.13410  0.32350  Biso   1.000  H
  C16      1.0000 0.09730  0.99440  0.36370  Biso   1.000  C
  H15      1.0000 0.12540  0.96620  0.34590  Biso   1.000  H
  H16      1.0000 0.09700  0.99900  0.43270  Biso   1.000  H
  H17      1.0000 0.06000  0.98210  0.34220  Biso   1.000  H
  C17      1.0000 0.00240  0.12700  0.62800  Biso   1.000  C
  C18      1.0000 0.92700  0.05220  0.65600  Biso   1.000  C
  C19      1.0000 0.90210  0.15560  0.66100  Biso   1.000  C
  H18      1.0000 0.02890  0.14600  0.67090  Biso   1.000  H
  H19      1.0000 0.99270  0.15210  0.57570  Biso   1.000  H
  H20      1.0000 0.01970  0.09270  0.60340  Biso   1.000  H
  H21      1.0000 0.91850  0.05110  0.58840  Biso   1.000  H
  H22      1.0000 0.89330  0.04380  0.69290  Biso   1.000  H
  H23      1.0000 0.95630  0.02410  0.67060  Biso   1.000  H
  H24      1.0000 0.87420  0.15510  0.71230  Biso   1.000  H
  H25      1.0000 0.88380  0.14580  0.60110  Biso   1.000  H
  H26      1.0000 0.91860  0.19330  0.65630  Biso   1.000  H
  Ag2      1.0000 0.54852  0.73302  0.60694  Biso   1.000  Ag
  S2       1.0000 0.56955  0.64891  0.48959  Biso   1.000  S
  C20      1.0000 0.50640  0.62510  0.43800  Biso   1.000  C
  C21      1.0000 0.45920  0.61040  0.49240  Biso   1.000  C
  C22      1.0000 0.59100  0.58870  0.55440  Biso   1.000  C
  C23      1.0000 0.58880  0.59080  0.65430  Biso   1.000  C
  H27      1.0000 0.57470  0.62360  0.68450  Biso   1.000  H
  C24      1.0000 0.50350  0.62260  0.33790  Biso   1.000  C
  H28      1.0000 0.53600  0.63190  0.30180  Biso   1.000  H
  C25      1.0000 0.60680  0.54570  0.70960  Biso   1.000  C
  O2       1.0000 0.46090  0.61660  0.58780  Biso   1.000  O
  C26      1.0000 0.43680  0.66870  0.61710  Biso   1.000  C
  H29      1.0000 0.39560  0.66760  0.60790  Biso   1.000  H
  H30      1.0000 0.45210  0.69960  0.57770  Biso   1.000  H
  C27      1.0000 0.45000  0.67960  0.71990  Biso   1.000  C
  N2       1.0000 0.49750  0.70770  0.74020  Biso   1.000  N
  C28      1.0000 0.51000  0.71890  0.83010  Biso   1.000  C
  H31      1.0000 0.54500  0.73650  0.84370  Biso   1.000  H
  C29      1.0000 0.47480  0.70620  0.90390  Biso   1.000  C
  H32      1.0000 0.48410  0.71690  0.96690  Biso   1.000  H
  C30      1.0000 0.42520  0.67730  0.88460  Biso   1.000  C
  H33      1.0000 0.40110  0.66590  0.93480  Biso   1.000  H
  C31      1.0000 0.41110  0.66520  0.78990  Biso   1.000  C
  H34      1.0000 0.37630  0.64780  0.77420  Biso   1.000  H
  C32      1.0000 0.61190  0.55070  0.81690  Biso   1.000  C
  C33      1.0000 0.67490  0.56650  0.83720  Biso   1.000  C
  H35      1.0000 0.69050  0.58630  0.78230  Biso   1.000  H
  H36      1.0000 0.67680  0.59100  0.89310  Biso   1.000  H
  H37      1.0000 0.69660  0.53220  0.84900  Biso   1.000  H
  C34      1.0000 0.57630  0.59920  0.85730  Biso   1.000  C
  H38      1.0000 0.53630  0.59060  0.84920  Biso   1.000  H
  H39      1.0000 0.58470  0.60390  0.92490  Biso   1.000  H
  H40      1.0000 0.58540  0.63410  0.82350  Biso   1.000  H
  C35      1.0000 0.59730  0.49440  0.86370  Biso   1.000  C
  H41      1.0000 0.62540  0.46620  0.84590  Biso   1.000  H
  H42      1.0000 0.59700  0.49900  0.93270  Biso   1.000  H
  H43      1.0000 0.56000  0.48210  0.84220  Biso   1.000  H
  C36      1.0000 0.50240  0.62700  0.12800  Biso   1.000  C
  C37      1.0000 0.42700  0.55220  0.15600  Biso   1.000  C
  C38      1.0000 0.40210  0.65560  0.16100  Biso   1.000  C
  H44      1.0000 0.52890  0.64600  0.17090  Biso   1.000  H
  H45      1.0000 0.49270  0.65210  0.07570  Biso   1.000  H
  H46      1.0000 0.51970  0.59270  0.10340  Biso   1.000  H
  H47      1.0000 0.41850  0.55110  0.08840  Biso   1.000  H
  H48      1.0000 0.39330  0.54380  0.19290  Biso   1.000  H
  H49      1.0000 0.45630  0.52410  0.17060  Biso   1.000  H
  H50      1.0000 0.37420  0.65510  0.21230  Biso   1.000  H
  H51      1.0000 0.38380  0.64580  0.10110  Biso   1.000  H
  H52      1.0000 0.41860  0.69330  0.15630  Biso   1.000  H
  Ag3      1.0000 0.95148  0.76698  0.10694  Biso   1.000  Ag
  S3       1.0000 0.93045  0.85109  0.98959  Biso   1.000  S
  C39      1.0000 0.99360  0.87490  0.93800  Biso   1.000  C
  C40      1.0000 0.04080  0.88960  0.99240  Biso   1.000  C
  C41      1.0000 0.90900  0.91130  0.05440  Biso   1.000  C
  C42      1.0000 0.91120  0.90920  0.15430  Biso   1.000  C
  H53      1.0000 0.92530  0.87640  0.18450  Biso   1.000  H
  C43      1.0000 0.99650  0.87740  0.83790  Biso   1.000  C
  H54      1.0000 0.96400  0.86810  0.80180  Biso   1.000  H
  C44      1.0000 0.89320  0.95430  0.20960  Biso   1.000  C
  O3       1.0000 0.03910  0.88340  0.08780  Biso   1.000  O
  C45      1.0000 0.06320  0.83130  0.11710  Biso   1.000  C
  H55      1.0000 0.10440  0.83240  0.10790  Biso   1.000  H
  H56      1.0000 0.04790  0.80040  0.07770  Biso   1.000  H
  C46      1.0000 0.05000  0.82040  0.21990  Biso   1.000  C
  N3       1.0000 0.00250  0.79230  0.24020  Biso   1.000  N
  C47      1.0000 0.99000  0.78110  0.33010  Biso   1.000  C
  H57      1.0000 0.95500  0.76350  0.34370  Biso   1.000  H
  C48      1.0000 0.02520  0.79380  0.40390  Biso   1.000  C
  H58      1.0000 0.01590  0.78310  0.46690  Biso   1.000  H
  C49      1.0000 0.07480  0.82270  0.38460  Biso   1.000  C
  H59      1.0000 0.09890  0.83410  0.43480  Biso   1.000  H
  C50      1.0000 0.08890  0.83480  0.28990  Biso   1.000  C
  H60      1.0000 0.12370  0.85220  0.27420  Biso   1.000  H
  C51      1.0000 0.88810  0.94930  0.31690  Biso   1.000  C
  C52      1.0000 0.82510  0.93350  0.33720  Biso   1.000  C
  H61      1.0000 0.80950  0.91370  0.28230  Biso   1.000  H
  H62      1.0000 0.82320  0.90900  0.39310  Biso   1.000  H
  H63      1.0000 0.80340  0.96780  0.34900  Biso   1.000  H
  C53      1.0000 0.92370  0.90080  0.35730  Biso   1.000  C
  H64      1.0000 0.96370  0.90940  0.34920  Biso   1.000  H
  H65      1.0000 0.91530  0.89610  0.42490  Biso   1.000  H
  H66      1.0000 0.91460  0.86590  0.32350  Biso   1.000  H
  C54      1.0000 0.90270  0.00560  0.36370  Biso   1.000  C
  H67      1.0000 0.87460  0.03380  0.34590  Biso   1.000  H
  H68      1.0000 0.90300  0.00100  0.43270  Biso   1.000  H
  H69      1.0000 0.94000  0.01790  0.34220  Biso   1.000  H
  C55      1.0000 0.99760  0.87300  0.62800  Biso   1.000  C
  C56      1.0000 0.07300  0.94780  0.65600  Biso   1.000  C
  C57      1.0000 0.09790  0.84440  0.66100  Biso   1.000  C
  H70      1.0000 0.97110  0.85400  0.67090  Biso   1.000  H
  H71      1.0000 0.00730  0.84790  0.57570  Biso   1.000  H
  H72      1.0000 0.98030  0.90730  0.60340  Biso   1.000  H
  H73      1.0000 0.08150  0.94890  0.58840  Biso   1.000  H
  H74      1.0000 0.10670  0.95620  0.69290  Biso   1.000  H
  H75      1.0000 0.04370  0.97590  0.67060  Biso   1.000  H
  H76      1.0000 0.12580  0.84490  0.71230  Biso   1.000  H
  H77      1.0000 0.11620  0.85420  0.60110  Biso   1.000  H
  H78      1.0000 0.08140  0.80670  0.65630  Biso   1.000  H
  Ag4      1.0000 0.45148  0.26698  0.60694  Biso   1.000  Ag
  S4       1.0000 0.43045  0.35109  0.48959  Biso   1.000  S
  C58      1.0000 0.49360  0.37490  0.43800  Biso   1.000  C
  C59      1.0000 0.54080  0.38960  0.49240  Biso   1.000  C
  C60      1.0000 0.40900  0.41130  0.55440  Biso   1.000  C
  C61      1.0000 0.41120  0.40920  0.65430  Biso   1.000  C
  H79      1.0000 0.42530  0.37640  0.68450  Biso   1.000  H
  C62      1.0000 0.49650  0.37740  0.33790  Biso   1.000  C
  H80      1.0000 0.46400  0.36810  0.30180  Biso   1.000  H
  C63      1.0000 0.39320  0.45430  0.70960  Biso   1.000  C
  O4       1.0000 0.53910  0.38340  0.58780  Biso   1.000  O
  C64      1.0000 0.56320  0.33130  0.61710  Biso   1.000  C
  H81      1.0000 0.60440  0.33240  0.60790  Biso   1.000  H
  H82      1.0000 0.54790  0.30040  0.57770  Biso   1.000  H
  C65      1.0000 0.55000  0.32040  0.71990  Biso   1.000  C
  N4       1.0000 0.50250  0.29230  0.74020  Biso   1.000  N
  C66      1.0000 0.49000  0.28110  0.83010  Biso   1.000  C
  H83      1.0000 0.45500  0.26350  0.84370  Biso   1.000  H
  C67      1.0000 0.52520  0.29380  0.90390  Biso   1.000  C
  H84      1.0000 0.51590  0.28310  0.96690  Biso   1.000  H
  C68      1.0000 0.57480  0.32270  0.88460  Biso   1.000  C
  H85      1.0000 0.59890  0.33410  0.93480  Biso   1.000  H
  C69      1.0000 0.58890  0.33480  0.78990  Biso   1.000  C
  H86      1.0000 0.62370  0.35220  0.77420  Biso   1.000  H
  C70      1.0000 0.38810  0.44930  0.81690  Biso   1.000  C
  C71      1.0000 0.32510  0.43350  0.83720  Biso   1.000  C
  H87      1.0000 0.30950  0.41370  0.78230  Biso   1.000  H
  H88      1.0000 0.32320  0.40900  0.89310  Biso   1.000  H
  H89      1.0000 0.30340  0.46780  0.84900  Biso   1.000  H
  C72      1.0000 0.42370  0.40080  0.85730  Biso   1.000  C
  H90      1.0000 0.46370  0.40940  0.84920  Biso   1.000  H
  H91      1.0000 0.41530  0.39610  0.92490  Biso   1.000  H
  H92      1.0000 0.41460  0.36590  0.82350  Biso   1.000  H
  C73      1.0000 0.40270  0.50560  0.86370  Biso   1.000  C
  H93      1.0000 0.37460  0.53380  0.84590  Biso   1.000  H
  H94      1.0000 0.40300  0.50100  0.93270  Biso   1.000  H
  H95      1.0000 0.44000  0.51790  0.84220  Biso   1.000  H
  C74      1.0000 0.49760  0.37300  0.12800  Biso   1.000  C
  C75      1.0000 0.57300  0.44780  0.15600  Biso   1.000  C
  C76      1.0000 0.59790  0.34440  0.16100  Biso   1.000  C
  H96      1.0000 0.47110  0.35400  0.17090  Biso   1.000  H
  H97      1.0000 0.50730  0.34790  0.07570  Biso   1.000  H
  H98      1.0000 0.48030  0.40730  0.10340  Biso   1.000  H
  H99      1.0000 0.58150  0.44890  0.08840  Biso   1.000  H
  H100     1.0000 0.60670  0.45620  0.19290  Biso   1.000  H
  H101     1.0000 0.54370  0.47590  0.17060  Biso   1.000  H
  H102     1.0000 0.62580  0.34490  0.21230  Biso   1.000  H
  H103     1.0000 0.61620  0.35420  0.10110  Biso   1.000  H
  H104     1.0000 0.58140  0.30670  0.15630  Biso   1.000  H
  Ag5      1.0000 0.23302  0.95148  0.89306  Biso   1.000  Ag
  S5       1.0000 0.14891  0.93045  0.01041  Biso   1.000  S
  C77      1.0000 0.12510  0.99360  0.06200  Biso   1.000  C
  C78      1.0000 0.11040  0.04080  0.00760  Biso   1.000  C
  C79      1.0000 0.08870  0.90900  0.94560  Biso   1.000  C
  C80      1.0000 0.09080  0.91120  0.84570  Biso   1.000  C
  H105     1.0000 0.12360  0.92530  0.81550  Biso   1.000  H
  C81      1.0000 0.12260  0.99650  0.16210  Biso   1.000  C
  H106     1.0000 0.13190  0.96400  0.19820  Biso   1.000  H
  C82      1.0000 0.04570  0.89320  0.79040  Biso   1.000  C
  O5       1.0000 0.11660  0.03910  0.91220  Biso   1.000  O
  C83      1.0000 0.16870  0.06320  0.88290  Biso   1.000  C
  H107     1.0000 0.16760  0.10440  0.89210  Biso   1.000  H
  H108     1.0000 0.19960  0.04790  0.92230  Biso   1.000  H
  C84      1.0000 0.17960  0.05000  0.78010  Biso   1.000  C
  N5       1.0000 0.20770  0.00250  0.75980  Biso   1.000  N
  C85      1.0000 0.21890  0.99000  0.66990  Biso   1.000  C
  H109     1.0000 0.23650  0.95500  0.65630  Biso   1.000  H
  C86      1.0000 0.20620  0.02520  0.59610  Biso   1.000  C
  H110     1.0000 0.21690  0.01590  0.53310  Biso   1.000  H
  C87      1.0000 0.17730  0.07480  0.61540  Biso   1.000  C
  H111     1.0000 0.16590  0.09890  0.56520  Biso   1.000  H
  C88      1.0000 0.16520  0.08890  0.71010  Biso   1.000  C
  H112     1.0000 0.14780  0.12370  0.72580  Biso   1.000  H
  C89      1.0000 0.05070  0.88810  0.68310  Biso   1.000  C
  C90      1.0000 0.06650  0.82510  0.66280  Biso   1.000  C
  H113     1.0000 0.08630  0.80950  0.71770  Biso   1.000  H
  H114     1.0000 0.09100  0.82320  0.60690  Biso   1.000  H
  H115     1.0000 0.03220  0.80340  0.65100  Biso   1.000  H
  C91      1.0000 0.09920  0.92370  0.64270  Biso   1.000  C
  H116     1.0000 0.09060  0.96370  0.65080  Biso   1.000  H
  H117     1.0000 0.10390  0.91530  0.57510  Biso   1.000  H
  H118     1.0000 0.13410  0.91460  0.67650  Biso   1.000  H
  C92      1.0000 0.99440  0.90270  0.63630  Biso   1.000  C
  H119     1.0000 0.96620  0.87460  0.65410  Biso   1.000  H
  H120     1.0000 0.99900  0.90300  0.56730  Biso   1.000  H
  H121     1.0000 0.98210  0.94000  0.65780  Biso   1.000  H
  C93      1.0000 0.12700  0.99760  0.37200  Biso   1.000  C
  C94      1.0000 0.05220  0.07300  0.34400  Biso   1.000  C
  C95      1.0000 0.15560  0.09790  0.33900  Biso   1.000  C
  H122     1.0000 0.14600  0.97110  0.32910  Biso   1.000  H
  H123     1.0000 0.15210  0.00730  0.42430  Biso   1.000  H
  H124     1.0000 0.09270  0.98030  0.39660  Biso   1.000  H
  H125     1.0000 0.05110  0.08150  0.41160  Biso   1.000  H
  H126     1.0000 0.04380  0.10670  0.30710  Biso   1.000  H
  H127     1.0000 0.02410  0.04370  0.32940  Biso   1.000  H
  H128     1.0000 0.15510  0.12580  0.28770  Biso   1.000  H
  H129     1.0000 0.14580  0.11620  0.39890  Biso   1.000  H
  H130     1.0000 0.19330  0.08140  0.34370  Biso   1.000  H
  Ag6      1.0000 0.73302  0.45148  0.39306  Biso   1.000  Ag
  S6       1.0000 0.64891  0.43045  0.51041  Biso   1.000  S
  C96      1.0000 0.62510  0.49360  0.56200  Biso   1.000  C
  C97      1.0000 0.61040  0.54080  0.50760  Biso   1.000  C
  C98      1.0000 0.58870  0.40900  0.44560  Biso   1.000  C
  C99      1.0000 0.59080  0.41120  0.34570  Biso   1.000  C
  H131     1.0000 0.62360  0.42530  0.31550  Biso   1.000  H
  C100     1.0000 0.62260  0.49650  0.66210  Biso   1.000  C
  H132     1.0000 0.63190  0.46400  0.69820  Biso   1.000  H
  C101     1.0000 0.54570  0.39320  0.29040  Biso   1.000  C
  O6       1.0000 0.61660  0.53910  0.41220  Biso   1.000  O
  C102     1.0000 0.66870  0.56320  0.38290  Biso   1.000  C
  H133     1.0000 0.66760  0.60440  0.39210  Biso   1.000  H
  H134     1.0000 0.69960  0.54790  0.42230  Biso   1.000  H
  C103     1.0000 0.67960  0.55000  0.28010  Biso   1.000  C
  N6       1.0000 0.70770  0.50250  0.25980  Biso   1.000  N
  C104     1.0000 0.71890  0.49000  0.16990  Biso   1.000  C
  H135     1.0000 0.73650  0.45500  0.15630  Biso   1.000  H
  C105     1.0000 0.70620  0.52520  0.09610  Biso   1.000  C
  H136     1.0000 0.71690  0.51590  0.03310  Biso   1.000  H
  C106     1.0000 0.67730  0.57480  0.11540  Biso   1.000  C
  H137     1.0000 0.66590  0.59890  0.06520  Biso   1.000  H
  C107     1.0000 0.66520  0.58890  0.21010  Biso   1.000  C
  H138     1.0000 0.64780  0.62370  0.22580  Biso   1.000  H
  C108     1.0000 0.55070  0.38810  0.18310  Biso   1.000  C
  C109     1.0000 0.56650  0.32510  0.16280  Biso   1.000  C
  H139     1.0000 0.58630  0.30950  0.21770  Biso   1.000  H
  H140     1.0000 0.59100  0.32320  0.10690  Biso   1.000  H
  H141     1.0000 0.53220  0.30340  0.15100  Biso   1.000  H
  C110     1.0000 0.59920  0.42370  0.14270  Biso   1.000  C
  H142     1.0000 0.59060  0.46370  0.15080  Biso   1.000  H
  H143     1.0000 0.60390  0.41530  0.07510  Biso   1.000  H
  H144     1.0000 0.63410  0.41460  0.17650  Biso   1.000  H
  C111     1.0000 0.49440  0.40270  0.13630  Biso   1.000  C
  H145     1.0000 0.46620  0.37460  0.15410  Biso   1.000  H
  H146     1.0000 0.49900  0.40300  0.06730  Biso   1.000  H
  H147     1.0000 0.48210  0.44000  0.15780  Biso   1.000  H
  C112     1.0000 0.62700  0.49760  0.87200  Biso   1.000  C
  C113     1.0000 0.55220  0.57300  0.84400  Biso   1.000  C
  C114     1.0000 0.65560  0.59790  0.83900  Biso   1.000  C
  H148     1.0000 0.64600  0.47110  0.82910  Biso   1.000  H
  H149     1.0000 0.65210  0.50730  0.92430  Biso   1.000  H
  H150     1.0000 0.59270  0.48030  0.89660  Biso   1.000  H
  H151     1.0000 0.55110  0.58150  0.91160  Biso   1.000  H
  H152     1.0000 0.54380  0.60670  0.80710  Biso   1.000  H
  H153     1.0000 0.52410  0.54370  0.82940  Biso   1.000  H
  H154     1.0000 0.65510  0.62580  0.78770  Biso   1.000  H
  H155     1.0000 0.64580  0.61620  0.89890  Biso   1.000  H
  H156     1.0000 0.69330  0.58140  0.84370  Biso   1.000  H
  Ag7      1.0000 0.76698  0.04852  0.89306  Biso   1.000  Ag
  S7       1.0000 0.85109  0.06955  0.01041  Biso   1.000  S
  C115     1.0000 0.87490  0.00640  0.06200  Biso   1.000  C
  C116     1.0000 0.88960  0.95920  0.00760  Biso   1.000  C
  C117     1.0000 0.91130  0.09100  0.94560  Biso   1.000  C
  C118     1.0000 0.90920  0.08880  0.84570  Biso   1.000  C
  H157     1.0000 0.87640  0.07470  0.81550  Biso   1.000  H
  C119     1.0000 0.87740  0.00350  0.16210  Biso   1.000  C
  H158     1.0000 0.86810  0.03600  0.19820  Biso   1.000  H
  C120     1.0000 0.95430  0.10680  0.79040  Biso   1.000  C
  O7       1.0000 0.88340  0.96090  0.91220  Biso   1.000  O
  C121     1.0000 0.83130  0.93680  0.88290  Biso   1.000  C
  H159     1.0000 0.83240  0.89560  0.89210  Biso   1.000  H
  H160     1.0000 0.80040  0.95210  0.92230  Biso   1.000  H
  C122     1.0000 0.82040  0.95000  0.78010  Biso   1.000  C
  N7       1.0000 0.79230  0.99750  0.75980  Biso   1.000  N
  C123     1.0000 0.78110  0.01000  0.66990  Biso   1.000  C
  H161     1.0000 0.76350  0.04500  0.65630  Biso   1.000  H
  C124     1.0000 0.79380  0.97480  0.59610  Biso   1.000  C
  H162     1.0000 0.78310  0.98410  0.53310  Biso   1.000  H
  C125     1.0000 0.82270  0.92520  0.61540  Biso   1.000  C
  H163     1.0000 0.83410  0.90110  0.56520  Biso   1.000  H
  C126     1.0000 0.83480  0.91110  0.71010  Biso   1.000  C
  H164     1.0000 0.85220  0.87630  0.72580  Biso   1.000  H
  C127     1.0000 0.94930  0.11190  0.68310  Biso   1.000  C
  C128     1.0000 0.93350  0.17490  0.66280  Biso   1.000  C
  H165     1.0000 0.91370  0.19050  0.71770  Biso   1.000  H
  H166     1.0000 0.90900  0.17680  0.60690  Biso   1.000  H
  H167     1.0000 0.96780  0.19660  0.65100  Biso   1.000  H
  C129     1.0000 0.90080  0.07630  0.64270  Biso   1.000  C
  H168     1.0000 0.90940  0.03630  0.65080  Biso   1.000  H
  H169     1.0000 0.89610  0.08470  0.57510  Biso   1.000  H
  H170     1.0000 0.86590  0.08540  0.67650  Biso   1.000  H
  C130     1.0000 0.00560  0.09730  0.63630  Biso   1.000  C
  H171     1.0000 0.03380  0.12540  0.65410  Biso   1.000  H
  H172     1.0000 0.00100  0.09700  0.56730  Biso   1.000  H
  H173     1.0000 0.01790  0.06000  0.65780  Biso   1.000  H
  C131     1.0000 0.87300  0.00240  0.37200  Biso   1.000  C
  C132     1.0000 0.94780  0.92700  0.34400  Biso   1.000  C
  C133     1.0000 0.84440  0.90210  0.33900  Biso   1.000  C
  H174     1.0000 0.85400  0.02890  0.32910  Biso   1.000  H
  H175     1.0000 0.84790  0.99270  0.42430  Biso   1.000  H
  H176     1.0000 0.90730  0.01970  0.39660  Biso   1.000  H
  H177     1.0000 0.94890  0.91850  0.41160  Biso   1.000  H
  H178     1.0000 0.95620  0.89330  0.30710  Biso   1.000  H
  H179     1.0000 0.97590  0.95630  0.32940  Biso   1.000  H
  H180     1.0000 0.84490  0.87420  0.28770  Biso   1.000  H
  H181     1.0000 0.85420  0.88380  0.39890  Biso   1.000  H
  H182     1.0000 0.80670  0.91860  0.34370  Biso   1.000  H
  Ag8      1.0000 0.26698  0.54852  0.39306  Biso   1.000  Ag
  S8       1.0000 0.35109  0.56955  0.51041  Biso   1.000  S
  C134     1.0000 0.37490  0.50640  0.56200  Biso   1.000  C
  C135     1.0000 0.38960  0.45920  0.50760  Biso   1.000  C
  C136     1.0000 0.41130  0.59100  0.44560  Biso   1.000  C
  C137     1.0000 0.40920  0.58880  0.34570  Biso   1.000  C
  H183     1.0000 0.37640  0.57470  0.31550  Biso   1.000  H
  C138     1.0000 0.37740  0.50350  0.66210  Biso   1.000  C
  H184     1.0000 0.36810  0.53600  0.69820  Biso   1.000  H
  C139     1.0000 0.45430  0.60680  0.29040  Biso   1.000  C
  O8       1.0000 0.38340  0.46090  0.41220  Biso   1.000  O
  C140     1.0000 0.33130  0.43680  0.38290  Biso   1.000  C
  H185     1.0000 0.33240  0.39560  0.39210  Biso   1.000  H
  H186     1.0000 0.30040  0.45210  0.42230  Biso   1.000  H
  C141     1.0000 0.32040  0.45000  0.28010  Biso   1.000  C
  N8       1.0000 0.29230  0.49750  0.25980  Biso   1.000  N
  C142     1.0000 0.28110  0.51000  0.16990  Biso   1.000  C
  H187     1.0000 0.26350  0.54500  0.15630  Biso   1.000  H
  C143     1.0000 0.29380  0.47480  0.09610  Biso   1.000  C
  H188     1.0000 0.28310  0.48410  0.03310  Biso   1.000  H
  C144     1.0000 0.32270  0.42520  0.11540  Biso   1.000  C
  H189     1.0000 0.33410  0.40110  0.06520  Biso   1.000  H
  C145     1.0000 0.33480  0.41110  0.21010  Biso   1.000  C
  H190     1.0000 0.35220  0.37630  0.22580  Biso   1.000  H
  C146     1.0000 0.44930  0.61190  0.18310  Biso   1.000  C
  C147     1.0000 0.43350  0.67490  0.16280  Biso   1.000  C
  H191     1.0000 0.41370  0.69050  0.21770  Biso   1.000  H
  H192     1.0000 0.40900  0.67680  0.10690  Biso   1.000  H
  H193     1.0000 0.46780  0.69660  0.15100  Biso   1.000  H
  C148     1.0000 0.40080  0.57630  0.14270  Biso   1.000  C
  H194     1.0000 0.40940  0.53630  0.15080  Biso   1.000  H
  H195     1.0000 0.39610  0.58470  0.07510  Biso   1.000  H
  H196     1.0000 0.36590  0.58540  0.17650  Biso   1.000  H
  C149     1.0000 0.50560  0.59730  0.13630  Biso   1.000  C
  H197     1.0000 0.53380  0.62540  0.15410  Biso   1.000  H
  H198     1.0000 0.50100  0.59700  0.06730  Biso   1.000  H
  H199     1.0000 0.51790  0.56000  0.15780  Biso   1.000  H
  C150     1.0000 0.37300  0.50240  0.87200  Biso   1.000  C
  C151     1.0000 0.44780  0.42700  0.84400  Biso   1.000  C
  C152     1.0000 0.34440  0.40210  0.83900  Biso   1.000  C
  H200     1.0000 0.35400  0.52890  0.82910  Biso   1.000  H
  H201     1.0000 0.34790  0.49270  0.92430  Biso   1.000  H
  H202     1.0000 0.40730  0.51970  0.89660  Biso   1.000  H
  H203     1.0000 0.44890  0.41850  0.91160  Biso   1.000  H
  H204     1.0000 0.45620  0.39330  0.80710  Biso   1.000  H
  H205     1.0000 0.47590  0.45630  0.82940  Biso   1.000  H
  H206     1.0000 0.34490  0.37420  0.78770  Biso   1.000  H
  H207     1.0000 0.35420  0.38380  0.89890  Biso   1.000  H
  H208     1.0000 0.30670  0.41860  0.84370  Biso   1.000  H
  Ag9      1.0000 0.45148  0.23302  0.64306  Biso   1.000  Ag
  S9       1.0000 0.43045  0.14891  0.76041  Biso   1.000  S
  C153     1.0000 0.49360  0.12510  0.81200  Biso   1.000  C
  C154     1.0000 0.54080  0.11040  0.75760  Biso   1.000  C
  C155     1.0000 0.40900  0.08870  0.69560  Biso   1.000  C
  C156     1.0000 0.41120  0.09080  0.59570  Biso   1.000  C
  H209     1.0000 0.42530  0.12360  0.56550  Biso   1.000  H
  C157     1.0000 0.49650  0.12260  0.91210  Biso   1.000  C
  H210     1.0000 0.46400  0.13190  0.94820  Biso   1.000  H
  C158     1.0000 0.39320  0.04570  0.54040  Biso   1.000  C
  O9       1.0000 0.53910  0.11660  0.66220  Biso   1.000  O
  C159     1.0000 0.56320  0.16870  0.63290  Biso   1.000  C
  H211     1.0000 0.60440  0.16760  0.64210  Biso   1.000  H
  H212     1.0000 0.54790  0.19960  0.67230  Biso   1.000  H
  C160     1.0000 0.55000  0.17960  0.53010  Biso   1.000  C
  N9       1.0000 0.50250  0.20770  0.50980  Biso   1.000  N
  C161     1.0000 0.49000  0.21890  0.41990  Biso   1.000  C
  H213     1.0000 0.45500  0.23650  0.40630  Biso   1.000  H
  C162     1.0000 0.52520  0.20620  0.34610  Biso   1.000  C
  H214     1.0000 0.51590  0.21690  0.28310  Biso   1.000  H
  C163     1.0000 0.57480  0.17730  0.36540  Biso   1.000  C
  H215     1.0000 0.59890  0.16590  0.31520  Biso   1.000  H
  C164     1.0000 0.58890  0.16520  0.46010  Biso   1.000  C
  H216     1.0000 0.62370  0.14780  0.47580  Biso   1.000  H
  C165     1.0000 0.38810  0.05070  0.43310  Biso   1.000  C
  C166     1.0000 0.32510  0.06650  0.41280  Biso   1.000  C
  H217     1.0000 0.30950  0.08630  0.46770  Biso   1.000  H
  H218     1.0000 0.32320  0.09100  0.35690  Biso   1.000  H
  H219     1.0000 0.30340  0.03220  0.40100  Biso   1.000  H
  C167     1.0000 0.42370  0.09920  0.39270  Biso   1.000  C
  H220     1.0000 0.46370  0.09060  0.40080  Biso   1.000  H
  H221     1.0000 0.41530  0.10390  0.32510  Biso   1.000  H
  H222     1.0000 0.41460  0.13410  0.42650  Biso   1.000  H
  C168     1.0000 0.40270  0.99440  0.38630  Biso   1.000  C
  H223     1.0000 0.37460  0.96620  0.40410  Biso   1.000  H
  H224     1.0000 0.40300  0.99900  0.31730  Biso   1.000  H
  H225     1.0000 0.44000  0.98210  0.40780  Biso   1.000  H
  C169     1.0000 0.49760  0.12700  0.12200  Biso   1.000  C
  C170     1.0000 0.57300  0.05220  0.09400  Biso   1.000  C
  C171     1.0000 0.59790  0.15560  0.08900  Biso   1.000  C
  H226     1.0000 0.47110  0.14600  0.07910  Biso   1.000  H
  H227     1.0000 0.50730  0.15210  0.17430  Biso   1.000  H
  H228     1.0000 0.48030  0.09270  0.14660  Biso   1.000  H
  H229     1.0000 0.58150  0.05110  0.16160  Biso   1.000  H
  H230     1.0000 0.60670  0.04380  0.05710  Biso   1.000  H
  H231     1.0000 0.54370  0.02410  0.07940  Biso   1.000  H
  H232     1.0000 0.62580  0.15510  0.03770  Biso   1.000  H
  H233     1.0000 0.61620  0.14580  0.14890  Biso   1.000  H
  H234     1.0000 0.58140  0.19330  0.09370  Biso   1.000  H
  Ag10     1.0000 0.95148  0.73302  0.14306  Biso   1.000  Ag
  S10      1.0000 0.93045  0.64891  0.26041  Biso   1.000  S
  C172     1.0000 0.99360  0.62510  0.31200  Biso   1.000  C
  C173     1.0000 0.04080  0.61040  0.25760  Biso   1.000  C
  C174     1.0000 0.90900  0.58870  0.19560  Biso   1.000  C
  C175     1.0000 0.91120  0.59080  0.09570  Biso   1.000  C
  H235     1.0000 0.92530  0.62360  0.06550  Biso   1.000  H
  C176     1.0000 0.99650  0.62260  0.41210  Biso   1.000  C
  H236     1.0000 0.96400  0.63190  0.44820  Biso   1.000  H
  C177     1.0000 0.89320  0.54570  0.04040  Biso   1.000  C
  O10      1.0000 0.03910  0.61660  0.16220  Biso   1.000  O
  C178     1.0000 0.06320  0.66870  0.13290  Biso   1.000  C
  H237     1.0000 0.10440  0.66760  0.14210  Biso   1.000  H
  H238     1.0000 0.04790  0.69960  0.17230  Biso   1.000  H
  C179     1.0000 0.05000  0.67960  0.03010  Biso   1.000  C
  N10      1.0000 0.00250  0.70770  0.00980  Biso   1.000  N
  C180     1.0000 0.99000  0.71890  0.91990  Biso   1.000  C
  H239     1.0000 0.95500  0.73650  0.90630  Biso   1.000  H
  C181     1.0000 0.02520  0.70620  0.84610  Biso   1.000  C
  H240     1.0000 0.01590  0.71690  0.78310  Biso   1.000  H
  C182     1.0000 0.07480  0.67730  0.86540  Biso   1.000  C
  H241     1.0000 0.09890  0.66590  0.81520  Biso   1.000  H
  C183     1.0000 0.08890  0.66520  0.96010  Biso   1.000  C
  H242     1.0000 0.12370  0.64780  0.97580  Biso   1.000  H
  C184     1.0000 0.88810  0.55070  0.93310  Biso   1.000  C
  C185     1.0000 0.82510  0.56650  0.91280  Biso   1.000  C
  H243     1.0000 0.80950  0.58630  0.96770  Biso   1.000  H
  H244     1.0000 0.82320  0.59100  0.85690  Biso   1.000  H
  H245     1.0000 0.80340  0.53220  0.90100  Biso   1.000  H
  C186     1.0000 0.92370  0.59920  0.89270  Biso   1.000  C
  H246     1.0000 0.96370  0.59060  0.90080  Biso   1.000  H
  H247     1.0000 0.91530  0.60390  0.82510  Biso   1.000  H
  H248     1.0000 0.91460  0.63410  0.92650  Biso   1.000  H
  C187     1.0000 0.90270  0.49440  0.88630  Biso   1.000  C
  H249     1.0000 0.87460  0.46620  0.90410  Biso   1.000  H
  H250     1.0000 0.90300  0.49900  0.81730  Biso   1.000  H
  H251     1.0000 0.94000  0.48210  0.90780  Biso   1.000  H
  C188     1.0000 0.99760  0.62700  0.62200  Biso   1.000  C
  C189     1.0000 0.07300  0.55220  0.59400  Biso   1.000  C
  C190     1.0000 0.09790  0.65560  0.58900  Biso   1.000  C
  H252     1.0000 0.97110  0.64600  0.57910  Biso   1.000  H
  H253     1.0000 0.00730  0.65210  0.67430  Biso   1.000  H
  H254     1.0000 0.98030  0.59270  0.64660  Biso   1.000  H
  H255     1.0000 0.08150  0.55110  0.66160  Biso   1.000  H
  H256     1.0000 0.10670  0.54380  0.55710  Biso   1.000  H
  H257     1.0000 0.04370  0.52410  0.57940  Biso   1.000  H
  H258     1.0000 0.12580  0.65510  0.53770  Biso   1.000  H
  H259     1.0000 0.11620  0.64580  0.64890  Biso   1.000  H
  H260     1.0000 0.08140  0.69330  0.59370  Biso   1.000  H
  Ag11     1.0000 0.54852  0.76698  0.64306  Biso   1.000  Ag
  S11      1.0000 0.56955  0.85109  0.76041  Biso   1.000  S
  C191     1.0000 0.50640  0.87490  0.81200  Biso   1.000  C
  C192     1.0000 0.45920  0.88960  0.75760  Biso   1.000  C
  C193     1.0000 0.59100  0.91130  0.69560  Biso   1.000  C
  C194     1.0000 0.58880  0.90920  0.59570  Biso   1.000  C
  H261     1.0000 0.57470  0.87640  0.56550  Biso   1.000  H
  C195     1.0000 0.50350  0.87740  0.91210  Biso   1.000  C
  H262     1.0000 0.53600  0.86810  0.94820  Biso   1.000  H
  C196     1.0000 0.60680  0.95430  0.54040  Biso   1.000  C
  O11      1.0000 0.46090  0.88340  0.66220  Biso   1.000  O
  C197     1.0000 0.43680  0.83130  0.63290  Biso   1.000  C
  H263     1.0000 0.39560  0.83240  0.64210  Biso   1.000  H
  H264     1.0000 0.45210  0.80040  0.67230  Biso   1.000  H
  C198     1.0000 0.45000  0.82040  0.53010  Biso   1.000  C
  N11      1.0000 0.49750  0.79230  0.50980  Biso   1.000  N
  C199     1.0000 0.51000  0.78110  0.41990  Biso   1.000  C
  H265     1.0000 0.54500  0.76350  0.40630  Biso   1.000  H
  C200     1.0000 0.47480  0.79380  0.34610  Biso   1.000  C
  H266     1.0000 0.48410  0.78310  0.28310  Biso   1.000  H
  C201     1.0000 0.42520  0.82270  0.36540  Biso   1.000  C
  H267     1.0000 0.40110  0.83410  0.31520  Biso   1.000  H
  C202     1.0000 0.41110  0.83480  0.46010  Biso   1.000  C
  H268     1.0000 0.37630  0.85220  0.47580  Biso   1.000  H
  C203     1.0000 0.61190  0.94930  0.43310  Biso   1.000  C
  C204     1.0000 0.67490  0.93350  0.41280  Biso   1.000  C
  H269     1.0000 0.69050  0.91370  0.46770  Biso   1.000  H
  H270     1.0000 0.67680  0.90900  0.35690  Biso   1.000  H
  H271     1.0000 0.69660  0.96780  0.40100  Biso   1.000  H
  C205     1.0000 0.57630  0.90080  0.39270  Biso   1.000  C
  H272     1.0000 0.53630  0.90940  0.40080  Biso   1.000  H
  H273     1.0000 0.58470  0.89610  0.32510  Biso   1.000  H
  H274     1.0000 0.58540  0.86590  0.42650  Biso   1.000  H
  C206     1.0000 0.59730  0.00560  0.38630  Biso   1.000  C
  H275     1.0000 0.62540  0.03380  0.40410  Biso   1.000  H
  H276     1.0000 0.59700  0.00100  0.31730  Biso   1.000  H
  H277     1.0000 0.56000  0.01790  0.40780  Biso   1.000  H
  C207     1.0000 0.50240  0.87300  0.12200  Biso   1.000  C
  C208     1.0000 0.42700  0.94780  0.09400  Biso   1.000  C
  C209     1.0000 0.40210  0.84440  0.08900  Biso   1.000  C
  H278     1.0000 0.52890  0.85400  0.07910  Biso   1.000  H
  H279     1.0000 0.49270  0.84790  0.17430  Biso   1.000  H
  H280     1.0000 0.51970  0.90730  0.14660  Biso   1.000  H
  H281     1.0000 0.41850  0.94890  0.16160  Biso   1.000  H
  H282     1.0000 0.39330  0.95620  0.05710  Biso   1.000  H
  H283     1.0000 0.45630  0.97590  0.07940  Biso   1.000  H
  H284     1.0000 0.37420  0.84490  0.03770  Biso   1.000  H
  H285     1.0000 0.38380  0.85420  0.14890  Biso   1.000  H
  H286     1.0000 0.41860  0.80670  0.09370  Biso   1.000  H
  Ag12     1.0000 0.04852  0.26698  0.14306  Biso   1.000  Ag
  S12      1.0000 0.06955  0.35109  0.26041  Biso   1.000  S
  C210     1.0000 0.00640  0.37490  0.31200  Biso   1.000  C
  C211     1.0000 0.95920  0.38960  0.25760  Biso   1.000  C
  C212     1.0000 0.09100  0.41130  0.19560  Biso   1.000  C
  C213     1.0000 0.08880  0.40920  0.09570  Biso   1.000  C
  H287     1.0000 0.07470  0.37640  0.06550  Biso   1.000  H
  C214     1.0000 0.00350  0.37740  0.41210  Biso   1.000  C
  H288     1.0000 0.03600  0.36810  0.44820  Biso   1.000  H
  C215     1.0000 0.10680  0.45430  0.04040  Biso   1.000  C
  O12      1.0000 0.96090  0.38340  0.16220  Biso   1.000  O
  C216     1.0000 0.93680  0.33130  0.13290  Biso   1.000  C
  H289     1.0000 0.89560  0.33240  0.14210  Biso   1.000  H
  H290     1.0000 0.95210  0.30040  0.17230  Biso   1.000  H
  C217     1.0000 0.95000  0.32040  0.03010  Biso   1.000  C
  N12      1.0000 0.99750  0.29230  0.00980  Biso   1.000  N
  C218     1.0000 0.01000  0.28110  0.91990  Biso   1.000  C
  H291     1.0000 0.04500  0.26350  0.90630  Biso   1.000  H
  C219     1.0000 0.97480  0.29380  0.84610  Biso   1.000  C
  H292     1.0000 0.98410  0.28310  0.78310  Biso   1.000  H
  C220     1.0000 0.92520  0.32270  0.86540  Biso   1.000  C
  H293     1.0000 0.90110  0.33410  0.81520  Biso   1.000  H
  C221     1.0000 0.91110  0.33480  0.96010  Biso   1.000  C
  H294     1.0000 0.87630  0.35220  0.97580  Biso   1.000  H
  C222     1.0000 0.11190  0.44930  0.93310  Biso   1.000  C
  C223     1.0000 0.17490  0.43350  0.91280  Biso   1.000  C
  H295     1.0000 0.19050  0.41370  0.96770  Biso   1.000  H
  H296     1.0000 0.17680  0.40900  0.85690  Biso   1.000  H
  H297     1.0000 0.19660  0.46780  0.90100  Biso   1.000  H
  C224     1.0000 0.07630  0.40080  0.89270  Biso   1.000  C
  H298     1.0000 0.03630  0.40940  0.90080  Biso   1.000  H
  H299     1.0000 0.08470  0.39610  0.82510  Biso   1.000  H
  H300     1.0000 0.08540  0.36590  0.92650  Biso   1.000  H
  C225     1.0000 0.09730  0.50560  0.88630  Biso   1.000  C
  H301     1.0000 0.12540  0.53380  0.90410  Biso   1.000  H
  H302     1.0000 0.09700  0.50100  0.81730  Biso   1.000  H
  H303     1.0000 0.06000  0.51790  0.90780  Biso   1.000  H
  C226     1.0000 0.00240  0.37300  0.62200  Biso   1.000  C
  C227     1.0000 0.92700  0.44780  0.59400  Biso   1.000  C
  C228     1.0000 0.90210  0.34440  0.58900  Biso   1.000  C
  H304     1.0000 0.02890  0.35400  0.57910  Biso   1.000  H
  H305     1.0000 0.99270  0.34790  0.67430  Biso   1.000  H
  H306     1.0000 0.01970  0.40730  0.64660  Biso   1.000  H
  H307     1.0000 0.91850  0.44890  0.66160  Biso   1.000  H
  H308     1.0000 0.89330  0.45620  0.55710  Biso   1.000  H
  H309     1.0000 0.95630  0.47590  0.57940  Biso   1.000  H
  H310     1.0000 0.87420  0.34490  0.53770  Biso   1.000  H
  H311     1.0000 0.88380  0.35420  0.64890  Biso   1.000  H
  H312     1.0000 0.91860  0.30670  0.59370  Biso   1.000  H
  Ag13     1.0000 0.26698  0.95148  0.85694  Biso   1.000  Ag
  S13      1.0000 0.35109  0.93045  0.73959  Biso   1.000  S
  C229     1.0000 0.37490  0.99360  0.68800  Biso   1.000  C
  C230     1.0000 0.38960  0.04080  0.74240  Biso   1.000  C
  C231     1.0000 0.41130  0.90900  0.80440  Biso   1.000  C
  C232     1.0000 0.40920  0.91120  0.90430  Biso   1.000  C
  H313     1.0000 0.37640  0.92530  0.93450  Biso   1.000  H
  C233     1.0000 0.37740  0.99650  0.58790  Biso   1.000  C
  H314     1.0000 0.36810  0.96400  0.55180  Biso   1.000  H
  C234     1.0000 0.45430  0.89320  0.95960  Biso   1.000  C
  O13      1.0000 0.38340  0.03910  0.83780  Biso   1.000  O
  C235     1.0000 0.33130  0.06320  0.86710  Biso   1.000  C
  H315     1.0000 0.33240  0.10440  0.85790  Biso   1.000  H
  H316     1.0000 0.30040  0.04790  0.82770  Biso   1.000  H
  C236     1.0000 0.32040  0.05000  0.96990  Biso   1.000  C
  N13      1.0000 0.29230  0.00250  0.99020  Biso   1.000  N
  C237     1.0000 0.28110  0.99000  0.08010  Biso   1.000  C
  H317     1.0000 0.26350  0.95500  0.09370  Biso   1.000  H
  C238     1.0000 0.29380  0.02520  0.15390  Biso   1.000  C
  H318     1.0000 0.28310  0.01590  0.21690  Biso   1.000  H
  C239     1.0000 0.32270  0.07480  0.13460  Biso   1.000  C
  H319     1.0000 0.33410  0.09890  0.18480  Biso   1.000  H
  C240     1.0000 0.33480  0.08890  0.03990  Biso   1.000  C
  H320     1.0000 0.35220  0.12370  0.02420  Biso   1.000  H
  C241     1.0000 0.44930  0.88810  0.06690  Biso   1.000  C
  C242     1.0000 0.43350  0.82510  0.08720  Biso   1.000  C
  H321     1.0000 0.41370  0.80950  0.03230  Biso   1.000  H
  H322     1.0000 0.40900  0.82320  0.14310  Biso   1.000  H
  H323     1.0000 0.46780  0.80340  0.09900  Biso   1.000  H
  C243     1.0000 0.40080  0.92370  0.10730  Biso   1.000  C
  H324     1.0000 0.40940  0.96370  0.09920  Biso   1.000  H
  H325     1.0000 0.39610  0.91530  0.17490  Biso   1.000  H
  H326     1.0000 0.36590  0.91460  0.07350  Biso   1.000  H
  C244     1.0000 0.50560  0.90270  0.11370  Biso   1.000  C
  H327     1.0000 0.53380  0.87460  0.09590  Biso   1.000  H
  H328     1.0000 0.50100  0.90300  0.18270  Biso   1.000  H
  H329     1.0000 0.51790  0.94000  0.09220  Biso   1.000  H
  C245     1.0000 0.37300  0.99760  0.37800  Biso   1.000  C
  C246     1.0000 0.44780  0.07300  0.40600  Biso   1.000  C
  C247     1.0000 0.34440  0.09790  0.41100  Biso   1.000  C
  H330     1.0000 0.35400  0.97110  0.42090  Biso   1.000  H
  H331     1.0000 0.34790  0.00730  0.32570  Biso   1.000  H
  H332     1.0000 0.40730  0.98030  0.35340  Biso   1.000  H
  H333     1.0000 0.44890  0.08150  0.33840  Biso   1.000  H
  H334     1.0000 0.45620  0.10670  0.44290  Biso   1.000  H
  H335     1.0000 0.47590  0.04370  0.42060  Biso   1.000  H
  H336     1.0000 0.34490  0.12580  0.46230  Biso   1.000  H
  H337     1.0000 0.35420  0.11620  0.35110  Biso   1.000  H
  H338     1.0000 0.30670  0.08140  0.40630  Biso   1.000  H
  Ag14     1.0000 0.76698  0.45148  0.35694  Biso   1.000  Ag
  S14      1.0000 0.85109  0.43045  0.23959  Biso   1.000  S
  C248     1.0000 0.87490  0.49360  0.18800  Biso   1.000  C
  C249     1.0000 0.88960  0.54080  0.24240  Biso   1.000  C
  C250     1.0000 0.91130  0.40900  0.30440  Biso   1.000  C
  C251     1.0000 0.90920  0.41120  0.40430  Biso   1.000  C
  H339     1.0000 0.87640  0.42530  0.43450  Biso   1.000  H
  C252     1.0000 0.87740  0.49650  0.08790  Biso   1.000  C
  H340     1.0000 0.86810  0.46400  0.05180  Biso   1.000  H
  C253     1.0000 0.95430  0.39320  0.45960  Biso   1.000  C
  O14      1.0000 0.88340  0.53910  0.33780  Biso   1.000  O
  C254     1.0000 0.83130  0.56320  0.36710  Biso   1.000  C
  H341     1.0000 0.83240  0.60440  0.35790  Biso   1.000  H
  H342     1.0000 0.80040  0.54790  0.32770  Biso   1.000  H
  C255     1.0000 0.82040  0.55000  0.46990  Biso   1.000  C
  N14      1.0000 0.79230  0.50250  0.49020  Biso   1.000  N
  C256     1.0000 0.78110  0.49000  0.58010  Biso   1.000  C
  H343     1.0000 0.76350  0.45500  0.59370  Biso   1.000  H
  C257     1.0000 0.79380  0.52520  0.65390  Biso   1.000  C
  H344     1.0000 0.78310  0.51590  0.71690  Biso   1.000  H
  C258     1.0000 0.82270  0.57480  0.63460  Biso   1.000  C
  H345     1.0000 0.83410  0.59890  0.68480  Biso   1.000  H
  C259     1.0000 0.83480  0.58890  0.53990  Biso   1.000  C
  H346     1.0000 0.85220  0.62370  0.52420  Biso   1.000  H
  C260     1.0000 0.94930  0.38810  0.56690  Biso   1.000  C
  C261     1.0000 0.93350  0.32510  0.58720  Biso   1.000  C
  H347     1.0000 0.91370  0.30950  0.53230  Biso   1.000  H
  H348     1.0000 0.90900  0.32320  0.64310  Biso   1.000  H
  H349     1.0000 0.96780  0.30340  0.59900  Biso   1.000  H
  C262     1.0000 0.90080  0.42370  0.60730  Biso   1.000  C
  H350     1.0000 0.90940  0.46370  0.59920  Biso   1.000  H
  H351     1.0000 0.89610  0.41530  0.67490  Biso   1.000  H
  H352     1.0000 0.86590  0.41460  0.57350  Biso   1.000  H
  C263     1.0000 0.00560  0.40270  0.61370  Biso   1.000  C
  H353     1.0000 0.03380  0.37460  0.59590  Biso   1.000  H
  H354     1.0000 0.00100  0.40300  0.68270  Biso   1.000  H
  H355     1.0000 0.01790  0.44000  0.59220  Biso   1.000  H
  C264     1.0000 0.87300  0.49760  0.87800  Biso   1.000  C
  C265     1.0000 0.94780  0.57300  0.90600  Biso   1.000  C
  C266     1.0000 0.84440  0.59790  0.91100  Biso   1.000  C
  H356     1.0000 0.85400  0.47110  0.92090  Biso   1.000  H
  H357     1.0000 0.84790  0.50730  0.82570  Biso   1.000  H
  H358     1.0000 0.90730  0.48030  0.85340  Biso   1.000  H
  H359     1.0000 0.94890  0.58150  0.83840  Biso   1.000  H
  H360     1.0000 0.95620  0.60670  0.94290  Biso   1.000  H
  H361     1.0000 0.97590  0.54370  0.92060  Biso   1.000  H
  H362     1.0000 0.84490  0.62580  0.96230  Biso   1.000  H
  H363     1.0000 0.85420  0.61620  0.85110  Biso   1.000  H
  H364     1.0000 0.80670  0.58140  0.90630  Biso   1.000  H
  Ag15     1.0000 0.73302  0.04852  0.85694  Biso   1.000  Ag
  S15      1.0000 0.64891  0.06955  0.73959  Biso   1.000  S
  C267     1.0000 0.62510  0.00640  0.68800  Biso   1.000  C
  C268     1.0000 0.61040  0.95920  0.74240  Biso   1.000  C
  C269     1.0000 0.58870  0.09100  0.80440  Biso   1.000  C
  C270     1.0000 0.59080  0.08880  0.90430  Biso   1.000  C
  H365     1.0000 0.62360  0.07470  0.93450  Biso   1.000  H
  C271     1.0000 0.62260  0.00350  0.58790  Biso   1.000  C
  H366     1.0000 0.63190  0.03600  0.55180  Biso   1.000  H
  C272     1.0000 0.54570  0.10680  0.95960  Biso   1.000  C
  O15      1.0000 0.61660  0.96090  0.83780  Biso   1.000  O
  C273     1.0000 0.66870  0.93680  0.86710  Biso   1.000  C
  H367     1.0000 0.66760  0.89560  0.85790  Biso   1.000  H
  H368     1.0000 0.69960  0.95210  0.82770  Biso   1.000  H
  C274     1.0000 0.67960  0.95000  0.96990  Biso   1.000  C
  N15      1.0000 0.70770  0.99750  0.99020  Biso   1.000  N
  C275     1.0000 0.71890  0.01000  0.08010  Biso   1.000  C
  H369     1.0000 0.73650  0.04500  0.09370  Biso   1.000  H
  C276     1.0000 0.70620  0.97480  0.15390  Biso   1.000  C
  H370     1.0000 0.71690  0.98410  0.21690  Biso   1.000  H
  C277     1.0000 0.67730  0.92520  0.13460  Biso   1.000  C
  H371     1.0000 0.66590  0.90110  0.18480  Biso   1.000  H
  C278     1.0000 0.66520  0.91110  0.03990  Biso   1.000  C
  H372     1.0000 0.64780  0.87630  0.02420  Biso   1.000  H
  C279     1.0000 0.55070  0.11190  0.06690  Biso   1.000  C
  C280     1.0000 0.56650  0.17490  0.08720  Biso   1.000  C
  H373     1.0000 0.58630  0.19050  0.03230  Biso   1.000  H
  H374     1.0000 0.59100  0.17680  0.14310  Biso   1.000  H
  H375     1.0000 0.53220  0.19660  0.09900  Biso   1.000  H
  C281     1.0000 0.59920  0.07630  0.10730  Biso   1.000  C
  H376     1.0000 0.59060  0.03630  0.09920  Biso   1.000  H
  H377     1.0000 0.60390  0.08470  0.17490  Biso   1.000  H
  H378     1.0000 0.63410  0.08540  0.07350  Biso   1.000  H
  C282     1.0000 0.49440  0.09730  0.11370  Biso   1.000  C
  H379     1.0000 0.46620  0.12540  0.09590  Biso   1.000  H
  H380     1.0000 0.49900  0.09700  0.18270  Biso   1.000  H
  H381     1.0000 0.48210  0.06000  0.09220  Biso   1.000  H
  C283     1.0000 0.62700  0.00240  0.37800  Biso   1.000  C
  C284     1.0000 0.55220  0.92700  0.40600  Biso   1.000  C
  C285     1.0000 0.65560  0.90210  0.41100  Biso   1.000  C
  H382     1.0000 0.64600  0.02890  0.42090  Biso   1.000  H
  H383     1.0000 0.65210  0.99270  0.32570  Biso   1.000  H
  H384     1.0000 0.59270  0.01970  0.35340  Biso   1.000  H
  H385     1.0000 0.55110  0.91850  0.33840  Biso   1.000  H
  H386     1.0000 0.54380  0.89330  0.44290  Biso   1.000  H
  H387     1.0000 0.52410  0.95630  0.42060  Biso   1.000  H
  H388     1.0000 0.65510  0.87420  0.46230  Biso   1.000  H
  H389     1.0000 0.64580  0.88380  0.35110  Biso   1.000  H
  H390     1.0000 0.69330  0.91860  0.40630  Biso   1.000  H
  Ag16     1.0000 0.23302  0.54852  0.35694  Biso   1.000  Ag
  S16      1.0000 0.14891  0.56955  0.23959  Biso   1.000  S
  C286     1.0000 0.12510  0.50640  0.18800  Biso   1.000  C
  C287     1.0000 0.11040  0.45920  0.24240  Biso   1.000  C
  C288     1.0000 0.08870  0.59100  0.30440  Biso   1.000  C
  C289     1.0000 0.09080  0.58880  0.40430  Biso   1.000  C
  H391     1.0000 0.12360  0.57470  0.43450  Biso   1.000  H
  C290     1.0000 0.12260  0.50350  0.08790  Biso   1.000  C
  H392     1.0000 0.13190  0.53600  0.05180  Biso   1.000  H
  C291     1.0000 0.04570  0.60680  0.45960  Biso   1.000  C
  O16      1.0000 0.11660  0.46090  0.33780  Biso   1.000  O
  C292     1.0000 0.16870  0.43680  0.36710  Biso   1.000  C
  H393     1.0000 0.16760  0.39560  0.35790  Biso   1.000  H
  H394     1.0000 0.19960  0.45210  0.32770  Biso   1.000  H
  C293     1.0000 0.17960  0.45000  0.46990  Biso   1.000  C
  N16      1.0000 0.20770  0.49750  0.49020  Biso   1.000  N
  C294     1.0000 0.21890  0.51000  0.58010  Biso   1.000  C
  H395     1.0000 0.23650  0.54500  0.59370  Biso   1.000  H
  C295     1.0000 0.20620  0.47480  0.65390  Biso   1.000  C
  H396     1.0000 0.21690  0.48410  0.71690  Biso   1.000  H
  C296     1.0000 0.17730  0.42520  0.63460  Biso   1.000  C
  H397     1.0000 0.16590  0.40110  0.68480  Biso   1.000  H
  C297     1.0000 0.16520  0.41110  0.53990  Biso   1.000  C
  H398     1.0000 0.14780  0.37630  0.52420  Biso   1.000  H
  C298     1.0000 0.05070  0.61190  0.56690  Biso   1.000  C
  C299     1.0000 0.06650  0.67490  0.58720  Biso   1.000  C
  H399     1.0000 0.08630  0.69050  0.53230  Biso   1.000  H
  H400     1.0000 0.09100  0.67680  0.64310  Biso   1.000  H
  H401     1.0000 0.03220  0.69660  0.59900  Biso   1.000  H
  C300     1.0000 0.09920  0.57630  0.60730  Biso   1.000  C
  H402     1.0000 0.09060  0.53630  0.59920  Biso   1.000  H
  H403     1.0000 0.10390  0.58470  0.67490  Biso   1.000  H
  H404     1.0000 0.13410  0.58540  0.57350  Biso   1.000  H
  C301     1.0000 0.99440  0.59730  0.61370  Biso   1.000  C
  H405     1.0000 0.96620  0.62540  0.59590  Biso   1.000  H
  H406     1.0000 0.99900  0.59700  0.68270  Biso   1.000  H
  H407     1.0000 0.98210  0.56000  0.59220  Biso   1.000  H
  C302     1.0000 0.12700  0.50240  0.87800  Biso   1.000  C
  C303     1.0000 0.05220  0.42700  0.90600  Biso   1.000  C
  C304     1.0000 0.15560  0.40210  0.91100  Biso   1.000  C
  H408     1.0000 0.14600  0.52890  0.92090  Biso   1.000  H
  H409     1.0000 0.15210  0.49270  0.82570  Biso   1.000  H
  H410     1.0000 0.09270  0.51970  0.85340  Biso   1.000  H
  H411     1.0000 0.05110  0.41850  0.83840  Biso   1.000  H
  H412     1.0000 0.04380  0.39330  0.94290  Biso   1.000  H
  H413     1.0000 0.02410  0.45630  0.92060  Biso   1.000  H
  H414     1.0000 0.15510  0.37420  0.96230  Biso   1.000  H
  H415     1.0000 0.14580  0.38380  0.85110  Biso   1.000  H
  H416     1.0000 0.19330  0.41860  0.90630  Biso   1.000  H
