data_image0
_cell_length_a       42.4947
_cell_length_b       42.4947
_cell_length_c       16.3378
_cell_angle_alpha    90
_cell_angle_beta     90
_cell_angle_gamma    90

_symmetry_space_group_name_H-M    "P 1"
_symmetry_int_tables_number       1

loop_
  _symmetry_equiv_pos_as_xyz
  'x, y, z'

loop_
  _atom_site_label
  _atom_site_occupancy
  _atom_site_fract_x
  _atom_site_fract_y
  _atom_site_fract_z
  _atom_site_thermal_displace_type
  _atom_site_B_iso_or_equiv
  _atom_site_type_symbol
  La1      1.0000 0.20761  0.26934  0.10590  Biso   1.000  La
  La2      1.0000 0.37493  0.46571  0.20254  Biso   1.000  La
  Cu1      1.0000 0.26099  0.39296  0.20019  Biso   1.000  Cu
  Cu2      1.0000 0.13142  0.17181  0.25903  Biso   1.000  Cu
  Cu3      1.0000 0.26828  0.19393  0.85315  Biso   1.000  Cu
  O1       1.0000 0.22245  0.32566  0.06700  Biso   1.000  O
  O2       1.0000 0.23485  0.30245  0.21670  Biso   1.000  O
  O3       1.0000 0.15576  0.23881  0.10500  Biso   1.000  O
  O4       1.0000 0.19423  0.24045  0.23680  Biso   1.000  O
  O5       1.0000 0.21377  0.21749  0.03570  Biso   1.000  O
  O6       1.0000 0.24715  0.26931  0.98690  Biso   1.000  O
  O7       1.0000 0.31803  0.46166  0.13730  Biso   1.000  O
  O8       1.0000 0.33149  0.44340  0.29190  Biso   1.000  O
  O9       1.0000 0.10441  0.08449  0.22100  Biso   1.000  O
  O10      1.0000 0.13705  0.08743  0.36250  Biso   1.000  O
  O11      1.0000 0.26764  0.12472  0.69390  Biso   1.000  O
  O12      1.0000 0.29940  0.17391  0.62910  Biso   1.000  O
  O13      1.0000 0.24058  0.37235  0.10240  Biso   1.000  O
  O14      1.0000 0.27855  0.42714  0.13130  Biso   1.000  O
  N1       1.0000 0.25346  0.35234  0.25180  Biso   1.000  N
  N2       1.0000 0.29034  0.40737  0.28140  Biso   1.000  N
  C1       1.0000 0.23428  0.34362  0.11850  Biso   1.000  C
  C2       1.0000 0.24100  0.33170  0.20400  Biso   1.000  C
  C3       1.0000 0.30150  0.44140  0.16700  Biso   1.000  C
  C4       1.0000 0.30900  0.43000  0.25500  Biso   1.000  C
  C5       1.0000 0.26190  0.34380  0.33420  Biso   1.000  C
  H1       1.0000 0.28030  0.33030  0.33320  Biso   1.000  H
  H2       1.0000 0.24480  0.33220  0.35940  Biso   1.000  H
  C6       1.0000 0.26890  0.37270  0.38310  Biso   1.000  C
  H3       1.0000 0.24990  0.38530  0.38250  Biso   1.000  H
  H4       1.0000 0.27190  0.36590  0.43920  Biso   1.000  H
  C7       1.0000 0.29570  0.35850  0.35910  Biso   1.000  C
  H5       1.0000 0.30210  0.35000  0.41170  Biso   1.000  H
  H6       1.0000 0.31130  0.35210  0.31890  Biso   1.000  H
  C8       1.0000 0.29490  0.39370  0.36380  Biso   1.000  C
  H7       1.0000 0.31460  0.38220  0.36550  Biso   1.000  H
  H8       1.0000 0.29590  0.41040  0.40410  Biso   1.000  H
  O15      1.0000 0.12933  0.19843  0.16020  Biso   1.000  O
  O16      1.0000 0.11046  0.13634  0.20290  Biso   1.000  O
  N3       1.0000 0.16316  0.20190  0.29510  Biso   1.000  N
  N4       1.0000 0.14146  0.14128  0.34090  Biso   1.000  N
  C9       1.0000 0.15050  0.21920  0.15980  Biso   1.000  C
  C10      1.0000 0.17100  0.22090  0.23820  Biso   1.000  C
  C11      1.0000 0.11440  0.11030  0.24300  Biso   1.000  C
  C12      1.0000 0.13270  0.11200  0.32260  Biso   1.000  C
  C13      1.0000 0.18010  0.20040  0.37100  Biso   1.000  C
  H9       1.0000 0.18300  0.22150  0.39240  Biso   1.000  H
  H10      1.0000 0.20080  0.19150  0.36140  Biso   1.000  H
  C14      1.0000 0.16310  0.18100  0.43240  Biso   1.000  C
  H11      1.0000 0.14190  0.18910  0.43740  Biso   1.000  H
  H12      1.0000 0.17330  0.18370  0.48500  Biso   1.000  H
  C15      1.0000 0.16110  0.14620  0.41470  Biso   1.000  C
  H13      1.0000 0.18210  0.13770  0.40550  Biso   1.000  H
  H14      1.0000 0.15190  0.13530  0.46100  Biso   1.000  H
  O17      1.0000 0.23840  0.18856  0.94250  Biso   1.000  O
  O18      1.0000 0.25810  0.15208  0.80650  Biso   1.000  O
  N5       1.0000 0.27030  0.23673  0.89090  Biso   1.000  N
  N6       1.0000 0.29010  0.20068  0.74940  Biso   1.000  N
  C16      1.0000 0.23310  0.21420  0.97910  Biso   1.000  C
  C17      1.0000 0.25230  0.24320  0.95070  Biso   1.000  C
  C18      1.0000 0.26970  0.14900  0.73900  Biso   1.000  C
  C19      1.0000 0.28830  0.17700  0.69960  Biso   1.000  C
  C20      1.0000 0.28970  0.26150  0.85520  Biso   1.000  C
  H15      1.0000 0.29740  0.27510  0.89840  Biso   1.000  H
  H16      1.0000 0.27680  0.27420  0.81880  Biso   1.000  H
  C21      1.0000 0.31760  0.24820  0.80720  Biso   1.000  C
  H17      1.0000 0.32960  0.23430  0.84260  Biso   1.000  H
  H18      1.0000 0.33130  0.26540  0.79110  Biso   1.000  H
  C22      1.0000 0.30470  0.24960  0.77900  Biso   1.000  C
  H19      1.0000 0.30090  0.26740  0.74370  Biso   1.000  H
  H20      1.0000 0.32660  0.25180  0.79490  Biso   1.000  H
  C23      1.0000 0.30740  0.22950  0.72870  Biso   1.000  C
  H21      1.0000 0.29420  0.24280  0.69490  Biso   1.000  H
  H22      1.0000 0.32590  0.22400  0.69710  Biso   1.000  H
  La3      1.0000 0.70761  0.76934  0.60590  Biso   1.000  La
  La4      1.0000 0.87493  0.96571  0.70254  Biso   1.000  La
  Cu4      1.0000 0.76099  0.89296  0.70019  Biso   1.000  Cu
  Cu5      1.0000 0.63142  0.67181  0.75903  Biso   1.000  Cu
  Cu6      1.0000 0.76828  0.69393  0.35315  Biso   1.000  Cu
  O19      1.0000 0.72245  0.82566  0.56700  Biso   1.000  O
  O20      1.0000 0.73485  0.80245  0.71670  Biso   1.000  O
  O21      1.0000 0.65576  0.73881  0.60500  Biso   1.000  O
  O22      1.0000 0.69423  0.74045  0.73680  Biso   1.000  O
  O23      1.0000 0.71377  0.71749  0.53570  Biso   1.000  O
  O24      1.0000 0.74715  0.76931  0.48690  Biso   1.000  O
  O25      1.0000 0.81803  0.96166  0.63730  Biso   1.000  O
  O26      1.0000 0.83149  0.94340  0.79190  Biso   1.000  O
  O27      1.0000 0.60441  0.58449  0.72100  Biso   1.000  O
  O28      1.0000 0.63705  0.58743  0.86250  Biso   1.000  O
  O29      1.0000 0.76764  0.62472  0.19390  Biso   1.000  O
  O30      1.0000 0.79940  0.67391  0.12910  Biso   1.000  O
  O31      1.0000 0.74058  0.87235  0.60240  Biso   1.000  O
  O32      1.0000 0.77855  0.92714  0.63130  Biso   1.000  O
  N7       1.0000 0.75346  0.85234  0.75180  Biso   1.000  N
  N8       1.0000 0.79034  0.90737  0.78140  Biso   1.000  N
  C24      1.0000 0.73428  0.84362  0.61850  Biso   1.000  C
  C25      1.0000 0.74100  0.83170  0.70400  Biso   1.000  C
  C26      1.0000 0.80150  0.94140  0.66700  Biso   1.000  C
  C27      1.0000 0.80900  0.93000  0.75500  Biso   1.000  C
  C28      1.0000 0.76190  0.84380  0.83420  Biso   1.000  C
  H23      1.0000 0.78030  0.83030  0.83320  Biso   1.000  H
  H24      1.0000 0.74480  0.83220  0.85940  Biso   1.000  H
  C29      1.0000 0.76890  0.87270  0.88310  Biso   1.000  C
  H25      1.0000 0.74990  0.88530  0.88250  Biso   1.000  H
  H26      1.0000 0.77190  0.86590  0.93920  Biso   1.000  H
  C30      1.0000 0.79570  0.85850  0.85910  Biso   1.000  C
  H27      1.0000 0.80210  0.85000  0.91170  Biso   1.000  H
  H28      1.0000 0.81130  0.85210  0.81890  Biso   1.000  H
  C31      1.0000 0.79490  0.89370  0.86380  Biso   1.000  C
  H29      1.0000 0.81460  0.88220  0.86550  Biso   1.000  H
  H30      1.0000 0.79590  0.91040  0.90410  Biso   1.000  H
  O33      1.0000 0.62933  0.69843  0.66020  Biso   1.000  O
  O34      1.0000 0.61046  0.63634  0.70290  Biso   1.000  O
  N9       1.0000 0.66316  0.70190  0.79510  Biso   1.000  N
  N10      1.0000 0.64146  0.64128  0.84090  Biso   1.000  N
  C32      1.0000 0.65050  0.71920  0.65980  Biso   1.000  C
  C33      1.0000 0.67100  0.72090  0.73820  Biso   1.000  C
  C34      1.0000 0.61440  0.61030  0.74300  Biso   1.000  C
  C35      1.0000 0.63270  0.61200  0.82260  Biso   1.000  C
  C36      1.0000 0.68010  0.70040  0.87100  Biso   1.000  C
  H31      1.0000 0.68300  0.72150  0.89240  Biso   1.000  H
  H32      1.0000 0.70080  0.69150  0.86140  Biso   1.000  H
  C37      1.0000 0.66310  0.68100  0.93240  Biso   1.000  C
  H33      1.0000 0.64190  0.68910  0.93740  Biso   1.000  H
  H34      1.0000 0.67330  0.68370  0.98500  Biso   1.000  H
  C38      1.0000 0.66110  0.64620  0.91470  Biso   1.000  C
  H35      1.0000 0.68210  0.63770  0.90550  Biso   1.000  H
  H36      1.0000 0.65190  0.63530  0.96100  Biso   1.000  H
  O35      1.0000 0.73840  0.68856  0.44250  Biso   1.000  O
  O36      1.0000 0.75810  0.65208  0.30650  Biso   1.000  O
  N11      1.0000 0.77030  0.73673  0.39090  Biso   1.000  N
  N12      1.0000 0.79010  0.70068  0.24940  Biso   1.000  N
  C39      1.0000 0.73310  0.71420  0.47910  Biso   1.000  C
  C40      1.0000 0.75230  0.74320  0.45070  Biso   1.000  C
  C41      1.0000 0.76970  0.64900  0.23900  Biso   1.000  C
  C42      1.0000 0.78830  0.67700  0.19960  Biso   1.000  C
  C43      1.0000 0.78970  0.76150  0.35520  Biso   1.000  C
  H37      1.0000 0.79740  0.77510  0.39840  Biso   1.000  H
  H38      1.0000 0.77680  0.77420  0.31880  Biso   1.000  H
  C44      1.0000 0.81760  0.74820  0.30720  Biso   1.000  C
  H39      1.0000 0.82960  0.73430  0.34260  Biso   1.000  H
  H40      1.0000 0.83130  0.76540  0.29110  Biso   1.000  H
  C45      1.0000 0.80470  0.74960  0.27900  Biso   1.000  C
  H41      1.0000 0.80090  0.76740  0.24370  Biso   1.000  H
  H42      1.0000 0.82660  0.75180  0.29490  Biso   1.000  H
  C46      1.0000 0.80740  0.72950  0.22870  Biso   1.000  C
  H43      1.0000 0.79420  0.74280  0.19490  Biso   1.000  H
  H44      1.0000 0.82590  0.72400  0.19710  Biso   1.000  H
  La5      1.0000 0.29239  0.73066  0.60590  Biso   1.000  La
  La6      1.0000 0.12507  0.53429  0.70254  Biso   1.000  La
  Cu7      1.0000 0.23901  0.60704  0.70019  Biso   1.000  Cu
  Cu8      1.0000 0.36858  0.82819  0.75903  Biso   1.000  Cu
  Cu9      1.0000 0.23172  0.80607  0.35315  Biso   1.000  Cu
  O37      1.0000 0.27755  0.67434  0.56700  Biso   1.000  O
  O38      1.0000 0.26515  0.69755  0.71670  Biso   1.000  O
  O39      1.0000 0.34424  0.76119  0.60500  Biso   1.000  O
  O40      1.0000 0.30577  0.75955  0.73680  Biso   1.000  O
  O41      1.0000 0.28623  0.78251  0.53570  Biso   1.000  O
  O42      1.0000 0.25285  0.73069  0.48690  Biso   1.000  O
  O43      1.0000 0.18197  0.53834  0.63730  Biso   1.000  O
  O44      1.0000 0.16851  0.55660  0.79190  Biso   1.000  O
  O45      1.0000 0.39559  0.91551  0.72100  Biso   1.000  O
  O46      1.0000 0.36295  0.91257  0.86250  Biso   1.000  O
  O47      1.0000 0.23236  0.87528  0.19390  Biso   1.000  O
  O48      1.0000 0.20060  0.82609  0.12910  Biso   1.000  O
  O49      1.0000 0.25942  0.62765  0.60240  Biso   1.000  O
  O50      1.0000 0.22145  0.57286  0.63130  Biso   1.000  O
  N13      1.0000 0.24654  0.64766  0.75180  Biso   1.000  N
  N14      1.0000 0.20966  0.59263  0.78140  Biso   1.000  N
  C47      1.0000 0.26572  0.65638  0.61850  Biso   1.000  C
  C48      1.0000 0.25900  0.66830  0.70400  Biso   1.000  C
  C49      1.0000 0.19850  0.55860  0.66700  Biso   1.000  C
  C50      1.0000 0.19100  0.57000  0.75500  Biso   1.000  C
  C51      1.0000 0.23810  0.65620  0.83420  Biso   1.000  C
  H45      1.0000 0.21970  0.66970  0.83320  Biso   1.000  H
  H46      1.0000 0.25520  0.66780  0.85940  Biso   1.000  H
  C52      1.0000 0.23110  0.62730  0.88310  Biso   1.000  C
  H47      1.0000 0.25010  0.61470  0.88250  Biso   1.000  H
  H48      1.0000 0.22810  0.63410  0.93920  Biso   1.000  H
  C53      1.0000 0.20430  0.64150  0.85910  Biso   1.000  C
  H49      1.0000 0.19790  0.65000  0.91170  Biso   1.000  H
  H50      1.0000 0.18870  0.64790  0.81890  Biso   1.000  H
  C54      1.0000 0.20510  0.60630  0.86380  Biso   1.000  C
  H51      1.0000 0.18540  0.61780  0.86550  Biso   1.000  H
  H52      1.0000 0.20410  0.58960  0.90410  Biso   1.000  H
  O51      1.0000 0.37067  0.80157  0.66020  Biso   1.000  O
  O52      1.0000 0.38954  0.86366  0.70290  Biso   1.000  O
  N15      1.0000 0.33684  0.79810  0.79510  Biso   1.000  N
  N16      1.0000 0.35854  0.85872  0.84090  Biso   1.000  N
  C55      1.0000 0.34950  0.78080  0.65980  Biso   1.000  C
  C56      1.0000 0.32900  0.77910  0.73820  Biso   1.000  C
  C57      1.0000 0.38560  0.88970  0.74300  Biso   1.000  C
  C58      1.0000 0.36730  0.88800  0.82260  Biso   1.000  C
  C59      1.0000 0.31990  0.79960  0.87100  Biso   1.000  C
  H53      1.0000 0.31700  0.77850  0.89240  Biso   1.000  H
  H54      1.0000 0.29920  0.80850  0.86140  Biso   1.000  H
  C60      1.0000 0.33690  0.81900  0.93240  Biso   1.000  C
  H55      1.0000 0.35810  0.81090  0.93740  Biso   1.000  H
  H56      1.0000 0.32670  0.81630  0.98500  Biso   1.000  H
  C61      1.0000 0.33890  0.85380  0.91470  Biso   1.000  C
  H57      1.0000 0.31790  0.86230  0.90550  Biso   1.000  H
  H58      1.0000 0.34810  0.86470  0.96100  Biso   1.000  H
  O53      1.0000 0.26160  0.81144  0.44250  Biso   1.000  O
  O54      1.0000 0.24190  0.84792  0.30650  Biso   1.000  O
  N17      1.0000 0.22970  0.76327  0.39090  Biso   1.000  N
  N18      1.0000 0.20990  0.79932  0.24940  Biso   1.000  N
  C62      1.0000 0.26690  0.78580  0.47910  Biso   1.000  C
  C63      1.0000 0.24770  0.75680  0.45070  Biso   1.000  C
  C64      1.0000 0.23030  0.85100  0.23900  Biso   1.000  C
  C65      1.0000 0.21170  0.82300  0.19960  Biso   1.000  C
  C66      1.0000 0.21030  0.73850  0.35520  Biso   1.000  C
  H59      1.0000 0.20260  0.72490  0.39840  Biso   1.000  H
  H60      1.0000 0.22320  0.72580  0.31880  Biso   1.000  H
  C67      1.0000 0.18240  0.75180  0.30720  Biso   1.000  C
  H61      1.0000 0.17040  0.76570  0.34260  Biso   1.000  H
  H62      1.0000 0.16870  0.73460  0.29110  Biso   1.000  H
  C68      1.0000 0.19530  0.75040  0.27900  Biso   1.000  C
  H63      1.0000 0.19910  0.73260  0.24370  Biso   1.000  H
  H64      1.0000 0.17340  0.74820  0.29490  Biso   1.000  H
  C69      1.0000 0.19260  0.77050  0.22870  Biso   1.000  C
  H65      1.0000 0.20580  0.75720  0.19490  Biso   1.000  H
  H66      1.0000 0.17410  0.77600  0.19710  Biso   1.000  H
  La7      1.0000 0.79239  0.23066  0.10590  Biso   1.000  La
  La8      1.0000 0.62507  0.03429  0.20254  Biso   1.000  La
  Cu10     1.0000 0.73901  0.10704  0.20019  Biso   1.000  Cu
  Cu11     1.0000 0.86858  0.32819  0.25903  Biso   1.000  Cu
  Cu12     1.0000 0.73172  0.30607  0.85315  Biso   1.000  Cu
  O55      1.0000 0.77755  0.17434  0.06700  Biso   1.000  O
  O56      1.0000 0.76515  0.19755  0.21670  Biso   1.000  O
  O57      1.0000 0.84424  0.26119  0.10500  Biso   1.000  O
  O58      1.0000 0.80577  0.25955  0.23680  Biso   1.000  O
  O59      1.0000 0.78623  0.28251  0.03570  Biso   1.000  O
  O60      1.0000 0.75285  0.23069  0.98690  Biso   1.000  O
  O61      1.0000 0.68197  0.03834  0.13730  Biso   1.000  O
  O62      1.0000 0.66851  0.05660  0.29190  Biso   1.000  O
  O63      1.0000 0.89559  0.41551  0.22100  Biso   1.000  O
  O64      1.0000 0.86295  0.41257  0.36250  Biso   1.000  O
  O65      1.0000 0.73236  0.37528  0.69390  Biso   1.000  O
  O66      1.0000 0.70060  0.32609  0.62910  Biso   1.000  O
  O67      1.0000 0.75942  0.12765  0.10240  Biso   1.000  O
  O68      1.0000 0.72145  0.07286  0.13130  Biso   1.000  O
  N19      1.0000 0.74654  0.14766  0.25180  Biso   1.000  N
  N20      1.0000 0.70966  0.09263  0.28140  Biso   1.000  N
  C70      1.0000 0.76572  0.15638  0.11850  Biso   1.000  C
  C71      1.0000 0.75900  0.16830  0.20400  Biso   1.000  C
  C72      1.0000 0.69850  0.05860  0.16700  Biso   1.000  C
  C73      1.0000 0.69100  0.07000  0.25500  Biso   1.000  C
  C74      1.0000 0.73810  0.15620  0.33420  Biso   1.000  C
  H67      1.0000 0.71970  0.16970  0.33320  Biso   1.000  H
  H68      1.0000 0.75520  0.16780  0.35940  Biso   1.000  H
  C75      1.0000 0.73110  0.12730  0.38310  Biso   1.000  C
  H69      1.0000 0.75010  0.11470  0.38250  Biso   1.000  H
  H70      1.0000 0.72810  0.13410  0.43920  Biso   1.000  H
  C76      1.0000 0.70430  0.14150  0.35910  Biso   1.000  C
  H71      1.0000 0.69790  0.15000  0.41170  Biso   1.000  H
  H72      1.0000 0.68870  0.14790  0.31890  Biso   1.000  H
  C77      1.0000 0.70510  0.10630  0.36380  Biso   1.000  C
  H73      1.0000 0.68540  0.11780  0.36550  Biso   1.000  H
  H74      1.0000 0.70410  0.08960  0.40410  Biso   1.000  H
  O69      1.0000 0.87067  0.30157  0.16020  Biso   1.000  O
  O70      1.0000 0.88954  0.36366  0.20290  Biso   1.000  O
  N21      1.0000 0.83684  0.29810  0.29510  Biso   1.000  N
  N22      1.0000 0.85854  0.35872  0.34090  Biso   1.000  N
  C78      1.0000 0.84950  0.28080  0.15980  Biso   1.000  C
  C79      1.0000 0.82900  0.27910  0.23820  Biso   1.000  C
  C80      1.0000 0.88560  0.38970  0.24300  Biso   1.000  C
  C81      1.0000 0.86730  0.38800  0.32260  Biso   1.000  C
  C82      1.0000 0.81990  0.29960  0.37100  Biso   1.000  C
  H75      1.0000 0.81700  0.27850  0.39240  Biso   1.000  H
  H76      1.0000 0.79920  0.30850  0.36140  Biso   1.000  H
  C83      1.0000 0.83690  0.31900  0.43240  Biso   1.000  C
  H77      1.0000 0.85810  0.31090  0.43740  Biso   1.000  H
  H78      1.0000 0.82670  0.31630  0.48500  Biso   1.000  H
  C84      1.0000 0.83890  0.35380  0.41470  Biso   1.000  C
  H79      1.0000 0.81790  0.36230  0.40550  Biso   1.000  H
  H80      1.0000 0.84810  0.36470  0.46100  Biso   1.000  H
  O71      1.0000 0.76160  0.31144  0.94250  Biso   1.000  O
  O72      1.0000 0.74190  0.34792  0.80650  Biso   1.000  O
  N23      1.0000 0.72970  0.26327  0.89090  Biso   1.000  N
  N24      1.0000 0.70990  0.29932  0.74940  Biso   1.000  N
  C85      1.0000 0.76690  0.28580  0.97910  Biso   1.000  C
  C86      1.0000 0.74770  0.25680  0.95070  Biso   1.000  C
  C87      1.0000 0.73030  0.35100  0.73900  Biso   1.000  C
  C88      1.0000 0.71170  0.32300  0.69960  Biso   1.000  C
  C89      1.0000 0.71030  0.23850  0.85520  Biso   1.000  C
  H81      1.0000 0.70260  0.22490  0.89840  Biso   1.000  H
  H82      1.0000 0.72320  0.22580  0.81880  Biso   1.000  H
  C90      1.0000 0.68240  0.25180  0.80720  Biso   1.000  C
  H83      1.0000 0.67040  0.26570  0.84260  Biso   1.000  H
  H84      1.0000 0.66870  0.23460  0.79110  Biso   1.000  H
  C91      1.0000 0.69530  0.25040  0.77900  Biso   1.000  C
  H85      1.0000 0.69910  0.23260  0.74370  Biso   1.000  H
  H86      1.0000 0.67340  0.24820  0.79490  Biso   1.000  H
  C92      1.0000 0.69260  0.27050  0.72870  Biso   1.000  C
  H87      1.0000 0.70580  0.25720  0.69490  Biso   1.000  H
  H88      1.0000 0.67410  0.27600  0.69710  Biso   1.000  H
  La9      1.0000 0.48066  0.45761  0.35590  Biso   1.000  La
  La10     1.0000 0.28429  0.62493  0.45254  Biso   1.000  La
  Cu13     1.0000 0.35704  0.51099  0.45019  Biso   1.000  Cu
  Cu14     1.0000 0.57819  0.38142  0.50903  Biso   1.000  Cu
  Cu15     1.0000 0.55607  0.51828  0.10315  Biso   1.000  Cu
  O73      1.0000 0.42434  0.47245  0.31700  Biso   1.000  O
  O74      1.0000 0.44755  0.48485  0.46670  Biso   1.000  O
  O75      1.0000 0.51119  0.40576  0.35500  Biso   1.000  O
  O76      1.0000 0.50955  0.44423  0.48680  Biso   1.000  O
  O77      1.0000 0.53251  0.46377  0.28570  Biso   1.000  O
  O78      1.0000 0.48069  0.49715  0.23690  Biso   1.000  O
  O79      1.0000 0.28834  0.56803  0.38730  Biso   1.000  O
  O80      1.0000 0.30660  0.58149  0.54190  Biso   1.000  O
  O81      1.0000 0.66551  0.35441  0.47100  Biso   1.000  O
  O82      1.0000 0.66257  0.38705  0.61250  Biso   1.000  O
  O83      1.0000 0.62528  0.51764  0.94390  Biso   1.000  O
  O84      1.0000 0.57609  0.54940  0.87910  Biso   1.000  O
  O85      1.0000 0.37765  0.49058  0.35240  Biso   1.000  O
  O86      1.0000 0.32286  0.52855  0.38130  Biso   1.000  O
  N25      1.0000 0.39766  0.50346  0.50180  Biso   1.000  N
  N26      1.0000 0.34263  0.54034  0.53140  Biso   1.000  N
  C93      1.0000 0.40638  0.48428  0.36850  Biso   1.000  C
  C94      1.0000 0.41830  0.49100  0.45400  Biso   1.000  C
  C95      1.0000 0.30860  0.55150  0.41700  Biso   1.000  C
  C96      1.0000 0.32000  0.55900  0.50500  Biso   1.000  C
  C97      1.0000 0.40620  0.51190  0.58420  Biso   1.000  C
  H89      1.0000 0.41970  0.53030  0.58320  Biso   1.000  H
  H90      1.0000 0.41780  0.49480  0.60940  Biso   1.000  H
  C98      1.0000 0.37730  0.51890  0.63310  Biso   1.000  C
  H91      1.0000 0.36470  0.49990  0.63250  Biso   1.000  H
  H92      1.0000 0.38410  0.52190  0.68920  Biso   1.000  H
  C99      1.0000 0.39150  0.54570  0.60910  Biso   1.000  C
  H93      1.0000 0.40000  0.55210  0.66170  Biso   1.000  H
  H94      1.0000 0.39790  0.56130  0.56890  Biso   1.000  H
  C100     1.0000 0.35630  0.54490  0.61380  Biso   1.000  C
  H95      1.0000 0.36780  0.56460  0.61550  Biso   1.000  H
  H96      1.0000 0.33960  0.54590  0.65410  Biso   1.000  H
  O87      1.0000 0.55157  0.37933  0.41020  Biso   1.000  O
  O88      1.0000 0.61366  0.36046  0.45290  Biso   1.000  O
  N27      1.0000 0.54810  0.41316  0.54510  Biso   1.000  N
  N28      1.0000 0.60872  0.39146  0.59090  Biso   1.000  N
  C101     1.0000 0.53080  0.40050  0.40980  Biso   1.000  C
  C102     1.0000 0.52910  0.42100  0.48820  Biso   1.000  C
  C103     1.0000 0.63970  0.36440  0.49300  Biso   1.000  C
  C104     1.0000 0.63800  0.38270  0.57260  Biso   1.000  C
  C105     1.0000 0.54960  0.43010  0.62100  Biso   1.000  C
  H97      1.0000 0.52850  0.43300  0.64240  Biso   1.000  H
  H98      1.0000 0.55850  0.45080  0.61140  Biso   1.000  H
  C106     1.0000 0.56900  0.41310  0.68240  Biso   1.000  C
  H99      1.0000 0.56090  0.39190  0.68740  Biso   1.000  H
  H100     1.0000 0.56630  0.42330  0.73500  Biso   1.000  H
  C107     1.0000 0.60380  0.41110  0.66470  Biso   1.000  C
  H101     1.0000 0.61230  0.43210  0.65550  Biso   1.000  H
  H102     1.0000 0.61470  0.40190  0.71100  Biso   1.000  H
  O89      1.0000 0.56144  0.48840  0.19250  Biso   1.000  O
  O90      1.0000 0.59792  0.50810  0.05650  Biso   1.000  O
  N29      1.0000 0.51327  0.52030  0.14090  Biso   1.000  N
  N30      1.0000 0.54932  0.54010  0.99940  Biso   1.000  N
  C108     1.0000 0.53580  0.48310  0.22910  Biso   1.000  C
  C109     1.0000 0.50680  0.50230  0.20070  Biso   1.000  C
  C110     1.0000 0.60100  0.51970  0.98900  Biso   1.000  C
  C111     1.0000 0.57300  0.53830  0.94960  Biso   1.000  C
  C112     1.0000 0.48850  0.53970  0.10520  Biso   1.000  C
  H103     1.0000 0.47490  0.54740  0.14840  Biso   1.000  H
  H104     1.0000 0.47580  0.52680  0.06880  Biso   1.000  H
  C113     1.0000 0.50180  0.56760  0.05720  Biso   1.000  C
  H105     1.0000 0.51570  0.57960  0.09260  Biso   1.000  H
  H106     1.0000 0.48460  0.58130  0.04110  Biso   1.000  H
  C114     1.0000 0.50040  0.55470  0.02900  Biso   1.000  C
  H107     1.0000 0.48260  0.55090  0.99370  Biso   1.000  H
  H108     1.0000 0.49820  0.57660  0.04490  Biso   1.000  H
  C115     1.0000 0.52050  0.55740  0.97870  Biso   1.000  C
  H109     1.0000 0.50720  0.54420  0.94490  Biso   1.000  H
  H110     1.0000 0.52600  0.57590  0.94710  Biso   1.000  H
  La11     1.0000 0.98066  0.95761  0.85590  Biso   1.000  La
  La12     1.0000 0.78429  0.12493  0.95254  Biso   1.000  La
  Cu16     1.0000 0.85704  0.01099  0.95019  Biso   1.000  Cu
  Cu17     1.0000 0.07819  0.88142  0.00903  Biso   1.000  Cu
  Cu18     1.0000 0.05607  0.01828  0.60315  Biso   1.000  Cu
  O91      1.0000 0.92434  0.97245  0.81700  Biso   1.000  O
  O92      1.0000 0.94755  0.98485  0.96670  Biso   1.000  O
  O93      1.0000 0.01119  0.90576  0.85500  Biso   1.000  O
  O94      1.0000 0.00955  0.94423  0.98680  Biso   1.000  O
  O95      1.0000 0.03251  0.96377  0.78570  Biso   1.000  O
  O96      1.0000 0.98069  0.99715  0.73690  Biso   1.000  O
  O97      1.0000 0.78834  0.06803  0.88730  Biso   1.000  O
  O98      1.0000 0.80660  0.08149  0.04190  Biso   1.000  O
  O99      1.0000 0.16551  0.85441  0.97100  Biso   1.000  O
  O100     1.0000 0.16257  0.88705  0.11250  Biso   1.000  O
  O101     1.0000 0.12528  0.01764  0.44390  Biso   1.000  O
  O102     1.0000 0.07609  0.04940  0.37910  Biso   1.000  O
  O103     1.0000 0.87765  0.99058  0.85240  Biso   1.000  O
  O104     1.0000 0.82286  0.02855  0.88130  Biso   1.000  O
  N31      1.0000 0.89766  0.00346  0.00180  Biso   1.000  N
  N32      1.0000 0.84263  0.04034  0.03140  Biso   1.000  N
  C116     1.0000 0.90638  0.98428  0.86850  Biso   1.000  C
  C117     1.0000 0.91830  0.99100  0.95400  Biso   1.000  C
  C118     1.0000 0.80860  0.05150  0.91700  Biso   1.000  C
  C119     1.0000 0.82000  0.05900  0.00500  Biso   1.000  C
  C120     1.0000 0.90620  0.01190  0.08420  Biso   1.000  C
  H111     1.0000 0.91970  0.03030  0.08320  Biso   1.000  H
  H112     1.0000 0.91780  0.99480  0.10940  Biso   1.000  H
  C121     1.0000 0.87730  0.01890  0.13310  Biso   1.000  C
  H113     1.0000 0.86470  0.99990  0.13250  Biso   1.000  H
  H114     1.0000 0.88410  0.02190  0.18920  Biso   1.000  H
  C122     1.0000 0.89150  0.04570  0.10910  Biso   1.000  C
  H115     1.0000 0.90000  0.05210  0.16170  Biso   1.000  H
  H116     1.0000 0.89790  0.06130  0.06890  Biso   1.000  H
  C123     1.0000 0.85630  0.04490  0.11380  Biso   1.000  C
  H117     1.0000 0.86780  0.06460  0.11550  Biso   1.000  H
  H118     1.0000 0.83960  0.04590  0.15410  Biso   1.000  H
  O105     1.0000 0.05157  0.87933  0.91020  Biso   1.000  O
  O106     1.0000 0.11366  0.86046  0.95290  Biso   1.000  O
  N33      1.0000 0.04810  0.91316  0.04510  Biso   1.000  N
  N34      1.0000 0.10872  0.89146  0.09090  Biso   1.000  N
  C124     1.0000 0.03080  0.90050  0.90980  Biso   1.000  C
  C125     1.0000 0.02910  0.92100  0.98820  Biso   1.000  C
  C126     1.0000 0.13970  0.86440  0.99300  Biso   1.000  C
  C127     1.0000 0.13800  0.88270  0.07260  Biso   1.000  C
  C128     1.0000 0.04960  0.93010  0.12100  Biso   1.000  C
  H119     1.0000 0.02850  0.93300  0.14240  Biso   1.000  H
  H120     1.0000 0.05850  0.95080  0.11140  Biso   1.000  H
  C129     1.0000 0.06900  0.91310  0.18240  Biso   1.000  C
  H121     1.0000 0.06090  0.89190  0.18740  Biso   1.000  H
  H122     1.0000 0.06630  0.92330  0.23500  Biso   1.000  H
  C130     1.0000 0.10380  0.91110  0.16470  Biso   1.000  C
  H123     1.0000 0.11230  0.93210  0.15550  Biso   1.000  H
  H124     1.0000 0.11470  0.90190  0.21100  Biso   1.000  H
  O107     1.0000 0.06144  0.98840  0.69250  Biso   1.000  O
  O108     1.0000 0.09792  0.00810  0.55650  Biso   1.000  O
  N35      1.0000 0.01327  0.02030  0.64090  Biso   1.000  N
  N36      1.0000 0.04932  0.04010  0.49940  Biso   1.000  N
  C131     1.0000 0.03580  0.98310  0.72910  Biso   1.000  C
  C132     1.0000 0.00680  0.00230  0.70070  Biso   1.000  C
  C133     1.0000 0.10100  0.01970  0.48900  Biso   1.000  C
  C134     1.0000 0.07300  0.03830  0.44960  Biso   1.000  C
  C135     1.0000 0.98850  0.03970  0.60520  Biso   1.000  C
  H125     1.0000 0.97490  0.04740  0.64840  Biso   1.000  H
  H126     1.0000 0.97580  0.02680  0.56880  Biso   1.000  H
  C136     1.0000 0.00180  0.06760  0.55720  Biso   1.000  C
  H127     1.0000 0.01570  0.07960  0.59260  Biso   1.000  H
  H128     1.0000 0.98460  0.08130  0.54110  Biso   1.000  H
  C137     1.0000 0.00040  0.05470  0.52900  Biso   1.000  C
  H129     1.0000 0.98260  0.05090  0.49370  Biso   1.000  H
  H130     1.0000 0.99820  0.07660  0.54490  Biso   1.000  H
  C138     1.0000 0.02050  0.05740  0.47870  Biso   1.000  C
  H131     1.0000 0.00720  0.04420  0.44490  Biso   1.000  H
  H132     1.0000 0.02600  0.07590  0.44710  Biso   1.000  H
  La13     1.0000 0.01934  0.54239  0.85590  Biso   1.000  La
  La14     1.0000 0.21571  0.37507  0.95254  Biso   1.000  La
  Cu19     1.0000 0.14296  0.48901  0.95019  Biso   1.000  Cu
  Cu20     1.0000 0.92181  0.61858  0.00903  Biso   1.000  Cu
  Cu21     1.0000 0.94393  0.48172  0.60315  Biso   1.000  Cu
  O109     1.0000 0.07566  0.52755  0.81700  Biso   1.000  O
  O110     1.0000 0.05245  0.51515  0.96670  Biso   1.000  O
  O111     1.0000 0.98881  0.59424  0.85500  Biso   1.000  O
  O112     1.0000 0.99045  0.55577  0.98680  Biso   1.000  O
  O113     1.0000 0.96749  0.53623  0.78570  Biso   1.000  O
  O114     1.0000 0.01931  0.50285  0.73690  Biso   1.000  O
  O115     1.0000 0.21166  0.43197  0.88730  Biso   1.000  O
  O116     1.0000 0.19340  0.41851  0.04190  Biso   1.000  O
  O117     1.0000 0.83449  0.64559  0.97100  Biso   1.000  O
  O118     1.0000 0.83743  0.61295  0.11250  Biso   1.000  O
  O119     1.0000 0.87472  0.48236  0.44390  Biso   1.000  O
  O120     1.0000 0.92391  0.45060  0.37910  Biso   1.000  O
  O121     1.0000 0.12235  0.50942  0.85240  Biso   1.000  O
  O122     1.0000 0.17714  0.47145  0.88130  Biso   1.000  O
  N37      1.0000 0.10234  0.49654  0.00180  Biso   1.000  N
  N38      1.0000 0.15737  0.45966  0.03140  Biso   1.000  N
  C139     1.0000 0.09362  0.51572  0.86850  Biso   1.000  C
  C140     1.0000 0.08170  0.50900  0.95400  Biso   1.000  C
  C141     1.0000 0.19140  0.44850  0.91700  Biso   1.000  C
  C142     1.0000 0.18000  0.44100  0.00500  Biso   1.000  C
  C143     1.0000 0.09380  0.48810  0.08420  Biso   1.000  C
  H133     1.0000 0.08030  0.46970  0.08320  Biso   1.000  H
  H134     1.0000 0.08220  0.50520  0.10940  Biso   1.000  H
  C144     1.0000 0.12270  0.48110  0.13310  Biso   1.000  C
  H135     1.0000 0.13530  0.50010  0.13250  Biso   1.000  H
  H136     1.0000 0.11590  0.47810  0.18920  Biso   1.000  H
  C145     1.0000 0.10850  0.45430  0.10910  Biso   1.000  C
  H137     1.0000 0.10000  0.44790  0.16170  Biso   1.000  H
  H138     1.0000 0.10210  0.43870  0.06890  Biso   1.000  H
  C146     1.0000 0.14370  0.45510  0.11380  Biso   1.000  C
  H139     1.0000 0.13220  0.43540  0.11550  Biso   1.000  H
  H140     1.0000 0.16040  0.45410  0.15410  Biso   1.000  H
  O123     1.0000 0.94843  0.62067  0.91020  Biso   1.000  O
  O124     1.0000 0.88634  0.63954  0.95290  Biso   1.000  O
  N39      1.0000 0.95190  0.58684  0.04510  Biso   1.000  N
  N40      1.0000 0.89128  0.60854  0.09090  Biso   1.000  N
  C147     1.0000 0.96920  0.59950  0.90980  Biso   1.000  C
  C148     1.0000 0.97090  0.57900  0.98820  Biso   1.000  C
  C149     1.0000 0.86030  0.63560  0.99300  Biso   1.000  C
  C150     1.0000 0.86200  0.61730  0.07260  Biso   1.000  C
  C151     1.0000 0.95040  0.56990  0.12100  Biso   1.000  C
  H141     1.0000 0.97150  0.56700  0.14240  Biso   1.000  H
  H142     1.0000 0.94150  0.54920  0.11140  Biso   1.000  H
  C152     1.0000 0.93100  0.58690  0.18240  Biso   1.000  C
  H143     1.0000 0.93910  0.60810  0.18740  Biso   1.000  H
  H144     1.0000 0.93370  0.57670  0.23500  Biso   1.000  H
  C153     1.0000 0.89620  0.58890  0.16470  Biso   1.000  C
  H145     1.0000 0.88770  0.56790  0.15550  Biso   1.000  H
  H146     1.0000 0.88530  0.59810  0.21100  Biso   1.000  H
  O125     1.0000 0.93856  0.51160  0.69250  Biso   1.000  O
  O126     1.0000 0.90208  0.49190  0.55650  Biso   1.000  O
  N41      1.0000 0.98673  0.47970  0.64090  Biso   1.000  N
  N42      1.0000 0.95068  0.45990  0.49940  Biso   1.000  N
  C154     1.0000 0.96420  0.51690  0.72910  Biso   1.000  C
  C155     1.0000 0.99320  0.49770  0.70070  Biso   1.000  C
  C156     1.0000 0.89900  0.48030  0.48900  Biso   1.000  C
  C157     1.0000 0.92700  0.46170  0.44960  Biso   1.000  C
  C158     1.0000 0.01150  0.46030  0.60520  Biso   1.000  C
  H147     1.0000 0.02510  0.45260  0.64840  Biso   1.000  H
  H148     1.0000 0.02420  0.47320  0.56880  Biso   1.000  H
  C159     1.0000 0.99820  0.43240  0.55720  Biso   1.000  C
  H149     1.0000 0.98430  0.42040  0.59260  Biso   1.000  H
  H150     1.0000 0.01540  0.41870  0.54110  Biso   1.000  H
  C160     1.0000 0.99960  0.44530  0.52900  Biso   1.000  C
  H151     1.0000 0.01740  0.44910  0.49370  Biso   1.000  H
  H152     1.0000 0.00180  0.42340  0.54490  Biso   1.000  H
  C161     1.0000 0.97950  0.44260  0.47870  Biso   1.000  C
  H153     1.0000 0.99280  0.45580  0.44490  Biso   1.000  H
  H154     1.0000 0.97400  0.42410  0.44710  Biso   1.000  H
  La15     1.0000 0.51934  0.04239  0.35590  Biso   1.000  La
  La16     1.0000 0.71571  0.87507  0.45254  Biso   1.000  La
  Cu22     1.0000 0.64296  0.98901  0.45019  Biso   1.000  Cu
  Cu23     1.0000 0.42181  0.11858  0.50903  Biso   1.000  Cu
  Cu24     1.0000 0.44393  0.98172  0.10315  Biso   1.000  Cu
  O127     1.0000 0.57566  0.02755  0.31700  Biso   1.000  O
  O128     1.0000 0.55245  0.01515  0.46670  Biso   1.000  O
  O129     1.0000 0.48881  0.09424  0.35500  Biso   1.000  O
  O130     1.0000 0.49045  0.05577  0.48680  Biso   1.000  O
  O131     1.0000 0.46749  0.03623  0.28570  Biso   1.000  O
  O132     1.0000 0.51931  0.00285  0.23690  Biso   1.000  O
  O133     1.0000 0.71166  0.93197  0.38730  Biso   1.000  O
  O134     1.0000 0.69340  0.91851  0.54190  Biso   1.000  O
  O135     1.0000 0.33449  0.14559  0.47100  Biso   1.000  O
  O136     1.0000 0.33743  0.11295  0.61250  Biso   1.000  O
  O137     1.0000 0.37472  0.98236  0.94390  Biso   1.000  O
  O138     1.0000 0.42391  0.95060  0.87910  Biso   1.000  O
  O139     1.0000 0.62235  0.00942  0.35240  Biso   1.000  O
  O140     1.0000 0.67714  0.97145  0.38130  Biso   1.000  O
  N43      1.0000 0.60234  0.99654  0.50180  Biso   1.000  N
  N44      1.0000 0.65737  0.95966  0.53140  Biso   1.000  N
  C162     1.0000 0.59362  0.01572  0.36850  Biso   1.000  C
  C163     1.0000 0.58170  0.00900  0.45400  Biso   1.000  C
  C164     1.0000 0.69140  0.94850  0.41700  Biso   1.000  C
  C165     1.0000 0.68000  0.94100  0.50500  Biso   1.000  C
  C166     1.0000 0.59380  0.98810  0.58420  Biso   1.000  C
  H155     1.0000 0.58030  0.96970  0.58320  Biso   1.000  H
  H156     1.0000 0.58220  0.00520  0.60940  Biso   1.000  H
  C167     1.0000 0.62270  0.98110  0.63310  Biso   1.000  C
  H157     1.0000 0.63530  0.00010  0.63250  Biso   1.000  H
  H158     1.0000 0.61590  0.97810  0.68920  Biso   1.000  H
  C168     1.0000 0.60850  0.95430  0.60910  Biso   1.000  C
  H159     1.0000 0.60000  0.94790  0.66170  Biso   1.000  H
  H160     1.0000 0.60210  0.93870  0.56890  Biso   1.000  H
  C169     1.0000 0.64370  0.95510  0.61380  Biso   1.000  C
  H161     1.0000 0.63220  0.93540  0.61550  Biso   1.000  H
  H162     1.0000 0.66040  0.95410  0.65410  Biso   1.000  H
  O141     1.0000 0.44843  0.12067  0.41020  Biso   1.000  O
  O142     1.0000 0.38634  0.13954  0.45290  Biso   1.000  O
  N45      1.0000 0.45190  0.08684  0.54510  Biso   1.000  N
  N46      1.0000 0.39128  0.10854  0.59090  Biso   1.000  N
  C170     1.0000 0.46920  0.09950  0.40980  Biso   1.000  C
  C171     1.0000 0.47090  0.07900  0.48820  Biso   1.000  C
  C172     1.0000 0.36030  0.13560  0.49300  Biso   1.000  C
  C173     1.0000 0.36200  0.11730  0.57260  Biso   1.000  C
  C174     1.0000 0.45040  0.06990  0.62100  Biso   1.000  C
  H163     1.0000 0.47150  0.06700  0.64240  Biso   1.000  H
  H164     1.0000 0.44150  0.04920  0.61140  Biso   1.000  H
  C175     1.0000 0.43100  0.08690  0.68240  Biso   1.000  C
  H165     1.0000 0.43910  0.10810  0.68740  Biso   1.000  H
  H166     1.0000 0.43370  0.07670  0.73500  Biso   1.000  H
  C176     1.0000 0.39620  0.08890  0.66470  Biso   1.000  C
  H167     1.0000 0.38770  0.06790  0.65550  Biso   1.000  H
  H168     1.0000 0.38530  0.09810  0.71100  Biso   1.000  H
  O143     1.0000 0.43856  0.01160  0.19250  Biso   1.000  O
  O144     1.0000 0.40208  0.99190  0.05650  Biso   1.000  O
  N47      1.0000 0.48673  0.97970  0.14090  Biso   1.000  N
  N48      1.0000 0.45068  0.95990  0.99940  Biso   1.000  N
  C177     1.0000 0.46420  0.01690  0.22910  Biso   1.000  C
  C178     1.0000 0.49320  0.99770  0.20070  Biso   1.000  C
  C179     1.0000 0.39900  0.98030  0.98900  Biso   1.000  C
  C180     1.0000 0.42700  0.96170  0.94960  Biso   1.000  C
  C181     1.0000 0.51150  0.96030  0.10520  Biso   1.000  C
  H169     1.0000 0.52510  0.95260  0.14840  Biso   1.000  H
  H170     1.0000 0.52420  0.97320  0.06880  Biso   1.000  H
  C182     1.0000 0.49820  0.93240  0.05720  Biso   1.000  C
  H171     1.0000 0.48430  0.92040  0.09260  Biso   1.000  H
  H172     1.0000 0.51540  0.91870  0.04110  Biso   1.000  H
  C183     1.0000 0.49960  0.94530  0.02900  Biso   1.000  C
  H173     1.0000 0.51740  0.94910  0.99370  Biso   1.000  H
  H174     1.0000 0.50180  0.92340  0.04490  Biso   1.000  H
  C184     1.0000 0.47950  0.94260  0.97870  Biso   1.000  C
  H175     1.0000 0.49280  0.95580  0.94490  Biso   1.000  H
  H176     1.0000 0.47400  0.92410  0.94710  Biso   1.000  H
  La17     1.0000 0.79239  0.73066  0.89410  Biso   1.000  La
  La18     1.0000 0.62507  0.53429  0.79746  Biso   1.000  La
  Cu25     1.0000 0.73901  0.60704  0.79981  Biso   1.000  Cu
  Cu26     1.0000 0.86858  0.82819  0.74097  Biso   1.000  Cu
  Cu27     1.0000 0.73172  0.80607  0.14685  Biso   1.000  Cu
  O145     1.0000 0.77755  0.67434  0.93300  Biso   1.000  O
  O146     1.0000 0.76515  0.69755  0.78330  Biso   1.000  O
  O147     1.0000 0.84424  0.76119  0.89500  Biso   1.000  O
  O148     1.0000 0.80577  0.75955  0.76320  Biso   1.000  O
  O149     1.0000 0.78623  0.78251  0.96430  Biso   1.000  O
  O150     1.0000 0.75285  0.73069  0.01310  Biso   1.000  O
  O151     1.0000 0.68197  0.53834  0.86270  Biso   1.000  O
  O152     1.0000 0.66851  0.55660  0.70810  Biso   1.000  O
  O153     1.0000 0.89559  0.91551  0.77900  Biso   1.000  O
  O154     1.0000 0.86295  0.91257  0.63750  Biso   1.000  O
  O155     1.0000 0.73236  0.87528  0.30610  Biso   1.000  O
  O156     1.0000 0.70060  0.82609  0.37090  Biso   1.000  O
  O157     1.0000 0.75942  0.62765  0.89760  Biso   1.000  O
  O158     1.0000 0.72145  0.57286  0.86870  Biso   1.000  O
  N49      1.0000 0.74654  0.64766  0.74820  Biso   1.000  N
  N50      1.0000 0.70966  0.59263  0.71860  Biso   1.000  N
  C185     1.0000 0.76572  0.65638  0.88150  Biso   1.000  C
  C186     1.0000 0.75900  0.66830  0.79600  Biso   1.000  C
  C187     1.0000 0.69850  0.55860  0.83300  Biso   1.000  C
  C188     1.0000 0.69100  0.57000  0.74500  Biso   1.000  C
  C189     1.0000 0.73810  0.65620  0.66580  Biso   1.000  C
  H177     1.0000 0.71970  0.66970  0.66680  Biso   1.000  H
  H178     1.0000 0.75520  0.66780  0.64060  Biso   1.000  H
  C190     1.0000 0.73110  0.62730  0.61690  Biso   1.000  C
  H179     1.0000 0.75010  0.61470  0.61750  Biso   1.000  H
  H180     1.0000 0.72810  0.63410  0.56080  Biso   1.000  H
  C191     1.0000 0.70430  0.64150  0.64090  Biso   1.000  C
  H181     1.0000 0.69790  0.65000  0.58830  Biso   1.000  H
  H182     1.0000 0.68870  0.64790  0.68110  Biso   1.000  H
  C192     1.0000 0.70510  0.60630  0.63620  Biso   1.000  C
  H183     1.0000 0.68540  0.61780  0.63450  Biso   1.000  H
  H184     1.0000 0.70410  0.58960  0.59590  Biso   1.000  H
  O159     1.0000 0.87067  0.80157  0.83980  Biso   1.000  O
  O160     1.0000 0.88954  0.86366  0.79710  Biso   1.000  O
  N51      1.0000 0.83684  0.79810  0.70490  Biso   1.000  N
  N52      1.0000 0.85854  0.85872  0.65910  Biso   1.000  N
  C193     1.0000 0.84950  0.78080  0.84020  Biso   1.000  C
  C194     1.0000 0.82900  0.77910  0.76180  Biso   1.000  C
  C195     1.0000 0.88560  0.88970  0.75700  Biso   1.000  C
  C196     1.0000 0.86730  0.88800  0.67740  Biso   1.000  C
  C197     1.0000 0.81990  0.79960  0.62900  Biso   1.000  C
  H185     1.0000 0.81700  0.77850  0.60760  Biso   1.000  H
  H186     1.0000 0.79920  0.80850  0.63860  Biso   1.000  H
  C198     1.0000 0.83690  0.81900  0.56760  Biso   1.000  C
  H187     1.0000 0.85810  0.81090  0.56260  Biso   1.000  H
  H188     1.0000 0.82670  0.81630  0.51500  Biso   1.000  H
  C199     1.0000 0.83890  0.85380  0.58530  Biso   1.000  C
  H189     1.0000 0.81790  0.86230  0.59450  Biso   1.000  H
  H190     1.0000 0.84810  0.86470  0.53900  Biso   1.000  H
  O161     1.0000 0.76160  0.81144  0.05750  Biso   1.000  O
  O162     1.0000 0.74190  0.84792  0.19350  Biso   1.000  O
  N53      1.0000 0.72970  0.76327  0.10910  Biso   1.000  N
  N54      1.0000 0.70990  0.79932  0.25060  Biso   1.000  N
  C200     1.0000 0.76690  0.78580  0.02090  Biso   1.000  C
  C201     1.0000 0.74770  0.75680  0.04930  Biso   1.000  C
  C202     1.0000 0.73030  0.85100  0.26100  Biso   1.000  C
  C203     1.0000 0.71170  0.82300  0.30040  Biso   1.000  C
  C204     1.0000 0.71030  0.73850  0.14480  Biso   1.000  C
  H191     1.0000 0.70260  0.72490  0.10160  Biso   1.000  H
  H192     1.0000 0.72320  0.72580  0.18120  Biso   1.000  H
  C205     1.0000 0.68240  0.75180  0.19280  Biso   1.000  C
  H193     1.0000 0.67040  0.76570  0.15740  Biso   1.000  H
  H194     1.0000 0.66870  0.73460  0.20890  Biso   1.000  H
  C206     1.0000 0.69530  0.75040  0.22100  Biso   1.000  C
  H195     1.0000 0.69910  0.73260  0.25630  Biso   1.000  H
  H196     1.0000 0.67340  0.74820  0.20510  Biso   1.000  H
  C207     1.0000 0.69260  0.77050  0.27130  Biso   1.000  C
  H197     1.0000 0.70580  0.75720  0.30510  Biso   1.000  H
  H198     1.0000 0.67410  0.77600  0.30290  Biso   1.000  H
  La19     1.0000 0.29239  0.23066  0.39410  Biso   1.000  La
  La20     1.0000 0.12507  0.03429  0.29746  Biso   1.000  La
  Cu28     1.0000 0.23901  0.10704  0.29981  Biso   1.000  Cu
  Cu29     1.0000 0.36858  0.32819  0.24097  Biso   1.000  Cu
  Cu30     1.0000 0.23172  0.30607  0.64685  Biso   1.000  Cu
  O163     1.0000 0.27755  0.17434  0.43300  Biso   1.000  O
  O164     1.0000 0.26515  0.19755  0.28330  Biso   1.000  O
  O165     1.0000 0.34424  0.26119  0.39500  Biso   1.000  O
  O166     1.0000 0.30577  0.25955  0.26320  Biso   1.000  O
  O167     1.0000 0.28623  0.28251  0.46430  Biso   1.000  O
  O168     1.0000 0.25285  0.23069  0.51310  Biso   1.000  O
  O169     1.0000 0.18197  0.03834  0.36270  Biso   1.000  O
  O170     1.0000 0.16851  0.05660  0.20810  Biso   1.000  O
  O171     1.0000 0.39559  0.41551  0.27900  Biso   1.000  O
  O172     1.0000 0.36295  0.41257  0.13750  Biso   1.000  O
  O173     1.0000 0.23236  0.37528  0.80610  Biso   1.000  O
  O174     1.0000 0.20060  0.32609  0.87090  Biso   1.000  O
  O175     1.0000 0.25942  0.12765  0.39760  Biso   1.000  O
  O176     1.0000 0.22145  0.07286  0.36870  Biso   1.000  O
  N55      1.0000 0.24654  0.14766  0.24820  Biso   1.000  N
  N56      1.0000 0.20966  0.09263  0.21860  Biso   1.000  N
  C208     1.0000 0.26572  0.15638  0.38150  Biso   1.000  C
  C209     1.0000 0.25900  0.16830  0.29600  Biso   1.000  C
  C210     1.0000 0.19850  0.05860  0.33300  Biso   1.000  C
  C211     1.0000 0.19100  0.07000  0.24500  Biso   1.000  C
  C212     1.0000 0.23810  0.15620  0.16580  Biso   1.000  C
  H199     1.0000 0.21970  0.16970  0.16680  Biso   1.000  H
  H200     1.0000 0.25520  0.16780  0.14060  Biso   1.000  H
  C213     1.0000 0.23110  0.12730  0.11690  Biso   1.000  C
  H201     1.0000 0.25010  0.11470  0.11750  Biso   1.000  H
  H202     1.0000 0.22810  0.13410  0.06080  Biso   1.000  H
  C214     1.0000 0.20430  0.14150  0.14090  Biso   1.000  C
  H203     1.0000 0.19790  0.15000  0.08830  Biso   1.000  H
  H204     1.0000 0.18870  0.14790  0.18110  Biso   1.000  H
  C215     1.0000 0.20510  0.10630  0.13620  Biso   1.000  C
  H205     1.0000 0.18540  0.11780  0.13450  Biso   1.000  H
  H206     1.0000 0.20410  0.08960  0.09590  Biso   1.000  H
  O177     1.0000 0.37067  0.30157  0.33980  Biso   1.000  O
  O178     1.0000 0.38954  0.36366  0.29710  Biso   1.000  O
  N57      1.0000 0.33684  0.29810  0.20490  Biso   1.000  N
  N58      1.0000 0.35854  0.35872  0.15910  Biso   1.000  N
  C216     1.0000 0.34950  0.28080  0.34020  Biso   1.000  C
  C217     1.0000 0.32900  0.27910  0.26180  Biso   1.000  C
  C218     1.0000 0.38560  0.38970  0.25700  Biso   1.000  C
  C219     1.0000 0.36730  0.38800  0.17740  Biso   1.000  C
  C220     1.0000 0.31990  0.29960  0.12900  Biso   1.000  C
  H207     1.0000 0.31700  0.27850  0.10760  Biso   1.000  H
  H208     1.0000 0.29920  0.30850  0.13860  Biso   1.000  H
  C221     1.0000 0.33690  0.31900  0.06760  Biso   1.000  C
  H209     1.0000 0.35810  0.31090  0.06260  Biso   1.000  H
  H210     1.0000 0.32670  0.31630  0.01500  Biso   1.000  H
  C222     1.0000 0.33890  0.35380  0.08530  Biso   1.000  C
  H211     1.0000 0.31790  0.36230  0.09450  Biso   1.000  H
  H212     1.0000 0.34810  0.36470  0.03900  Biso   1.000  H
  O179     1.0000 0.26160  0.31144  0.55750  Biso   1.000  O
  O180     1.0000 0.24190  0.34792  0.69350  Biso   1.000  O
  N59      1.0000 0.22970  0.26327  0.60910  Biso   1.000  N
  N60      1.0000 0.20990  0.29932  0.75060  Biso   1.000  N
  C223     1.0000 0.26690  0.28580  0.52090  Biso   1.000  C
  C224     1.0000 0.24770  0.25680  0.54930  Biso   1.000  C
  C225     1.0000 0.23030  0.35100  0.76100  Biso   1.000  C
  C226     1.0000 0.21170  0.32300  0.80040  Biso   1.000  C
  C227     1.0000 0.21030  0.23850  0.64480  Biso   1.000  C
  H213     1.0000 0.20260  0.22490  0.60160  Biso   1.000  H
  H214     1.0000 0.22320  0.22580  0.68120  Biso   1.000  H
  C228     1.0000 0.18240  0.25180  0.69280  Biso   1.000  C
  H215     1.0000 0.17040  0.26570  0.65740  Biso   1.000  H
  H216     1.0000 0.16870  0.23460  0.70890  Biso   1.000  H
  C229     1.0000 0.19530  0.25040  0.72100  Biso   1.000  C
  H217     1.0000 0.19910  0.23260  0.75630  Biso   1.000  H
  H218     1.0000 0.17340  0.24820  0.70510  Biso   1.000  H
  C230     1.0000 0.19260  0.27050  0.77130  Biso   1.000  C
  H219     1.0000 0.20580  0.25720  0.80510  Biso   1.000  H
  H220     1.0000 0.17410  0.27600  0.80290  Biso   1.000  H
  La21     1.0000 0.70761  0.26934  0.39410  Biso   1.000  La
  La22     1.0000 0.87493  0.46571  0.29746  Biso   1.000  La
  Cu31     1.0000 0.76099  0.39296  0.29981  Biso   1.000  Cu
  Cu32     1.0000 0.63142  0.17181  0.24097  Biso   1.000  Cu
  Cu33     1.0000 0.76828  0.19393  0.64685  Biso   1.000  Cu
  O181     1.0000 0.72245  0.32566  0.43300  Biso   1.000  O
  O182     1.0000 0.73485  0.30245  0.28330  Biso   1.000  O
  O183     1.0000 0.65576  0.23881  0.39500  Biso   1.000  O
  O184     1.0000 0.69423  0.24045  0.26320  Biso   1.000  O
  O185     1.0000 0.71377  0.21749  0.46430  Biso   1.000  O
  O186     1.0000 0.74715  0.26931  0.51310  Biso   1.000  O
  O187     1.0000 0.81803  0.46166  0.36270  Biso   1.000  O
  O188     1.0000 0.83149  0.44340  0.20810  Biso   1.000  O
  O189     1.0000 0.60441  0.08449  0.27900  Biso   1.000  O
  O190     1.0000 0.63705  0.08743  0.13750  Biso   1.000  O
  O191     1.0000 0.76764  0.12472  0.80610  Biso   1.000  O
  O192     1.0000 0.79940  0.17391  0.87090  Biso   1.000  O
  O193     1.0000 0.74058  0.37235  0.39760  Biso   1.000  O
  O194     1.0000 0.77855  0.42714  0.36870  Biso   1.000  O
  N61      1.0000 0.75346  0.35234  0.24820  Biso   1.000  N
  N62      1.0000 0.79034  0.40737  0.21860  Biso   1.000  N
  C231     1.0000 0.73428  0.34362  0.38150  Biso   1.000  C
  C232     1.0000 0.74100  0.33170  0.29600  Biso   1.000  C
  C233     1.0000 0.80150  0.44140  0.33300  Biso   1.000  C
  C234     1.0000 0.80900  0.43000  0.24500  Biso   1.000  C
  C235     1.0000 0.76190  0.34380  0.16580  Biso   1.000  C
  H221     1.0000 0.78030  0.33030  0.16680  Biso   1.000  H
  H222     1.0000 0.74480  0.33220  0.14060  Biso   1.000  H
  C236     1.0000 0.76890  0.37270  0.11690  Biso   1.000  C
  H223     1.0000 0.74990  0.38530  0.11750  Biso   1.000  H
  H224     1.0000 0.77190  0.36590  0.06080  Biso   1.000  H
  C237     1.0000 0.79570  0.35850  0.14090  Biso   1.000  C
  H225     1.0000 0.80210  0.35000  0.08830  Biso   1.000  H
  H226     1.0000 0.81130  0.35210  0.18110  Biso   1.000  H
  C238     1.0000 0.79490  0.39370  0.13620  Biso   1.000  C
  H227     1.0000 0.81460  0.38220  0.13450  Biso   1.000  H
  H228     1.0000 0.79590  0.41040  0.09590  Biso   1.000  H
  O195     1.0000 0.62933  0.19843  0.33980  Biso   1.000  O
  O196     1.0000 0.61046  0.13634  0.29710  Biso   1.000  O
  N63      1.0000 0.66316  0.20190  0.20490  Biso   1.000  N
  N64      1.0000 0.64146  0.14128  0.15910  Biso   1.000  N
  C239     1.0000 0.65050  0.21920  0.34020  Biso   1.000  C
  C240     1.0000 0.67100  0.22090  0.26180  Biso   1.000  C
  C241     1.0000 0.61440  0.11030  0.25700  Biso   1.000  C
  C242     1.0000 0.63270  0.11200  0.17740  Biso   1.000  C
  C243     1.0000 0.68010  0.20040  0.12900  Biso   1.000  C
  H229     1.0000 0.68300  0.22150  0.10760  Biso   1.000  H
  H230     1.0000 0.70080  0.19150  0.13860  Biso   1.000  H
  C244     1.0000 0.66310  0.18100  0.06760  Biso   1.000  C
  H231     1.0000 0.64190  0.18910  0.06260  Biso   1.000  H
  H232     1.0000 0.67330  0.18370  0.01500  Biso   1.000  H
  C245     1.0000 0.66110  0.14620  0.08530  Biso   1.000  C
  H233     1.0000 0.68210  0.13770  0.09450  Biso   1.000  H
  H234     1.0000 0.65190  0.13530  0.03900  Biso   1.000  H
  O197     1.0000 0.73840  0.18856  0.55750  Biso   1.000  O
  O198     1.0000 0.75810  0.15208  0.69350  Biso   1.000  O
  N65      1.0000 0.77030  0.23673  0.60910  Biso   1.000  N
  N66      1.0000 0.79010  0.20068  0.75060  Biso   1.000  N
  C246     1.0000 0.73310  0.21420  0.52090  Biso   1.000  C
  C247     1.0000 0.75230  0.24320  0.54930  Biso   1.000  C
  C248     1.0000 0.76970  0.14900  0.76100  Biso   1.000  C
  C249     1.0000 0.78830  0.17700  0.80040  Biso   1.000  C
  C250     1.0000 0.78970  0.26150  0.64480  Biso   1.000  C
  H235     1.0000 0.79740  0.27510  0.60160  Biso   1.000  H
  H236     1.0000 0.77680  0.27420  0.68120  Biso   1.000  H
  C251     1.0000 0.81760  0.24820  0.69280  Biso   1.000  C
  H237     1.0000 0.82960  0.23430  0.65740  Biso   1.000  H
  H238     1.0000 0.83130  0.26540  0.70890  Biso   1.000  H
  C252     1.0000 0.80470  0.24960  0.72100  Biso   1.000  C
  H239     1.0000 0.80090  0.26740  0.75630  Biso   1.000  H
  H240     1.0000 0.82660  0.25180  0.70510  Biso   1.000  H
  C253     1.0000 0.80740  0.22950  0.77130  Biso   1.000  C
  H241     1.0000 0.79420  0.24280  0.80510  Biso   1.000  H
  H242     1.0000 0.82590  0.22400  0.80290  Biso   1.000  H
  La23     1.0000 0.20761  0.76934  0.89410  Biso   1.000  La
  La24     1.0000 0.37493  0.96571  0.79746  Biso   1.000  La
  Cu34     1.0000 0.26099  0.89296  0.79981  Biso   1.000  Cu
  Cu35     1.0000 0.13142  0.67181  0.74097  Biso   1.000  Cu
  Cu36     1.0000 0.26828  0.69393  0.14685  Biso   1.000  Cu
  O199     1.0000 0.22245  0.82566  0.93300  Biso   1.000  O
  O200     1.0000 0.23485  0.80245  0.78330  Biso   1.000  O
  O201     1.0000 0.15576  0.73881  0.89500  Biso   1.000  O
  O202     1.0000 0.19423  0.74045  0.76320  Biso   1.000  O
  O203     1.0000 0.21377  0.71749  0.96430  Biso   1.000  O
  O204     1.0000 0.24715  0.76931  0.01310  Biso   1.000  O
  O205     1.0000 0.31803  0.96166  0.86270  Biso   1.000  O
  O206     1.0000 0.33149  0.94340  0.70810  Biso   1.000  O
  O207     1.0000 0.10441  0.58449  0.77900  Biso   1.000  O
  O208     1.0000 0.13705  0.58743  0.63750  Biso   1.000  O
  O209     1.0000 0.26764  0.62472  0.30610  Biso   1.000  O
  O210     1.0000 0.29940  0.67391  0.37090  Biso   1.000  O
  O211     1.0000 0.24058  0.87235  0.89760  Biso   1.000  O
  O212     1.0000 0.27855  0.92714  0.86870  Biso   1.000  O
  N67      1.0000 0.25346  0.85234  0.74820  Biso   1.000  N
  N68      1.0000 0.29034  0.90737  0.71860  Biso   1.000  N
  C254     1.0000 0.23428  0.84362  0.88150  Biso   1.000  C
  C255     1.0000 0.24100  0.83170  0.79600  Biso   1.000  C
  C256     1.0000 0.30150  0.94140  0.83300  Biso   1.000  C
  C257     1.0000 0.30900  0.93000  0.74500  Biso   1.000  C
  C258     1.0000 0.26190  0.84380  0.66580  Biso   1.000  C
  H243     1.0000 0.28030  0.83030  0.66680  Biso   1.000  H
  H244     1.0000 0.24480  0.83220  0.64060  Biso   1.000  H
  C259     1.0000 0.26890  0.87270  0.61690  Biso   1.000  C
  H245     1.0000 0.24990  0.88530  0.61750  Biso   1.000  H
  H246     1.0000 0.27190  0.86590  0.56080  Biso   1.000  H
  C260     1.0000 0.29570  0.85850  0.64090  Biso   1.000  C
  H247     1.0000 0.30210  0.85000  0.58830  Biso   1.000  H
  H248     1.0000 0.31130  0.85210  0.68110  Biso   1.000  H
  C261     1.0000 0.29490  0.89370  0.63620  Biso   1.000  C
  H249     1.0000 0.31460  0.88220  0.63450  Biso   1.000  H
  H250     1.0000 0.29590  0.91040  0.59590  Biso   1.000  H
  O213     1.0000 0.12933  0.69843  0.83980  Biso   1.000  O
  O214     1.0000 0.11046  0.63634  0.79710  Biso   1.000  O
  N69      1.0000 0.16316  0.70190  0.70490  Biso   1.000  N
  N70      1.0000 0.14146  0.64128  0.65910  Biso   1.000  N
  C262     1.0000 0.15050  0.71920  0.84020  Biso   1.000  C
  C263     1.0000 0.17100  0.72090  0.76180  Biso   1.000  C
  C264     1.0000 0.11440  0.61030  0.75700  Biso   1.000  C
  C265     1.0000 0.13270  0.61200  0.67740  Biso   1.000  C
  C266     1.0000 0.18010  0.70040  0.62900  Biso   1.000  C
  H251     1.0000 0.18300  0.72150  0.60760  Biso   1.000  H
  H252     1.0000 0.20080  0.69150  0.63860  Biso   1.000  H
  C267     1.0000 0.16310  0.68100  0.56760  Biso   1.000  C
  H253     1.0000 0.14190  0.68910  0.56260  Biso   1.000  H
  H254     1.0000 0.17330  0.68370  0.51500  Biso   1.000  H
  C268     1.0000 0.16110  0.64620  0.58530  Biso   1.000  C
  H255     1.0000 0.18210  0.63770  0.59450  Biso   1.000  H
  H256     1.0000 0.15190  0.63530  0.53900  Biso   1.000  H
  O215     1.0000 0.23840  0.68856  0.05750  Biso   1.000  O
  O216     1.0000 0.25810  0.65208  0.19350  Biso   1.000  O
  N71      1.0000 0.27030  0.73673  0.10910  Biso   1.000  N
  N72      1.0000 0.29010  0.70068  0.25060  Biso   1.000  N
  C269     1.0000 0.23310  0.71420  0.02090  Biso   1.000  C
  C270     1.0000 0.25230  0.74320  0.04930  Biso   1.000  C
  C271     1.0000 0.26970  0.64900  0.26100  Biso   1.000  C
  C272     1.0000 0.28830  0.67700  0.30040  Biso   1.000  C
  C273     1.0000 0.28970  0.76150  0.14480  Biso   1.000  C
  H257     1.0000 0.29740  0.77510  0.10160  Biso   1.000  H
  H258     1.0000 0.27680  0.77420  0.18120  Biso   1.000  H
  C274     1.0000 0.31760  0.74820  0.19280  Biso   1.000  C
  H259     1.0000 0.32960  0.73430  0.15740  Biso   1.000  H
  H260     1.0000 0.33130  0.76540  0.20890  Biso   1.000  H
  C275     1.0000 0.30470  0.74960  0.22100  Biso   1.000  C
  H261     1.0000 0.30090  0.76740  0.25630  Biso   1.000  H
  H262     1.0000 0.32660  0.75180  0.20510  Biso   1.000  H
  C276     1.0000 0.30740  0.72950  0.27130  Biso   1.000  C
  H263     1.0000 0.29420  0.74280  0.30510  Biso   1.000  H
  H264     1.0000 0.32590  0.72400  0.30290  Biso   1.000  H
  La25     1.0000 0.51934  0.54239  0.64410  Biso   1.000  La
  La26     1.0000 0.71571  0.37507  0.54746  Biso   1.000  La
  Cu37     1.0000 0.64296  0.48901  0.54981  Biso   1.000  Cu
  Cu38     1.0000 0.42181  0.61858  0.49097  Biso   1.000  Cu
  Cu39     1.0000 0.44393  0.48172  0.89685  Biso   1.000  Cu
  O217     1.0000 0.57566  0.52755  0.68300  Biso   1.000  O
  O218     1.0000 0.55245  0.51515  0.53330  Biso   1.000  O
  O219     1.0000 0.48881  0.59424  0.64500  Biso   1.000  O
  O220     1.0000 0.49045  0.55577  0.51320  Biso   1.000  O
  O221     1.0000 0.46749  0.53623  0.71430  Biso   1.000  O
  O222     1.0000 0.51931  0.50285  0.76310  Biso   1.000  O
  O223     1.0000 0.71166  0.43197  0.61270  Biso   1.000  O
  O224     1.0000 0.69340  0.41851  0.45810  Biso   1.000  O
  O225     1.0000 0.33449  0.64559  0.52900  Biso   1.000  O
  O226     1.0000 0.33743  0.61295  0.38750  Biso   1.000  O
  O227     1.0000 0.37472  0.48236  0.05610  Biso   1.000  O
  O228     1.0000 0.42391  0.45060  0.12090  Biso   1.000  O
  O229     1.0000 0.62235  0.50942  0.64760  Biso   1.000  O
  O230     1.0000 0.67714  0.47145  0.61870  Biso   1.000  O
  N73      1.0000 0.60234  0.49654  0.49820  Biso   1.000  N
  N74      1.0000 0.65737  0.45966  0.46860  Biso   1.000  N
  C277     1.0000 0.59362  0.51572  0.63150  Biso   1.000  C
  C278     1.0000 0.58170  0.50900  0.54600  Biso   1.000  C
  C279     1.0000 0.69140  0.44850  0.58300  Biso   1.000  C
  C280     1.0000 0.68000  0.44100  0.49500  Biso   1.000  C
  C281     1.0000 0.59380  0.48810  0.41580  Biso   1.000  C
  H265     1.0000 0.58030  0.46970  0.41680  Biso   1.000  H
  H266     1.0000 0.58220  0.50520  0.39060  Biso   1.000  H
  C282     1.0000 0.62270  0.48110  0.36690  Biso   1.000  C
  H267     1.0000 0.63530  0.50010  0.36750  Biso   1.000  H
  H268     1.0000 0.61590  0.47810  0.31080  Biso   1.000  H
  C283     1.0000 0.60850  0.45430  0.39090  Biso   1.000  C
  H269     1.0000 0.60000  0.44790  0.33830  Biso   1.000  H
  H270     1.0000 0.60210  0.43870  0.43110  Biso   1.000  H
  C284     1.0000 0.64370  0.45510  0.38620  Biso   1.000  C
  H271     1.0000 0.63220  0.43540  0.38450  Biso   1.000  H
  H272     1.0000 0.66040  0.45410  0.34590  Biso   1.000  H
  O231     1.0000 0.44843  0.62067  0.58980  Biso   1.000  O
  O232     1.0000 0.38634  0.63954  0.54710  Biso   1.000  O
  N75      1.0000 0.45190  0.58684  0.45490  Biso   1.000  N
  N76      1.0000 0.39128  0.60854  0.40910  Biso   1.000  N
  C285     1.0000 0.46920  0.59950  0.59020  Biso   1.000  C
  C286     1.0000 0.47090  0.57900  0.51180  Biso   1.000  C
  C287     1.0000 0.36030  0.63560  0.50700  Biso   1.000  C
  C288     1.0000 0.36200  0.61730  0.42740  Biso   1.000  C
  C289     1.0000 0.45040  0.56990  0.37900  Biso   1.000  C
  H273     1.0000 0.47150  0.56700  0.35760  Biso   1.000  H
  H274     1.0000 0.44150  0.54920  0.38860  Biso   1.000  H
  C290     1.0000 0.43100  0.58690  0.31760  Biso   1.000  C
  H275     1.0000 0.43910  0.60810  0.31260  Biso   1.000  H
  H276     1.0000 0.43370  0.57670  0.26500  Biso   1.000  H
  C291     1.0000 0.39620  0.58890  0.33530  Biso   1.000  C
  H277     1.0000 0.38770  0.56790  0.34450  Biso   1.000  H
  H278     1.0000 0.38530  0.59810  0.28900  Biso   1.000  H
  O233     1.0000 0.43856  0.51160  0.80750  Biso   1.000  O
  O234     1.0000 0.40208  0.49190  0.94350  Biso   1.000  O
  N77      1.0000 0.48673  0.47970  0.85910  Biso   1.000  N
  N78      1.0000 0.45068  0.45990  0.00060  Biso   1.000  N
  C292     1.0000 0.46420  0.51690  0.77090  Biso   1.000  C
  C293     1.0000 0.49320  0.49770  0.79930  Biso   1.000  C
  C294     1.0000 0.39900  0.48030  0.01100  Biso   1.000  C
  C295     1.0000 0.42700  0.46170  0.05040  Biso   1.000  C
  C296     1.0000 0.51150  0.46030  0.89480  Biso   1.000  C
  H279     1.0000 0.52510  0.45260  0.85160  Biso   1.000  H
  H280     1.0000 0.52420  0.47320  0.93120  Biso   1.000  H
  C297     1.0000 0.49820  0.43240  0.94280  Biso   1.000  C
  H281     1.0000 0.48430  0.42040  0.90740  Biso   1.000  H
  H282     1.0000 0.51540  0.41870  0.95890  Biso   1.000  H
  C298     1.0000 0.49960  0.44530  0.97100  Biso   1.000  C
  H283     1.0000 0.51740  0.44910  0.00630  Biso   1.000  H
  H284     1.0000 0.50180  0.42340  0.95510  Biso   1.000  H
  C299     1.0000 0.47950  0.44260  0.02130  Biso   1.000  C
  H285     1.0000 0.49280  0.45580  0.05510  Biso   1.000  H
  H286     1.0000 0.47400  0.42410  0.05290  Biso   1.000  H
  La27     1.0000 0.01934  0.04239  0.14410  Biso   1.000  La
  La28     1.0000 0.21571  0.87507  0.04746  Biso   1.000  La
  Cu40     1.0000 0.14296  0.98901  0.04981  Biso   1.000  Cu
  Cu41     1.0000 0.92181  0.11858  0.99097  Biso   1.000  Cu
  Cu42     1.0000 0.94393  0.98172  0.39685  Biso   1.000  Cu
  O235     1.0000 0.07566  0.02755  0.18300  Biso   1.000  O
  O236     1.0000 0.05245  0.01515  0.03330  Biso   1.000  O
  O237     1.0000 0.98881  0.09424  0.14500  Biso   1.000  O
  O238     1.0000 0.99045  0.05577  0.01320  Biso   1.000  O
  O239     1.0000 0.96749  0.03623  0.21430  Biso   1.000  O
  O240     1.0000 0.01931  0.00285  0.26310  Biso   1.000  O
  O241     1.0000 0.21166  0.93197  0.11270  Biso   1.000  O
  O242     1.0000 0.19340  0.91851  0.95810  Biso   1.000  O
  O243     1.0000 0.83449  0.14559  0.02900  Biso   1.000  O
  O244     1.0000 0.83743  0.11295  0.88750  Biso   1.000  O
  O245     1.0000 0.87472  0.98236  0.55610  Biso   1.000  O
  O246     1.0000 0.92391  0.95060  0.62090  Biso   1.000  O
  O247     1.0000 0.12235  0.00942  0.14760  Biso   1.000  O
  O248     1.0000 0.17714  0.97145  0.11870  Biso   1.000  O
  N79      1.0000 0.10234  0.99654  0.99820  Biso   1.000  N
  N80      1.0000 0.15737  0.95966  0.96860  Biso   1.000  N
  C300     1.0000 0.09362  0.01572  0.13150  Biso   1.000  C
  C301     1.0000 0.08170  0.00900  0.04600  Biso   1.000  C
  C302     1.0000 0.19140  0.94850  0.08300  Biso   1.000  C
  C303     1.0000 0.18000  0.94100  0.99500  Biso   1.000  C
  C304     1.0000 0.09380  0.98810  0.91580  Biso   1.000  C
  H287     1.0000 0.08030  0.96970  0.91680  Biso   1.000  H
  H288     1.0000 0.08220  0.00520  0.89060  Biso   1.000  H
  C305     1.0000 0.12270  0.98110  0.86690  Biso   1.000  C
  H289     1.0000 0.13530  0.00010  0.86750  Biso   1.000  H
  H290     1.0000 0.11590  0.97810  0.81080  Biso   1.000  H
  C306     1.0000 0.10850  0.95430  0.89090  Biso   1.000  C
  H291     1.0000 0.10000  0.94790  0.83830  Biso   1.000  H
  H292     1.0000 0.10210  0.93870  0.93110  Biso   1.000  H
  C307     1.0000 0.14370  0.95510  0.88620  Biso   1.000  C
  H293     1.0000 0.13220  0.93540  0.88450  Biso   1.000  H
  H294     1.0000 0.16040  0.95410  0.84590  Biso   1.000  H
  O249     1.0000 0.94843  0.12067  0.08980  Biso   1.000  O
  O250     1.0000 0.88634  0.13954  0.04710  Biso   1.000  O
  N81      1.0000 0.95190  0.08684  0.95490  Biso   1.000  N
  N82      1.0000 0.89128  0.10854  0.90910  Biso   1.000  N
  C308     1.0000 0.96920  0.09950  0.09020  Biso   1.000  C
  C309     1.0000 0.97090  0.07900  0.01180  Biso   1.000  C
  C310     1.0000 0.86030  0.13560  0.00700  Biso   1.000  C
  C311     1.0000 0.86200  0.11730  0.92740  Biso   1.000  C
  C312     1.0000 0.95040  0.06990  0.87900  Biso   1.000  C
  H295     1.0000 0.97150  0.06700  0.85760  Biso   1.000  H
  H296     1.0000 0.94150  0.04920  0.88860  Biso   1.000  H
  C313     1.0000 0.93100  0.08690  0.81760  Biso   1.000  C
  H297     1.0000 0.93910  0.10810  0.81260  Biso   1.000  H
  H298     1.0000 0.93370  0.07670  0.76500  Biso   1.000  H
  C314     1.0000 0.89620  0.08890  0.83530  Biso   1.000  C
  H299     1.0000 0.88770  0.06790  0.84450  Biso   1.000  H
  H300     1.0000 0.88530  0.09810  0.78900  Biso   1.000  H
  O251     1.0000 0.93856  0.01160  0.30750  Biso   1.000  O
  O252     1.0000 0.90208  0.99190  0.44350  Biso   1.000  O
  N83      1.0000 0.98673  0.97970  0.35910  Biso   1.000  N
  N84      1.0000 0.95068  0.95990  0.50060  Biso   1.000  N
  C315     1.0000 0.96420  0.01690  0.27090  Biso   1.000  C
  C316     1.0000 0.99320  0.99770  0.29930  Biso   1.000  C
  C317     1.0000 0.89900  0.98030  0.51100  Biso   1.000  C
  C318     1.0000 0.92700  0.96170  0.55040  Biso   1.000  C
  C319     1.0000 0.01150  0.96030  0.39480  Biso   1.000  C
  H301     1.0000 0.02510  0.95260  0.35160  Biso   1.000  H
  H302     1.0000 0.02420  0.97320  0.43120  Biso   1.000  H
  C320     1.0000 0.99820  0.93240  0.44280  Biso   1.000  C
  H303     1.0000 0.98430  0.92040  0.40740  Biso   1.000  H
  H304     1.0000 0.01540  0.91870  0.45890  Biso   1.000  H
  C321     1.0000 0.99960  0.94530  0.47100  Biso   1.000  C
  H305     1.0000 0.01740  0.94910  0.50630  Biso   1.000  H
  H306     1.0000 0.00180  0.92340  0.45510  Biso   1.000  H
  C322     1.0000 0.97950  0.94260  0.52130  Biso   1.000  C
  H307     1.0000 0.99280  0.95580  0.55510  Biso   1.000  H
  H308     1.0000 0.97400  0.92410  0.55290  Biso   1.000  H
  La29     1.0000 0.98066  0.45761  0.14410  Biso   1.000  La
  La30     1.0000 0.78429  0.62493  0.04746  Biso   1.000  La
  Cu43     1.0000 0.85704  0.51099  0.04981  Biso   1.000  Cu
  Cu44     1.0000 0.07819  0.38142  0.99097  Biso   1.000  Cu
  Cu45     1.0000 0.05607  0.51828  0.39685  Biso   1.000  Cu
  O253     1.0000 0.92434  0.47245  0.18300  Biso   1.000  O
  O254     1.0000 0.94755  0.48485  0.03330  Biso   1.000  O
  O255     1.0000 0.01119  0.40576  0.14500  Biso   1.000  O
  O256     1.0000 0.00955  0.44423  0.01320  Biso   1.000  O
  O257     1.0000 0.03251  0.46377  0.21430  Biso   1.000  O
  O258     1.0000 0.98069  0.49715  0.26310  Biso   1.000  O
  O259     1.0000 0.78834  0.56803  0.11270  Biso   1.000  O
  O260     1.0000 0.80660  0.58149  0.95810  Biso   1.000  O
  O261     1.0000 0.16551  0.35441  0.02900  Biso   1.000  O
  O262     1.0000 0.16257  0.38705  0.88750  Biso   1.000  O
  O263     1.0000 0.12528  0.51764  0.55610  Biso   1.000  O
  O264     1.0000 0.07609  0.54940  0.62090  Biso   1.000  O
  O265     1.0000 0.87765  0.49058  0.14760  Biso   1.000  O
  O266     1.0000 0.82286  0.52855  0.11870  Biso   1.000  O
  N85      1.0000 0.89766  0.50346  0.99820  Biso   1.000  N
  N86      1.0000 0.84263  0.54034  0.96860  Biso   1.000  N
  C323     1.0000 0.90638  0.48428  0.13150  Biso   1.000  C
  C324     1.0000 0.91830  0.49100  0.04600  Biso   1.000  C
  C325     1.0000 0.80860  0.55150  0.08300  Biso   1.000  C
  C326     1.0000 0.82000  0.55900  0.99500  Biso   1.000  C
  C327     1.0000 0.90620  0.51190  0.91580  Biso   1.000  C
  H309     1.0000 0.91970  0.53030  0.91680  Biso   1.000  H
  H310     1.0000 0.91780  0.49480  0.89060  Biso   1.000  H
  C328     1.0000 0.87730  0.51890  0.86690  Biso   1.000  C
  H311     1.0000 0.86470  0.49990  0.86750  Biso   1.000  H
  H312     1.0000 0.88410  0.52190  0.81080  Biso   1.000  H
  C329     1.0000 0.89150  0.54570  0.89090  Biso   1.000  C
  H313     1.0000 0.90000  0.55210  0.83830  Biso   1.000  H
  H314     1.0000 0.89790  0.56130  0.93110  Biso   1.000  H
  C330     1.0000 0.85630  0.54490  0.88620  Biso   1.000  C
  H315     1.0000 0.86780  0.56460  0.88450  Biso   1.000  H
  H316     1.0000 0.83960  0.54590  0.84590  Biso   1.000  H
  O267     1.0000 0.05157  0.37933  0.08980  Biso   1.000  O
  O268     1.0000 0.11366  0.36046  0.04710  Biso   1.000  O
  N87      1.0000 0.04810  0.41316  0.95490  Biso   1.000  N
  N88      1.0000 0.10872  0.39146  0.90910  Biso   1.000  N
  C331     1.0000 0.03080  0.40050  0.09020  Biso   1.000  C
  C332     1.0000 0.02910  0.42100  0.01180  Biso   1.000  C
  C333     1.0000 0.13970  0.36440  0.00700  Biso   1.000  C
  C334     1.0000 0.13800  0.38270  0.92740  Biso   1.000  C
  C335     1.0000 0.04960  0.43010  0.87900  Biso   1.000  C
  H317     1.0000 0.02850  0.43300  0.85760  Biso   1.000  H
  H318     1.0000 0.05850  0.45080  0.88860  Biso   1.000  H
  C336     1.0000 0.06900  0.41310  0.81760  Biso   1.000  C
  H319     1.0000 0.06090  0.39190  0.81260  Biso   1.000  H
  H320     1.0000 0.06630  0.42330  0.76500  Biso   1.000  H
  C337     1.0000 0.10380  0.41110  0.83530  Biso   1.000  C
  H321     1.0000 0.11230  0.43210  0.84450  Biso   1.000  H
  H322     1.0000 0.11470  0.40190  0.78900  Biso   1.000  H
  O269     1.0000 0.06144  0.48840  0.30750  Biso   1.000  O
  O270     1.0000 0.09792  0.50810  0.44350  Biso   1.000  O
  N89      1.0000 0.01327  0.52030  0.35910  Biso   1.000  N
  N90      1.0000 0.04932  0.54010  0.50060  Biso   1.000  N
  C338     1.0000 0.03580  0.48310  0.27090  Biso   1.000  C
  C339     1.0000 0.00680  0.50230  0.29930  Biso   1.000  C
  C340     1.0000 0.10100  0.51970  0.51100  Biso   1.000  C
  C341     1.0000 0.07300  0.53830  0.55040  Biso   1.000  C
  C342     1.0000 0.98850  0.53970  0.39480  Biso   1.000  C
  H323     1.0000 0.97490  0.54740  0.35160  Biso   1.000  H
  H324     1.0000 0.97580  0.52680  0.43120  Biso   1.000  H
  C343     1.0000 0.00180  0.56760  0.44280  Biso   1.000  C
  H325     1.0000 0.01570  0.57960  0.40740  Biso   1.000  H
  H326     1.0000 0.98460  0.58130  0.45890  Biso   1.000  H
  C344     1.0000 0.00040  0.55470  0.47100  Biso   1.000  C
  H327     1.0000 0.98260  0.55090  0.50630  Biso   1.000  H
  H328     1.0000 0.99820  0.57660  0.45510  Biso   1.000  H
  C345     1.0000 0.02050  0.55740  0.52130  Biso   1.000  C
  H329     1.0000 0.00720  0.54420  0.55510  Biso   1.000  H
  H330     1.0000 0.02600  0.57590  0.55290  Biso   1.000  H
  La31     1.0000 0.48066  0.95761  0.64410  Biso   1.000  La
  La32     1.0000 0.28429  0.12493  0.54746  Biso   1.000  La
  Cu46     1.0000 0.35704  0.01099  0.54981  Biso   1.000  Cu
  Cu47     1.0000 0.57819  0.88142  0.49097  Biso   1.000  Cu
  Cu48     1.0000 0.55607  0.01828  0.89685  Biso   1.000  Cu
  O271     1.0000 0.42434  0.97245  0.68300  Biso   1.000  O
  O272     1.0000 0.44755  0.98485  0.53330  Biso   1.000  O
  O273     1.0000 0.51119  0.90576  0.64500  Biso   1.000  O
  O274     1.0000 0.50955  0.94423  0.51320  Biso   1.000  O
  O275     1.0000 0.53251  0.96377  0.71430  Biso   1.000  O
  O276     1.0000 0.48069  0.99715  0.76310  Biso   1.000  O
  O277     1.0000 0.28834  0.06803  0.61270  Biso   1.000  O
  O278     1.0000 0.30660  0.08149  0.45810  Biso   1.000  O
  O279     1.0000 0.66551  0.85441  0.52900  Biso   1.000  O
  O280     1.0000 0.66257  0.88705  0.38750  Biso   1.000  O
  O281     1.0000 0.62528  0.01764  0.05610  Biso   1.000  O
  O282     1.0000 0.57609  0.04940  0.12090  Biso   1.000  O
  O283     1.0000 0.37765  0.99058  0.64760  Biso   1.000  O
  O284     1.0000 0.32286  0.02855  0.61870  Biso   1.000  O
  N91      1.0000 0.39766  0.00346  0.49820  Biso   1.000  N
  N92      1.0000 0.34263  0.04034  0.46860  Biso   1.000  N
  C346     1.0000 0.40638  0.98428  0.63150  Biso   1.000  C
  C347     1.0000 0.41830  0.99100  0.54600  Biso   1.000  C
  C348     1.0000 0.30860  0.05150  0.58300  Biso   1.000  C
  C349     1.0000 0.32000  0.05900  0.49500  Biso   1.000  C
  C350     1.0000 0.40620  0.01190  0.41580  Biso   1.000  C
  H331     1.0000 0.41970  0.03030  0.41680  Biso   1.000  H
  H332     1.0000 0.41780  0.99480  0.39060  Biso   1.000  H
  C351     1.0000 0.37730  0.01890  0.36690  Biso   1.000  C
  H333     1.0000 0.36470  0.99990  0.36750  Biso   1.000  H
  H334     1.0000 0.38410  0.02190  0.31080  Biso   1.000  H
  C352     1.0000 0.39150  0.04570  0.39090  Biso   1.000  C
  H335     1.0000 0.40000  0.05210  0.33830  Biso   1.000  H
  H336     1.0000 0.39790  0.06130  0.43110  Biso   1.000  H
  C353     1.0000 0.35630  0.04490  0.38620  Biso   1.000  C
  H337     1.0000 0.36780  0.06460  0.38450  Biso   1.000  H
  H338     1.0000 0.33960  0.04590  0.34590  Biso   1.000  H
  O285     1.0000 0.55157  0.87933  0.58980  Biso   1.000  O
  O286     1.0000 0.61366  0.86046  0.54710  Biso   1.000  O
  N93      1.0000 0.54810  0.91316  0.45490  Biso   1.000  N
  N94      1.0000 0.60872  0.89146  0.40910  Biso   1.000  N
  C354     1.0000 0.53080  0.90050  0.59020  Biso   1.000  C
  C355     1.0000 0.52910  0.92100  0.51180  Biso   1.000  C
  C356     1.0000 0.63970  0.86440  0.50700  Biso   1.000  C
  C357     1.0000 0.63800  0.88270  0.42740  Biso   1.000  C
  C358     1.0000 0.54960  0.93010  0.37900  Biso   1.000  C
  H339     1.0000 0.52850  0.93300  0.35760  Biso   1.000  H
  H340     1.0000 0.55850  0.95080  0.38860  Biso   1.000  H
  C359     1.0000 0.56900  0.91310  0.31760  Biso   1.000  C
  H341     1.0000 0.56090  0.89190  0.31260  Biso   1.000  H
  H342     1.0000 0.56630  0.92330  0.26500  Biso   1.000  H
  C360     1.0000 0.60380  0.91110  0.33530  Biso   1.000  C
  H343     1.0000 0.61230  0.93210  0.34450  Biso   1.000  H
  H344     1.0000 0.61470  0.90190  0.28900  Biso   1.000  H
  O287     1.0000 0.56144  0.98840  0.80750  Biso   1.000  O
  O288     1.0000 0.59792  0.00810  0.94350  Biso   1.000  O
  N95      1.0000 0.51327  0.02030  0.85910  Biso   1.000  N
  N96      1.0000 0.54932  0.04010  0.00060  Biso   1.000  N
  C361     1.0000 0.53580  0.98310  0.77090  Biso   1.000  C
  C362     1.0000 0.50680  0.00230  0.79930  Biso   1.000  C
  C363     1.0000 0.60100  0.01970  0.01100  Biso   1.000  C
  C364     1.0000 0.57300  0.03830  0.05040  Biso   1.000  C
  C365     1.0000 0.48850  0.03970  0.89480  Biso   1.000  C
  H345     1.0000 0.47490  0.04740  0.85160  Biso   1.000  H
  H346     1.0000 0.47580  0.02680  0.93120  Biso   1.000  H
  C366     1.0000 0.50180  0.06760  0.94280  Biso   1.000  C
  H347     1.0000 0.51570  0.07960  0.90740  Biso   1.000  H
  H348     1.0000 0.48460  0.08130  0.95890  Biso   1.000  H
  C367     1.0000 0.50040  0.05470  0.97100  Biso   1.000  C
  H349     1.0000 0.48260  0.05090  0.00630  Biso   1.000  H
  H350     1.0000 0.49820  0.07660  0.95510  Biso   1.000  H
  C368     1.0000 0.52050  0.05740  0.02130  Biso   1.000  C
  H351     1.0000 0.50720  0.04420  0.05510  Biso   1.000  H
  H352     1.0000 0.52600  0.07590  0.05290  Biso   1.000  H
