data_image0
_cell_length_a       24.5681
_cell_length_b       24.5681
_cell_length_c       24.5681
_cell_angle_alpha    90
_cell_angle_beta     90
_cell_angle_gamma    90

_symmetry_space_group_name_H-M    "P 1"
_symmetry_int_tables_number       1

loop_
  _symmetry_equiv_pos_as_xyz
  'x, y, z'

loop_
  _atom_site_label
  _atom_site_occupancy
  _atom_site_fract_x
  _atom_site_fract_y
  _atom_site_fract_z
  _atom_site_thermal_displace_type
  _atom_site_B_iso_or_equiv
  _atom_site_type_symbol
  O1       1.0000 0.15170  0.99960  0.91240  Biso   1.000  O
  O2       1.0000 0.08760  0.00380  0.84800  Biso   1.000  O
  C1       1.0000 0.13680  0.00930  0.86420  Biso   1.000  C
  C2       1.0000 0.16720  0.01150  0.81170  Biso   1.000  C
  C3       1.0000 0.22330  0.01490  0.82110  Biso   1.000  C
  C4       1.0000 0.23960  0.01250  0.72360  Biso   1.000  C
  C5       1.0000 0.14700  0.01440  0.75890  Biso   1.000  C
  C6       1.0000 0.18230  0.01000  0.71500  Biso   1.000  C
  C7       1.0000 0.18680  0.00920  0.83080  Biso   1.000  C
  C8       1.0000 0.17950  0.98630  0.77900  Biso   1.000  C
  C9       1.0000 0.27690  0.99170  0.76300  Biso   1.000  C
  C10      1.0000 0.23900  0.01790  0.85080  Biso   1.000  C
  C11      1.0000 0.28350  0.01390  0.81620  Biso   1.000  C
  O3       1.0000 0.15170  0.49960  0.41240  Biso   1.000  O
  O4       1.0000 0.08760  0.50380  0.34800  Biso   1.000  O
  C12      1.0000 0.13680  0.50930  0.36420  Biso   1.000  C
  C13      1.0000 0.16720  0.51150  0.31170  Biso   1.000  C
  C14      1.0000 0.22330  0.51490  0.32110  Biso   1.000  C
  C15      1.0000 0.23960  0.51250  0.22360  Biso   1.000  C
  C16      1.0000 0.14700  0.51440  0.25890  Biso   1.000  C
  C17      1.0000 0.18230  0.51000  0.21500  Biso   1.000  C
  C18      1.0000 0.18680  0.50920  0.33080  Biso   1.000  C
  C19      1.0000 0.17950  0.48630  0.27900  Biso   1.000  C
  C20      1.0000 0.27690  0.49170  0.26300  Biso   1.000  C
  C21      1.0000 0.23900  0.51790  0.35080  Biso   1.000  C
  C22      1.0000 0.28350  0.51390  0.31620  Biso   1.000  C
  O5       1.0000 0.65170  0.99960  0.41240  Biso   1.000  O
  O6       1.0000 0.58760  0.00380  0.34800  Biso   1.000  O
  C23      1.0000 0.63680  0.00930  0.36420  Biso   1.000  C
  C24      1.0000 0.66720  0.01150  0.31170  Biso   1.000  C
  C25      1.0000 0.72330  0.01490  0.32110  Biso   1.000  C
  C26      1.0000 0.73960  0.01250  0.22360  Biso   1.000  C
  C27      1.0000 0.64700  0.01440  0.25890  Biso   1.000  C
  C28      1.0000 0.68230  0.01000  0.21500  Biso   1.000  C
  C29      1.0000 0.68680  0.00920  0.33080  Biso   1.000  C
  C30      1.0000 0.67950  0.98630  0.27900  Biso   1.000  C
  C31      1.0000 0.77690  0.99170  0.26300  Biso   1.000  C
  C32      1.0000 0.73900  0.01790  0.35080  Biso   1.000  C
  C33      1.0000 0.78350  0.01390  0.31620  Biso   1.000  C
  O7       1.0000 0.65170  0.49960  0.91240  Biso   1.000  O
  O8       1.0000 0.58760  0.50380  0.84800  Biso   1.000  O
  C34      1.0000 0.63680  0.50930  0.86420  Biso   1.000  C
  C35      1.0000 0.66720  0.51150  0.81170  Biso   1.000  C
  C36      1.0000 0.72330  0.51490  0.82110  Biso   1.000  C
  C37      1.0000 0.73960  0.51250  0.72360  Biso   1.000  C
  C38      1.0000 0.64700  0.51440  0.75890  Biso   1.000  C
  C39      1.0000 0.68230  0.51000  0.71500  Biso   1.000  C
  C40      1.0000 0.68680  0.50920  0.83080  Biso   1.000  C
  C41      1.0000 0.67950  0.48630  0.77900  Biso   1.000  C
  C42      1.0000 0.77690  0.49170  0.76300  Biso   1.000  C
  C43      1.0000 0.73900  0.51790  0.85080  Biso   1.000  C
  C44      1.0000 0.78350  0.51390  0.81620  Biso   1.000  C
  O9       1.0000 0.84830  0.00040  0.91240  Biso   1.000  O
  O10      1.0000 0.91240  0.99620  0.84800  Biso   1.000  O
  C45      1.0000 0.86320  0.99070  0.86420  Biso   1.000  C
  C46      1.0000 0.83280  0.98850  0.81170  Biso   1.000  C
  C47      1.0000 0.77670  0.98510  0.82110  Biso   1.000  C
  C48      1.0000 0.76040  0.98750  0.72360  Biso   1.000  C
  C49      1.0000 0.85300  0.98560  0.75890  Biso   1.000  C
  C50      1.0000 0.81770  0.99000  0.71500  Biso   1.000  C
  C51      1.0000 0.81320  0.99080  0.83080  Biso   1.000  C
  C52      1.0000 0.82050  0.01370  0.77900  Biso   1.000  C
  C53      1.0000 0.72310  0.00830  0.76300  Biso   1.000  C
  C54      1.0000 0.76100  0.98210  0.85080  Biso   1.000  C
  C55      1.0000 0.71650  0.98610  0.81620  Biso   1.000  C
  O11      1.0000 0.84830  0.50040  0.41240  Biso   1.000  O
  O12      1.0000 0.91240  0.49620  0.34800  Biso   1.000  O
  C56      1.0000 0.86320  0.49070  0.36420  Biso   1.000  C
  C57      1.0000 0.83280  0.48850  0.31170  Biso   1.000  C
  C58      1.0000 0.77670  0.48510  0.32110  Biso   1.000  C
  C59      1.0000 0.76040  0.48750  0.22360  Biso   1.000  C
  C60      1.0000 0.85300  0.48560  0.25890  Biso   1.000  C
  C61      1.0000 0.81770  0.49000  0.21500  Biso   1.000  C
  C62      1.0000 0.81320  0.49080  0.33080  Biso   1.000  C
  C63      1.0000 0.82050  0.51370  0.27900  Biso   1.000  C
  C64      1.0000 0.72310  0.50830  0.26300  Biso   1.000  C
  C65      1.0000 0.76100  0.48210  0.35080  Biso   1.000  C
  C66      1.0000 0.71650  0.48610  0.31620  Biso   1.000  C
  O13      1.0000 0.34830  0.00040  0.41240  Biso   1.000  O
  O14      1.0000 0.41240  0.99620  0.34800  Biso   1.000  O
  C67      1.0000 0.36320  0.99070  0.36420  Biso   1.000  C
  C68      1.0000 0.33280  0.98850  0.31170  Biso   1.000  C
  C69      1.0000 0.27670  0.98510  0.32110  Biso   1.000  C
  C70      1.0000 0.26040  0.98750  0.22360  Biso   1.000  C
  C71      1.0000 0.35300  0.98560  0.25890  Biso   1.000  C
  C72      1.0000 0.31770  0.99000  0.21500  Biso   1.000  C
  C73      1.0000 0.31320  0.99080  0.33080  Biso   1.000  C
  C74      1.0000 0.32050  0.01370  0.27900  Biso   1.000  C
  C75      1.0000 0.22310  0.00830  0.26300  Biso   1.000  C
  C76      1.0000 0.26100  0.98210  0.35080  Biso   1.000  C
  C77      1.0000 0.21650  0.98610  0.31620  Biso   1.000  C
  O15      1.0000 0.34830  0.50040  0.91240  Biso   1.000  O
  O16      1.0000 0.41240  0.49620  0.84800  Biso   1.000  O
  C78      1.0000 0.36320  0.49070  0.86420  Biso   1.000  C
  C79      1.0000 0.33280  0.48850  0.81170  Biso   1.000  C
  C80      1.0000 0.27670  0.48510  0.82110  Biso   1.000  C
  C81      1.0000 0.26040  0.48750  0.72360  Biso   1.000  C
  C82      1.0000 0.35300  0.48560  0.75890  Biso   1.000  C
  C83      1.0000 0.31770  0.49000  0.71500  Biso   1.000  C
  C84      1.0000 0.31320  0.49080  0.83080  Biso   1.000  C
  C85      1.0000 0.32050  0.51370  0.77900  Biso   1.000  C
  C86      1.0000 0.22310  0.50830  0.76300  Biso   1.000  C
  C87      1.0000 0.26100  0.48210  0.85080  Biso   1.000  C
  C88      1.0000 0.21650  0.48610  0.81620  Biso   1.000  C
  O17      1.0000 0.84830  0.99960  0.08760  Biso   1.000  O
  O18      1.0000 0.91240  0.00380  0.15200  Biso   1.000  O
  C89      1.0000 0.86320  0.00930  0.13580  Biso   1.000  C
  C90      1.0000 0.83280  0.01150  0.18830  Biso   1.000  C
  C91      1.0000 0.77670  0.01490  0.17890  Biso   1.000  C
  C92      1.0000 0.76040  0.01250  0.27640  Biso   1.000  C
  C93      1.0000 0.85300  0.01440  0.24110  Biso   1.000  C
  C94      1.0000 0.81770  0.01000  0.28500  Biso   1.000  C
  C95      1.0000 0.81320  0.00920  0.16920  Biso   1.000  C
  C96      1.0000 0.82050  0.98630  0.22100  Biso   1.000  C
  C97      1.0000 0.72310  0.99170  0.23700  Biso   1.000  C
  C98      1.0000 0.76100  0.01790  0.14920  Biso   1.000  C
  C99      1.0000 0.71650  0.01390  0.18380  Biso   1.000  C
  O19      1.0000 0.84830  0.49960  0.58760  Biso   1.000  O
  O20      1.0000 0.91240  0.50380  0.65200  Biso   1.000  O
  C100     1.0000 0.86320  0.50930  0.63580  Biso   1.000  C
  C101     1.0000 0.83280  0.51150  0.68830  Biso   1.000  C
  C102     1.0000 0.77670  0.51490  0.67890  Biso   1.000  C
  C103     1.0000 0.76040  0.51250  0.77640  Biso   1.000  C
  C104     1.0000 0.85300  0.51440  0.74110  Biso   1.000  C
  C105     1.0000 0.81770  0.51000  0.78500  Biso   1.000  C
  C106     1.0000 0.81320  0.50920  0.66920  Biso   1.000  C
  C107     1.0000 0.82050  0.48630  0.72100  Biso   1.000  C
  C108     1.0000 0.72310  0.49170  0.73700  Biso   1.000  C
  C109     1.0000 0.76100  0.51790  0.64920  Biso   1.000  C
  C110     1.0000 0.71650  0.51390  0.68380  Biso   1.000  C
  O21      1.0000 0.34830  0.99960  0.58760  Biso   1.000  O
  O22      1.0000 0.41240  0.00380  0.65200  Biso   1.000  O
  C111     1.0000 0.36320  0.00930  0.63580  Biso   1.000  C
  C112     1.0000 0.33280  0.01150  0.68830  Biso   1.000  C
  C113     1.0000 0.27670  0.01490  0.67890  Biso   1.000  C
  C114     1.0000 0.26040  0.01250  0.77640  Biso   1.000  C
  C115     1.0000 0.35300  0.01440  0.74110  Biso   1.000  C
  C116     1.0000 0.31770  0.01000  0.78500  Biso   1.000  C
  C117     1.0000 0.31320  0.00920  0.66920  Biso   1.000  C
  C118     1.0000 0.32050  0.98630  0.72100  Biso   1.000  C
  C119     1.0000 0.22310  0.99170  0.73700  Biso   1.000  C
  C120     1.0000 0.26100  0.01790  0.64920  Biso   1.000  C
  C121     1.0000 0.21650  0.01390  0.68380  Biso   1.000  C
  O23      1.0000 0.34830  0.49960  0.08760  Biso   1.000  O
  O24      1.0000 0.41240  0.50380  0.15200  Biso   1.000  O
  C122     1.0000 0.36320  0.50930  0.13580  Biso   1.000  C
  C123     1.0000 0.33280  0.51150  0.18830  Biso   1.000  C
  C124     1.0000 0.27670  0.51490  0.17890  Biso   1.000  C
  C125     1.0000 0.26040  0.51250  0.27640  Biso   1.000  C
  C126     1.0000 0.35300  0.51440  0.24110  Biso   1.000  C
  C127     1.0000 0.31770  0.51000  0.28500  Biso   1.000  C
  C128     1.0000 0.31320  0.50920  0.16920  Biso   1.000  C
  C129     1.0000 0.32050  0.48630  0.22100  Biso   1.000  C
  C130     1.0000 0.22310  0.49170  0.23700  Biso   1.000  C
  C131     1.0000 0.26100  0.51790  0.14920  Biso   1.000  C
  C132     1.0000 0.21650  0.51390  0.18380  Biso   1.000  C
  O25      1.0000 0.15170  0.00040  0.08760  Biso   1.000  O
  O26      1.0000 0.08760  0.99620  0.15200  Biso   1.000  O
  C133     1.0000 0.13680  0.99070  0.13580  Biso   1.000  C
  C134     1.0000 0.16720  0.98850  0.18830  Biso   1.000  C
  C135     1.0000 0.22330  0.98510  0.17890  Biso   1.000  C
  C136     1.0000 0.23960  0.98750  0.27640  Biso   1.000  C
  C137     1.0000 0.14700  0.98560  0.24110  Biso   1.000  C
  C138     1.0000 0.18230  0.99000  0.28500  Biso   1.000  C
  C139     1.0000 0.18680  0.99080  0.16920  Biso   1.000  C
  C140     1.0000 0.17950  0.01370  0.22100  Biso   1.000  C
  C141     1.0000 0.27690  0.00830  0.23700  Biso   1.000  C
  C142     1.0000 0.23900  0.98210  0.14920  Biso   1.000  C
  C143     1.0000 0.28350  0.98610  0.18380  Biso   1.000  C
  O27      1.0000 0.15170  0.50040  0.58760  Biso   1.000  O
  O28      1.0000 0.08760  0.49620  0.65200  Biso   1.000  O
  C144     1.0000 0.13680  0.49070  0.63580  Biso   1.000  C
  C145     1.0000 0.16720  0.48850  0.68830  Biso   1.000  C
  C146     1.0000 0.22330  0.48510  0.67890  Biso   1.000  C
  C147     1.0000 0.23960  0.48750  0.77640  Biso   1.000  C
  C148     1.0000 0.14700  0.48560  0.74110  Biso   1.000  C
  C149     1.0000 0.18230  0.49000  0.78500  Biso   1.000  C
  C150     1.0000 0.18680  0.49080  0.66920  Biso   1.000  C
  C151     1.0000 0.17950  0.51370  0.72100  Biso   1.000  C
  C152     1.0000 0.27690  0.50830  0.73700  Biso   1.000  C
  C153     1.0000 0.23900  0.48210  0.64920  Biso   1.000  C
  C154     1.0000 0.28350  0.48610  0.68380  Biso   1.000  C
  O29      1.0000 0.65170  0.00040  0.58760  Biso   1.000  O
  O30      1.0000 0.58760  0.99620  0.65200  Biso   1.000  O
  C155     1.0000 0.63680  0.99070  0.63580  Biso   1.000  C
  C156     1.0000 0.66720  0.98850  0.68830  Biso   1.000  C
  C157     1.0000 0.72330  0.98510  0.67890  Biso   1.000  C
  C158     1.0000 0.73960  0.98750  0.77640  Biso   1.000  C
  C159     1.0000 0.64700  0.98560  0.74110  Biso   1.000  C
  C160     1.0000 0.68230  0.99000  0.78500  Biso   1.000  C
  C161     1.0000 0.68680  0.99080  0.66920  Biso   1.000  C
  C162     1.0000 0.67950  0.01370  0.72100  Biso   1.000  C
  C163     1.0000 0.77690  0.00830  0.73700  Biso   1.000  C
  C164     1.0000 0.73900  0.98210  0.64920  Biso   1.000  C
  C165     1.0000 0.78350  0.98610  0.68380  Biso   1.000  C
  O31      1.0000 0.65170  0.50040  0.08760  Biso   1.000  O
  O32      1.0000 0.58760  0.49620  0.15200  Biso   1.000  O
  C166     1.0000 0.63680  0.49070  0.13580  Biso   1.000  C
  C167     1.0000 0.66720  0.48850  0.18830  Biso   1.000  C
  C168     1.0000 0.72330  0.48510  0.17890  Biso   1.000  C
  C169     1.0000 0.73960  0.48750  0.27640  Biso   1.000  C
  C170     1.0000 0.64700  0.48560  0.24110  Biso   1.000  C
  C171     1.0000 0.68230  0.49000  0.28500  Biso   1.000  C
  C172     1.0000 0.68680  0.49080  0.16920  Biso   1.000  C
  C173     1.0000 0.67950  0.51370  0.22100  Biso   1.000  C
  C174     1.0000 0.77690  0.50830  0.23700  Biso   1.000  C
  C175     1.0000 0.73900  0.48210  0.14920  Biso   1.000  C
  C176     1.0000 0.78350  0.48610  0.18380  Biso   1.000  C
  O33      1.0000 0.91240  0.15170  0.99960  Biso   1.000  O
  O34      1.0000 0.84800  0.08760  0.00380  Biso   1.000  O
  C177     1.0000 0.86420  0.13680  0.00930  Biso   1.000  C
  C178     1.0000 0.81170  0.16720  0.01150  Biso   1.000  C
  C179     1.0000 0.82110  0.22330  0.01490  Biso   1.000  C
  C180     1.0000 0.72360  0.23960  0.01250  Biso   1.000  C
  C181     1.0000 0.75890  0.14700  0.01440  Biso   1.000  C
  C182     1.0000 0.71500  0.18230  0.01000  Biso   1.000  C
  C183     1.0000 0.83080  0.18680  0.00920  Biso   1.000  C
  C184     1.0000 0.77900  0.17950  0.98630  Biso   1.000  C
  C185     1.0000 0.76300  0.27690  0.99170  Biso   1.000  C
  C186     1.0000 0.85080  0.23900  0.01790  Biso   1.000  C
  C187     1.0000 0.81620  0.28350  0.01390  Biso   1.000  C
  O35      1.0000 0.91240  0.65170  0.49960  Biso   1.000  O
  O36      1.0000 0.84800  0.58760  0.50380  Biso   1.000  O
  C188     1.0000 0.86420  0.63680  0.50930  Biso   1.000  C
  C189     1.0000 0.81170  0.66720  0.51150  Biso   1.000  C
  C190     1.0000 0.82110  0.72330  0.51490  Biso   1.000  C
  C191     1.0000 0.72360  0.73960  0.51250  Biso   1.000  C
  C192     1.0000 0.75890  0.64700  0.51440  Biso   1.000  C
  C193     1.0000 0.71500  0.68230  0.51000  Biso   1.000  C
  C194     1.0000 0.83080  0.68680  0.50920  Biso   1.000  C
  C195     1.0000 0.77900  0.67950  0.48630  Biso   1.000  C
  C196     1.0000 0.76300  0.77690  0.49170  Biso   1.000  C
  C197     1.0000 0.85080  0.73900  0.51790  Biso   1.000  C
  C198     1.0000 0.81620  0.78350  0.51390  Biso   1.000  C
  O37      1.0000 0.41240  0.15170  0.49960  Biso   1.000  O
  O38      1.0000 0.34800  0.08760  0.50380  Biso   1.000  O
  C199     1.0000 0.36420  0.13680  0.50930  Biso   1.000  C
  C200     1.0000 0.31170  0.16720  0.51150  Biso   1.000  C
  C201     1.0000 0.32110  0.22330  0.51490  Biso   1.000  C
  C202     1.0000 0.22360  0.23960  0.51250  Biso   1.000  C
  C203     1.0000 0.25890  0.14700  0.51440  Biso   1.000  C
  C204     1.0000 0.21500  0.18230  0.51000  Biso   1.000  C
  C205     1.0000 0.33080  0.18680  0.50920  Biso   1.000  C
  C206     1.0000 0.27900  0.17950  0.48630  Biso   1.000  C
  C207     1.0000 0.26300  0.27690  0.49170  Biso   1.000  C
  C208     1.0000 0.35080  0.23900  0.51790  Biso   1.000  C
  C209     1.0000 0.31620  0.28350  0.51390  Biso   1.000  C
  O39      1.0000 0.41240  0.65170  0.99960  Biso   1.000  O
  O40      1.0000 0.34800  0.58760  0.00380  Biso   1.000  O
  C210     1.0000 0.36420  0.63680  0.00930  Biso   1.000  C
  C211     1.0000 0.31170  0.66720  0.01150  Biso   1.000  C
  C212     1.0000 0.32110  0.72330  0.01490  Biso   1.000  C
  C213     1.0000 0.22360  0.73960  0.01250  Biso   1.000  C
  C214     1.0000 0.25890  0.64700  0.01440  Biso   1.000  C
  C215     1.0000 0.21500  0.68230  0.01000  Biso   1.000  C
  C216     1.0000 0.33080  0.68680  0.00920  Biso   1.000  C
  C217     1.0000 0.27900  0.67950  0.98630  Biso   1.000  C
  C218     1.0000 0.26300  0.77690  0.99170  Biso   1.000  C
  C219     1.0000 0.35080  0.73900  0.01790  Biso   1.000  C
  C220     1.0000 0.31620  0.78350  0.01390  Biso   1.000  C
  O41      1.0000 0.91240  0.84830  0.00040  Biso   1.000  O
  O42      1.0000 0.84800  0.91240  0.99620  Biso   1.000  O
  C221     1.0000 0.86420  0.86320  0.99070  Biso   1.000  C
  C222     1.0000 0.81170  0.83280  0.98850  Biso   1.000  C
  C223     1.0000 0.82110  0.77670  0.98510  Biso   1.000  C
  C224     1.0000 0.72360  0.76040  0.98750  Biso   1.000  C
  C225     1.0000 0.75890  0.85300  0.98560  Biso   1.000  C
  C226     1.0000 0.71500  0.81770  0.99000  Biso   1.000  C
  C227     1.0000 0.83080  0.81320  0.99080  Biso   1.000  C
  C228     1.0000 0.77900  0.82050  0.01370  Biso   1.000  C
  C229     1.0000 0.76300  0.72310  0.00830  Biso   1.000  C
  C230     1.0000 0.85080  0.76100  0.98210  Biso   1.000  C
  C231     1.0000 0.81620  0.71650  0.98610  Biso   1.000  C
  O43      1.0000 0.91240  0.34830  0.50040  Biso   1.000  O
  O44      1.0000 0.84800  0.41240  0.49620  Biso   1.000  O
  C232     1.0000 0.86420  0.36320  0.49070  Biso   1.000  C
  C233     1.0000 0.81170  0.33280  0.48850  Biso   1.000  C
  C234     1.0000 0.82110  0.27670  0.48510  Biso   1.000  C
  C235     1.0000 0.72360  0.26040  0.48750  Biso   1.000  C
  C236     1.0000 0.75890  0.35300  0.48560  Biso   1.000  C
  C237     1.0000 0.71500  0.31770  0.49000  Biso   1.000  C
  C238     1.0000 0.83080  0.31320  0.49080  Biso   1.000  C
  C239     1.0000 0.77900  0.32050  0.51370  Biso   1.000  C
  C240     1.0000 0.76300  0.22310  0.50830  Biso   1.000  C
  C241     1.0000 0.85080  0.26100  0.48210  Biso   1.000  C
  C242     1.0000 0.81620  0.21650  0.48610  Biso   1.000  C
  O45      1.0000 0.41240  0.84830  0.50040  Biso   1.000  O
  O46      1.0000 0.34800  0.91240  0.49620  Biso   1.000  O
  C243     1.0000 0.36420  0.86320  0.49070  Biso   1.000  C
  C244     1.0000 0.31170  0.83280  0.48850  Biso   1.000  C
  C245     1.0000 0.32110  0.77670  0.48510  Biso   1.000  C
  C246     1.0000 0.22360  0.76040  0.48750  Biso   1.000  C
  C247     1.0000 0.25890  0.85300  0.48560  Biso   1.000  C
  C248     1.0000 0.21500  0.81770  0.49000  Biso   1.000  C
  C249     1.0000 0.33080  0.81320  0.49080  Biso   1.000  C
  C250     1.0000 0.27900  0.82050  0.51370  Biso   1.000  C
  C251     1.0000 0.26300  0.72310  0.50830  Biso   1.000  C
  C252     1.0000 0.35080  0.76100  0.48210  Biso   1.000  C
  C253     1.0000 0.31620  0.71650  0.48610  Biso   1.000  C
  O47      1.0000 0.41240  0.34830  0.00040  Biso   1.000  O
  O48      1.0000 0.34800  0.41240  0.99620  Biso   1.000  O
  C254     1.0000 0.36420  0.36320  0.99070  Biso   1.000  C
  C255     1.0000 0.31170  0.33280  0.98850  Biso   1.000  C
  C256     1.0000 0.32110  0.27670  0.98510  Biso   1.000  C
  C257     1.0000 0.22360  0.26040  0.98750  Biso   1.000  C
  C258     1.0000 0.25890  0.35300  0.98560  Biso   1.000  C
  C259     1.0000 0.21500  0.31770  0.99000  Biso   1.000  C
  C260     1.0000 0.33080  0.31320  0.99080  Biso   1.000  C
  C261     1.0000 0.27900  0.32050  0.01370  Biso   1.000  C
  C262     1.0000 0.26300  0.22310  0.00830  Biso   1.000  C
  C263     1.0000 0.35080  0.26100  0.98210  Biso   1.000  C
  C264     1.0000 0.31620  0.21650  0.98610  Biso   1.000  C
  O49      1.0000 0.08760  0.84830  0.99960  Biso   1.000  O
  O50      1.0000 0.15200  0.91240  0.00380  Biso   1.000  O
  C265     1.0000 0.13580  0.86320  0.00930  Biso   1.000  C
  C266     1.0000 0.18830  0.83280  0.01150  Biso   1.000  C
  C267     1.0000 0.17890  0.77670  0.01490  Biso   1.000  C
  C268     1.0000 0.27640  0.76040  0.01250  Biso   1.000  C
  C269     1.0000 0.24110  0.85300  0.01440  Biso   1.000  C
  C270     1.0000 0.28500  0.81770  0.01000  Biso   1.000  C
  C271     1.0000 0.16920  0.81320  0.00920  Biso   1.000  C
  C272     1.0000 0.22100  0.82050  0.98630  Biso   1.000  C
  C273     1.0000 0.23700  0.72310  0.99170  Biso   1.000  C
  C274     1.0000 0.14920  0.76100  0.01790  Biso   1.000  C
  C275     1.0000 0.18380  0.71650  0.01390  Biso   1.000  C
  O51      1.0000 0.08760  0.34830  0.49960  Biso   1.000  O
  O52      1.0000 0.15200  0.41240  0.50380  Biso   1.000  O
  C276     1.0000 0.13580  0.36320  0.50930  Biso   1.000  C
  C277     1.0000 0.18830  0.33280  0.51150  Biso   1.000  C
  C278     1.0000 0.17890  0.27670  0.51490  Biso   1.000  C
  C279     1.0000 0.27640  0.26040  0.51250  Biso   1.000  C
  C280     1.0000 0.24110  0.35300  0.51440  Biso   1.000  C
  C281     1.0000 0.28500  0.31770  0.51000  Biso   1.000  C
  C282     1.0000 0.16920  0.31320  0.50920  Biso   1.000  C
  C283     1.0000 0.22100  0.32050  0.48630  Biso   1.000  C
  C284     1.0000 0.23700  0.22310  0.49170  Biso   1.000  C
  C285     1.0000 0.14920  0.26100  0.51790  Biso   1.000  C
  C286     1.0000 0.18380  0.21650  0.51390  Biso   1.000  C
  O53      1.0000 0.58760  0.84830  0.49960  Biso   1.000  O
  O54      1.0000 0.65200  0.91240  0.50380  Biso   1.000  O
  C287     1.0000 0.63580  0.86320  0.50930  Biso   1.000  C
  C288     1.0000 0.68830  0.83280  0.51150  Biso   1.000  C
  C289     1.0000 0.67890  0.77670  0.51490  Biso   1.000  C
  C290     1.0000 0.77640  0.76040  0.51250  Biso   1.000  C
  C291     1.0000 0.74110  0.85300  0.51440  Biso   1.000  C
  C292     1.0000 0.78500  0.81770  0.51000  Biso   1.000  C
  C293     1.0000 0.66920  0.81320  0.50920  Biso   1.000  C
  C294     1.0000 0.72100  0.82050  0.48630  Biso   1.000  C
  C295     1.0000 0.73700  0.72310  0.49170  Biso   1.000  C
  C296     1.0000 0.64920  0.76100  0.51790  Biso   1.000  C
  C297     1.0000 0.68380  0.71650  0.51390  Biso   1.000  C
  O55      1.0000 0.58760  0.34830  0.99960  Biso   1.000  O
  O56      1.0000 0.65200  0.41240  0.00380  Biso   1.000  O
  C298     1.0000 0.63580  0.36320  0.00930  Biso   1.000  C
  C299     1.0000 0.68830  0.33280  0.01150  Biso   1.000  C
  C300     1.0000 0.67890  0.27670  0.01490  Biso   1.000  C
  C301     1.0000 0.77640  0.26040  0.01250  Biso   1.000  C
  C302     1.0000 0.74110  0.35300  0.01440  Biso   1.000  C
  C303     1.0000 0.78500  0.31770  0.01000  Biso   1.000  C
  C304     1.0000 0.66920  0.31320  0.00920  Biso   1.000  C
  C305     1.0000 0.72100  0.32050  0.98630  Biso   1.000  C
  C306     1.0000 0.73700  0.22310  0.99170  Biso   1.000  C
  C307     1.0000 0.64920  0.26100  0.01790  Biso   1.000  C
  C308     1.0000 0.68380  0.21650  0.01390  Biso   1.000  C
  O57      1.0000 0.08760  0.15170  0.00040  Biso   1.000  O
  O58      1.0000 0.15200  0.08760  0.99620  Biso   1.000  O
  C309     1.0000 0.13580  0.13680  0.99070  Biso   1.000  C
  C310     1.0000 0.18830  0.16720  0.98850  Biso   1.000  C
  C311     1.0000 0.17890  0.22330  0.98510  Biso   1.000  C
  C312     1.0000 0.27640  0.23960  0.98750  Biso   1.000  C
  C313     1.0000 0.24110  0.14700  0.98560  Biso   1.000  C
  C314     1.0000 0.28500  0.18230  0.99000  Biso   1.000  C
  C315     1.0000 0.16920  0.18680  0.99080  Biso   1.000  C
  C316     1.0000 0.22100  0.17950  0.01370  Biso   1.000  C
  C317     1.0000 0.23700  0.27690  0.00830  Biso   1.000  C
  C318     1.0000 0.14920  0.23900  0.98210  Biso   1.000  C
  C319     1.0000 0.18380  0.28350  0.98610  Biso   1.000  C
  O59      1.0000 0.08760  0.65170  0.50040  Biso   1.000  O
  O60      1.0000 0.15200  0.58760  0.49620  Biso   1.000  O
  C320     1.0000 0.13580  0.63680  0.49070  Biso   1.000  C
  C321     1.0000 0.18830  0.66720  0.48850  Biso   1.000  C
  C322     1.0000 0.17890  0.72330  0.48510  Biso   1.000  C
  C323     1.0000 0.27640  0.73960  0.48750  Biso   1.000  C
  C324     1.0000 0.24110  0.64700  0.48560  Biso   1.000  C
  C325     1.0000 0.28500  0.68230  0.49000  Biso   1.000  C
  C326     1.0000 0.16920  0.68680  0.49080  Biso   1.000  C
  C327     1.0000 0.22100  0.67950  0.51370  Biso   1.000  C
  C328     1.0000 0.23700  0.77690  0.50830  Biso   1.000  C
  C329     1.0000 0.14920  0.73900  0.48210  Biso   1.000  C
  C330     1.0000 0.18380  0.78350  0.48610  Biso   1.000  C
  O61      1.0000 0.58760  0.15170  0.50040  Biso   1.000  O
  O62      1.0000 0.65200  0.08760  0.49620  Biso   1.000  O
  C331     1.0000 0.63580  0.13680  0.49070  Biso   1.000  C
  C332     1.0000 0.68830  0.16720  0.48850  Biso   1.000  C
  C333     1.0000 0.67890  0.22330  0.48510  Biso   1.000  C
  C334     1.0000 0.77640  0.23960  0.48750  Biso   1.000  C
  C335     1.0000 0.74110  0.14700  0.48560  Biso   1.000  C
  C336     1.0000 0.78500  0.18230  0.49000  Biso   1.000  C
  C337     1.0000 0.66920  0.18680  0.49080  Biso   1.000  C
  C338     1.0000 0.72100  0.17950  0.51370  Biso   1.000  C
  C339     1.0000 0.73700  0.27690  0.50830  Biso   1.000  C
  C340     1.0000 0.64920  0.23900  0.48210  Biso   1.000  C
  C341     1.0000 0.68380  0.28350  0.48610  Biso   1.000  C
  O63      1.0000 0.58760  0.65170  0.00040  Biso   1.000  O
  O64      1.0000 0.65200  0.58760  0.99620  Biso   1.000  O
  C342     1.0000 0.63580  0.63680  0.99070  Biso   1.000  C
  C343     1.0000 0.68830  0.66720  0.98850  Biso   1.000  C
  C344     1.0000 0.67890  0.72330  0.98510  Biso   1.000  C
  C345     1.0000 0.77640  0.73960  0.98750  Biso   1.000  C
  C346     1.0000 0.74110  0.64700  0.98560  Biso   1.000  C
  C347     1.0000 0.78500  0.68230  0.99000  Biso   1.000  C
  C348     1.0000 0.66920  0.68680  0.99080  Biso   1.000  C
  C349     1.0000 0.72100  0.67950  0.01370  Biso   1.000  C
  C350     1.0000 0.73700  0.77690  0.00830  Biso   1.000  C
  C351     1.0000 0.64920  0.73900  0.98210  Biso   1.000  C
  C352     1.0000 0.68380  0.78350  0.98610  Biso   1.000  C
  O65      1.0000 0.99960  0.91240  0.15170  Biso   1.000  O
  O66      1.0000 0.00380  0.84800  0.08760  Biso   1.000  O
  C353     1.0000 0.00930  0.86420  0.13680  Biso   1.000  C
  C354     1.0000 0.01150  0.81170  0.16720  Biso   1.000  C
  C355     1.0000 0.01490  0.82110  0.22330  Biso   1.000  C
  C356     1.0000 0.01250  0.72360  0.23960  Biso   1.000  C
  C357     1.0000 0.01440  0.75890  0.14700  Biso   1.000  C
  C358     1.0000 0.01000  0.71500  0.18230  Biso   1.000  C
  C359     1.0000 0.00920  0.83080  0.18680  Biso   1.000  C
  C360     1.0000 0.98630  0.77900  0.17950  Biso   1.000  C
  C361     1.0000 0.99170  0.76300  0.27690  Biso   1.000  C
  C362     1.0000 0.01790  0.85080  0.23900  Biso   1.000  C
  C363     1.0000 0.01390  0.81620  0.28350  Biso   1.000  C
  O67      1.0000 0.99960  0.41240  0.65170  Biso   1.000  O
  O68      1.0000 0.00380  0.34800  0.58760  Biso   1.000  O
  C364     1.0000 0.00930  0.36420  0.63680  Biso   1.000  C
  C365     1.0000 0.01150  0.31170  0.66720  Biso   1.000  C
  C366     1.0000 0.01490  0.32110  0.72330  Biso   1.000  C
  C367     1.0000 0.01250  0.22360  0.73960  Biso   1.000  C
  C368     1.0000 0.01440  0.25890  0.64700  Biso   1.000  C
  C369     1.0000 0.01000  0.21500  0.68230  Biso   1.000  C
  C370     1.0000 0.00920  0.33080  0.68680  Biso   1.000  C
  C371     1.0000 0.98630  0.27900  0.67950  Biso   1.000  C
  C372     1.0000 0.99170  0.26300  0.77690  Biso   1.000  C
  C373     1.0000 0.01790  0.35080  0.73900  Biso   1.000  C
  C374     1.0000 0.01390  0.31620  0.78350  Biso   1.000  C
  O69      1.0000 0.49960  0.91240  0.65170  Biso   1.000  O
  O70      1.0000 0.50380  0.84800  0.58760  Biso   1.000  O
  C375     1.0000 0.50930  0.86420  0.63680  Biso   1.000  C
  C376     1.0000 0.51150  0.81170  0.66720  Biso   1.000  C
  C377     1.0000 0.51490  0.82110  0.72330  Biso   1.000  C
  C378     1.0000 0.51250  0.72360  0.73960  Biso   1.000  C
  C379     1.0000 0.51440  0.75890  0.64700  Biso   1.000  C
  C380     1.0000 0.51000  0.71500  0.68230  Biso   1.000  C
  C381     1.0000 0.50920  0.83080  0.68680  Biso   1.000  C
  C382     1.0000 0.48630  0.77900  0.67950  Biso   1.000  C
  C383     1.0000 0.49170  0.76300  0.77690  Biso   1.000  C
  C384     1.0000 0.51790  0.85080  0.73900  Biso   1.000  C
  C385     1.0000 0.51390  0.81620  0.78350  Biso   1.000  C
  O71      1.0000 0.49960  0.41240  0.15170  Biso   1.000  O
  O72      1.0000 0.50380  0.34800  0.08760  Biso   1.000  O
  C386     1.0000 0.50930  0.36420  0.13680  Biso   1.000  C
  C387     1.0000 0.51150  0.31170  0.16720  Biso   1.000  C
  C388     1.0000 0.51490  0.32110  0.22330  Biso   1.000  C
  C389     1.0000 0.51250  0.22360  0.23960  Biso   1.000  C
  C390     1.0000 0.51440  0.25890  0.14700  Biso   1.000  C
  C391     1.0000 0.51000  0.21500  0.18230  Biso   1.000  C
  C392     1.0000 0.50920  0.33080  0.18680  Biso   1.000  C
  C393     1.0000 0.48630  0.27900  0.17950  Biso   1.000  C
  C394     1.0000 0.49170  0.26300  0.27690  Biso   1.000  C
  C395     1.0000 0.51790  0.35080  0.23900  Biso   1.000  C
  C396     1.0000 0.51390  0.31620  0.28350  Biso   1.000  C
  O73      1.0000 0.00040  0.91240  0.84830  Biso   1.000  O
  O74      1.0000 0.99620  0.84800  0.91240  Biso   1.000  O
  C397     1.0000 0.99070  0.86420  0.86320  Biso   1.000  C
  C398     1.0000 0.98850  0.81170  0.83280  Biso   1.000  C
  C399     1.0000 0.98510  0.82110  0.77670  Biso   1.000  C
  C400     1.0000 0.98750  0.72360  0.76040  Biso   1.000  C
  C401     1.0000 0.98560  0.75890  0.85300  Biso   1.000  C
  C402     1.0000 0.99000  0.71500  0.81770  Biso   1.000  C
  C403     1.0000 0.99080  0.83080  0.81320  Biso   1.000  C
  C404     1.0000 0.01370  0.77900  0.82050  Biso   1.000  C
  C405     1.0000 0.00830  0.76300  0.72310  Biso   1.000  C
  C406     1.0000 0.98210  0.85080  0.76100  Biso   1.000  C
  C407     1.0000 0.98610  0.81620  0.71650  Biso   1.000  C
  O75      1.0000 0.00040  0.41240  0.34830  Biso   1.000  O
  O76      1.0000 0.99620  0.34800  0.41240  Biso   1.000  O
  C408     1.0000 0.99070  0.36420  0.36320  Biso   1.000  C
  C409     1.0000 0.98850  0.31170  0.33280  Biso   1.000  C
  C410     1.0000 0.98510  0.32110  0.27670  Biso   1.000  C
  C411     1.0000 0.98750  0.22360  0.26040  Biso   1.000  C
  C412     1.0000 0.98560  0.25890  0.35300  Biso   1.000  C
  C413     1.0000 0.99000  0.21500  0.31770  Biso   1.000  C
  C414     1.0000 0.99080  0.33080  0.31320  Biso   1.000  C
  C415     1.0000 0.01370  0.27900  0.32050  Biso   1.000  C
  C416     1.0000 0.00830  0.26300  0.22310  Biso   1.000  C
  C417     1.0000 0.98210  0.35080  0.26100  Biso   1.000  C
  C418     1.0000 0.98610  0.31620  0.21650  Biso   1.000  C
  O77      1.0000 0.50040  0.91240  0.34830  Biso   1.000  O
  O78      1.0000 0.49620  0.84800  0.41240  Biso   1.000  O
  C419     1.0000 0.49070  0.86420  0.36320  Biso   1.000  C
  C420     1.0000 0.48850  0.81170  0.33280  Biso   1.000  C
  C421     1.0000 0.48510  0.82110  0.27670  Biso   1.000  C
  C422     1.0000 0.48750  0.72360  0.26040  Biso   1.000  C
  C423     1.0000 0.48560  0.75890  0.35300  Biso   1.000  C
  C424     1.0000 0.49000  0.71500  0.31770  Biso   1.000  C
  C425     1.0000 0.49080  0.83080  0.31320  Biso   1.000  C
  C426     1.0000 0.51370  0.77900  0.32050  Biso   1.000  C
  C427     1.0000 0.50830  0.76300  0.22310  Biso   1.000  C
  C428     1.0000 0.48210  0.85080  0.26100  Biso   1.000  C
  C429     1.0000 0.48610  0.81620  0.21650  Biso   1.000  C
  O79      1.0000 0.50040  0.41240  0.84830  Biso   1.000  O
  O80      1.0000 0.49620  0.34800  0.91240  Biso   1.000  O
  C430     1.0000 0.49070  0.36420  0.86320  Biso   1.000  C
  C431     1.0000 0.48850  0.31170  0.83280  Biso   1.000  C
  C432     1.0000 0.48510  0.32110  0.77670  Biso   1.000  C
  C433     1.0000 0.48750  0.22360  0.76040  Biso   1.000  C
  C434     1.0000 0.48560  0.25890  0.85300  Biso   1.000  C
  C435     1.0000 0.49000  0.21500  0.81770  Biso   1.000  C
  C436     1.0000 0.49080  0.33080  0.81320  Biso   1.000  C
  C437     1.0000 0.51370  0.27900  0.82050  Biso   1.000  C
  C438     1.0000 0.50830  0.26300  0.72310  Biso   1.000  C
  C439     1.0000 0.48210  0.35080  0.76100  Biso   1.000  C
  C440     1.0000 0.48610  0.31620  0.71650  Biso   1.000  C
  O81      1.0000 0.99960  0.08760  0.84830  Biso   1.000  O
  O82      1.0000 0.00380  0.15200  0.91240  Biso   1.000  O
  C441     1.0000 0.00930  0.13580  0.86320  Biso   1.000  C
  C442     1.0000 0.01150  0.18830  0.83280  Biso   1.000  C
  C443     1.0000 0.01490  0.17890  0.77670  Biso   1.000  C
  C444     1.0000 0.01250  0.27640  0.76040  Biso   1.000  C
  C445     1.0000 0.01440  0.24110  0.85300  Biso   1.000  C
  C446     1.0000 0.01000  0.28500  0.81770  Biso   1.000  C
  C447     1.0000 0.00920  0.16920  0.81320  Biso   1.000  C
  C448     1.0000 0.98630  0.22100  0.82050  Biso   1.000  C
  C449     1.0000 0.99170  0.23700  0.72310  Biso   1.000  C
  C450     1.0000 0.01790  0.14920  0.76100  Biso   1.000  C
  C451     1.0000 0.01390  0.18380  0.71650  Biso   1.000  C
  O83      1.0000 0.99960  0.58760  0.34830  Biso   1.000  O
  O84      1.0000 0.00380  0.65200  0.41240  Biso   1.000  O
  C452     1.0000 0.00930  0.63580  0.36320  Biso   1.000  C
  C453     1.0000 0.01150  0.68830  0.33280  Biso   1.000  C
  C454     1.0000 0.01490  0.67890  0.27670  Biso   1.000  C
  C455     1.0000 0.01250  0.77640  0.26040  Biso   1.000  C
  C456     1.0000 0.01440  0.74110  0.35300  Biso   1.000  C
  C457     1.0000 0.01000  0.78500  0.31770  Biso   1.000  C
  C458     1.0000 0.00920  0.66920  0.31320  Biso   1.000  C
  C459     1.0000 0.98630  0.72100  0.32050  Biso   1.000  C
  C460     1.0000 0.99170  0.73700  0.22310  Biso   1.000  C
  C461     1.0000 0.01790  0.64920  0.26100  Biso   1.000  C
  C462     1.0000 0.01390  0.68380  0.21650  Biso   1.000  C
  O85      1.0000 0.49960  0.08760  0.34830  Biso   1.000  O
  O86      1.0000 0.50380  0.15200  0.41240  Biso   1.000  O
  C463     1.0000 0.50930  0.13580  0.36320  Biso   1.000  C
  C464     1.0000 0.51150  0.18830  0.33280  Biso   1.000  C
  C465     1.0000 0.51490  0.17890  0.27670  Biso   1.000  C
  C466     1.0000 0.51250  0.27640  0.26040  Biso   1.000  C
  C467     1.0000 0.51440  0.24110  0.35300  Biso   1.000  C
  C468     1.0000 0.51000  0.28500  0.31770  Biso   1.000  C
  C469     1.0000 0.50920  0.16920  0.31320  Biso   1.000  C
  C470     1.0000 0.48630  0.22100  0.32050  Biso   1.000  C
  C471     1.0000 0.49170  0.23700  0.22310  Biso   1.000  C
  C472     1.0000 0.51790  0.14920  0.26100  Biso   1.000  C
  C473     1.0000 0.51390  0.18380  0.21650  Biso   1.000  C
  O87      1.0000 0.49960  0.58760  0.84830  Biso   1.000  O
  O88      1.0000 0.50380  0.65200  0.91240  Biso   1.000  O
  C474     1.0000 0.50930  0.63580  0.86320  Biso   1.000  C
  C475     1.0000 0.51150  0.68830  0.83280  Biso   1.000  C
  C476     1.0000 0.51490  0.67890  0.77670  Biso   1.000  C
  C477     1.0000 0.51250  0.77640  0.76040  Biso   1.000  C
  C478     1.0000 0.51440  0.74110  0.85300  Biso   1.000  C
  C479     1.0000 0.51000  0.78500  0.81770  Biso   1.000  C
  C480     1.0000 0.50920  0.66920  0.81320  Biso   1.000  C
  C481     1.0000 0.48630  0.72100  0.82050  Biso   1.000  C
  C482     1.0000 0.49170  0.73700  0.72310  Biso   1.000  C
  C483     1.0000 0.51790  0.64920  0.76100  Biso   1.000  C
  C484     1.0000 0.51390  0.68380  0.71650  Biso   1.000  C
  O89      1.0000 0.00040  0.08760  0.15170  Biso   1.000  O
  O90      1.0000 0.99620  0.15200  0.08760  Biso   1.000  O
  C485     1.0000 0.99070  0.13580  0.13680  Biso   1.000  C
  C486     1.0000 0.98850  0.18830  0.16720  Biso   1.000  C
  C487     1.0000 0.98510  0.17890  0.22330  Biso   1.000  C
  C488     1.0000 0.98750  0.27640  0.23960  Biso   1.000  C
  C489     1.0000 0.98560  0.24110  0.14700  Biso   1.000  C
  C490     1.0000 0.99000  0.28500  0.18230  Biso   1.000  C
  C491     1.0000 0.99080  0.16920  0.18680  Biso   1.000  C
  C492     1.0000 0.01370  0.22100  0.17950  Biso   1.000  C
  C493     1.0000 0.00830  0.23700  0.27690  Biso   1.000  C
  C494     1.0000 0.98210  0.14920  0.23900  Biso   1.000  C
  C495     1.0000 0.98610  0.18380  0.28350  Biso   1.000  C
  O91      1.0000 0.00040  0.58760  0.65170  Biso   1.000  O
  O92      1.0000 0.99620  0.65200  0.58760  Biso   1.000  O
  C496     1.0000 0.99070  0.63580  0.63680  Biso   1.000  C
  C497     1.0000 0.98850  0.68830  0.66720  Biso   1.000  C
  C498     1.0000 0.98510  0.67890  0.72330  Biso   1.000  C
  C499     1.0000 0.98750  0.77640  0.73960  Biso   1.000  C
  C500     1.0000 0.98560  0.74110  0.64700  Biso   1.000  C
  C501     1.0000 0.99000  0.78500  0.68230  Biso   1.000  C
  C502     1.0000 0.99080  0.66920  0.68680  Biso   1.000  C
  C503     1.0000 0.01370  0.72100  0.67950  Biso   1.000  C
  C504     1.0000 0.00830  0.73700  0.77690  Biso   1.000  C
  C505     1.0000 0.98210  0.64920  0.73900  Biso   1.000  C
  C506     1.0000 0.98610  0.68380  0.78350  Biso   1.000  C
  O93      1.0000 0.50040  0.08760  0.65170  Biso   1.000  O
  O94      1.0000 0.49620  0.15200  0.58760  Biso   1.000  O
  C507     1.0000 0.49070  0.13580  0.63680  Biso   1.000  C
  C508     1.0000 0.48850  0.18830  0.66720  Biso   1.000  C
  C509     1.0000 0.48510  0.17890  0.72330  Biso   1.000  C
  C510     1.0000 0.48750  0.27640  0.73960  Biso   1.000  C
  C511     1.0000 0.48560  0.24110  0.64700  Biso   1.000  C
  C512     1.0000 0.49000  0.28500  0.68230  Biso   1.000  C
  C513     1.0000 0.49080  0.16920  0.68680  Biso   1.000  C
  C514     1.0000 0.51370  0.22100  0.67950  Biso   1.000  C
  C515     1.0000 0.50830  0.23700  0.77690  Biso   1.000  C
  C516     1.0000 0.48210  0.14920  0.73900  Biso   1.000  C
  C517     1.0000 0.48610  0.18380  0.78350  Biso   1.000  C
  O95      1.0000 0.50040  0.58760  0.15170  Biso   1.000  O
  O96      1.0000 0.49620  0.65200  0.08760  Biso   1.000  O
  C518     1.0000 0.49070  0.63580  0.13680  Biso   1.000  C
  C519     1.0000 0.48850  0.68830  0.16720  Biso   1.000  C
  C520     1.0000 0.48510  0.67890  0.22330  Biso   1.000  C
  C521     1.0000 0.48750  0.77640  0.23960  Biso   1.000  C
  C522     1.0000 0.48560  0.74110  0.14700  Biso   1.000  C
  C523     1.0000 0.49000  0.78500  0.18230  Biso   1.000  C
  C524     1.0000 0.49080  0.66920  0.18680  Biso   1.000  C
  C525     1.0000 0.51370  0.72100  0.17950  Biso   1.000  C
  C526     1.0000 0.50830  0.73700  0.27690  Biso   1.000  C
  C527     1.0000 0.48210  0.64920  0.23900  Biso   1.000  C
  C528     1.0000 0.48610  0.68380  0.28350  Biso   1.000  C
  U1       1.0000 0.11022  0.00000  0.00000  Biso   1.000  U
  U2       1.0000 0.11022  0.50000  0.50000  Biso   1.000  U
  U3       1.0000 0.61022  0.00000  0.50000  Biso   1.000  U
  U4       1.0000 0.61022  0.50000  0.00000  Biso   1.000  U
  U5       1.0000 0.88978  0.00000  0.00000  Biso   1.000  U
  U6       1.0000 0.88978  0.50000  0.50000  Biso   1.000  U
  U7       1.0000 0.38978  0.00000  0.50000  Biso   1.000  U
  U8       1.0000 0.38978  0.50000  0.00000  Biso   1.000  U
  U9       1.0000 0.00000  0.11022  0.00000  Biso   1.000  U
  U10      1.0000 0.00000  0.61022  0.50000  Biso   1.000  U
  U11      1.0000 0.50000  0.11022  0.50000  Biso   1.000  U
  U12      1.0000 0.50000  0.61022  0.00000  Biso   1.000  U
  U13      1.0000 0.00000  0.88978  0.00000  Biso   1.000  U
  U14      1.0000 0.00000  0.38978  0.50000  Biso   1.000  U
  U15      1.0000 0.50000  0.88978  0.50000  Biso   1.000  U
  U16      1.0000 0.50000  0.38978  0.00000  Biso   1.000  U
  U17      1.0000 0.00000  0.00000  0.11022  Biso   1.000  U
  U18      1.0000 0.00000  0.50000  0.61022  Biso   1.000  U
  U19      1.0000 0.50000  0.00000  0.61022  Biso   1.000  U
  U20      1.0000 0.50000  0.50000  0.11022  Biso   1.000  U
  U21      1.0000 0.00000  0.00000  0.88978  Biso   1.000  U
  U22      1.0000 0.00000  0.50000  0.38978  Biso   1.000  U
  U23      1.0000 0.50000  0.00000  0.38978  Biso   1.000  U
  U24      1.0000 0.50000  0.50000  0.88978  Biso   1.000  U
  O97      1.0000 0.04260  0.95740  0.04260  Biso   1.000  O
  O98      1.0000 0.04260  0.45740  0.54260  Biso   1.000  O
  O99      1.0000 0.54260  0.95740  0.54260  Biso   1.000  O
  O100     1.0000 0.54260  0.45740  0.04260  Biso   1.000  O
  O101     1.0000 0.95740  0.04260  0.04260  Biso   1.000  O
  O102     1.0000 0.95740  0.54260  0.54260  Biso   1.000  O
  O103     1.0000 0.45740  0.04260  0.54260  Biso   1.000  O
  O104     1.0000 0.45740  0.54260  0.04260  Biso   1.000  O
  O105     1.0000 0.95740  0.95740  0.95740  Biso   1.000  O
  O106     1.0000 0.95740  0.45740  0.45740  Biso   1.000  O
  O107     1.0000 0.45740  0.95740  0.45740  Biso   1.000  O
  O108     1.0000 0.45740  0.45740  0.95740  Biso   1.000  O
  O109     1.0000 0.04260  0.04260  0.95740  Biso   1.000  O
  O110     1.0000 0.04260  0.54260  0.45740  Biso   1.000  O
  O111     1.0000 0.54260  0.04260  0.45740  Biso   1.000  O
  O112     1.0000 0.54260  0.54260  0.95740  Biso   1.000  O
  O113     1.0000 0.05810  0.05810  0.05810  Biso   1.000  O
  O114     1.0000 0.05810  0.55810  0.55810  Biso   1.000  O
  O115     1.0000 0.55810  0.05810  0.55810  Biso   1.000  O
  O116     1.0000 0.55810  0.55810  0.05810  Biso   1.000  O
  O117     1.0000 0.94190  0.94190  0.05810  Biso   1.000  O
  O118     1.0000 0.94190  0.44190  0.55810  Biso   1.000  O
  O119     1.0000 0.44190  0.94190  0.55810  Biso   1.000  O
  O120     1.0000 0.44190  0.44190  0.05810  Biso   1.000  O
  O121     1.0000 0.94190  0.05810  0.94190  Biso   1.000  O
  O122     1.0000 0.94190  0.55810  0.44190  Biso   1.000  O
  O123     1.0000 0.44190  0.05810  0.44190  Biso   1.000  O
  O124     1.0000 0.44190  0.55810  0.94190  Biso   1.000  O
  O125     1.0000 0.05810  0.94190  0.94190  Biso   1.000  O
  O126     1.0000 0.05810  0.44190  0.44190  Biso   1.000  O
  O127     1.0000 0.55810  0.94190  0.44190  Biso   1.000  O
  O128     1.0000 0.55810  0.44190  0.94190  Biso   1.000  O
