data_image0
_cell_length_a       17.8737
_cell_length_b       17.8737
_cell_length_c       26.2972
_cell_angle_alpha    90
_cell_angle_beta     90
_cell_angle_gamma    90

_symmetry_space_group_name_H-M    "P 1"
_symmetry_int_tables_number       1

loop_
  _symmetry_equiv_pos_as_xyz
  'x, y, z'

loop_
  _atom_site_label
  _atom_site_occupancy
  _atom_site_fract_x
  _atom_site_fract_y
  _atom_site_fract_z
  _atom_site_thermal_displace_type
  _atom_site_B_iso_or_equiv
  _atom_site_type_symbol
  C1       1.0000 0.46700  0.69450  0.15550  Biso   1.000  C
  C2       1.0000 0.80880  0.78210  0.11590  Biso   1.000  C
  C3       1.0000 0.48940  0.64260  0.19220  Biso   1.000  C
  H1       1.0000 0.53940  0.62660  0.19410  Biso   1.000  H
  C4       1.0000 0.43620  0.61540  0.22570  Biso   1.000  C
  H2       1.0000 0.45070  0.57990  0.25010  Biso   1.000  H
  C5       1.0000 0.36220  0.63870  0.22440  Biso   1.000  C
  C6       1.0000 0.34290  0.69190  0.18740  Biso   1.000  C
  H3       1.0000 0.29310  0.70880  0.18580  Biso   1.000  H
  C7       1.0000 0.39380  0.72030  0.15330  Biso   1.000  C
  H4       1.0000 0.37940  0.75630  0.12920  Biso   1.000  H
  C8       1.0000 0.52100  0.72050  0.11580  Biso   1.000  C
  C9       1.0000 0.30510  0.60790  0.25830  Biso   1.000  C
  C10      1.0000 0.95300  0.61500  0.24020  Biso   1.000  C
  C11      1.0000 0.00710  0.64230  0.20800  Biso   1.000  C
  H5       1.0000 0.99310  0.66490  0.17710  Biso   1.000  H
  C12      1.0000 0.08100  0.63670  0.22070  Biso   1.000  C
  H6       1.0000 0.11730  0.65740  0.19890  Biso   1.000  H
  C13      1.0000 0.10360  0.60150  0.26470  Biso   1.000  C
  C14      1.0000 0.04830  0.57430  0.29900  Biso   1.000  C
  H7       1.0000 0.06200  0.55330  0.33040  Biso   1.000  H
  C15      1.0000 0.97380  0.57970  0.28490  Biso   1.000  C
  H8       1.0000 0.93670  0.55900  0.30610  Biso   1.000  H
  C16      1.0000 0.87160  0.61720  0.22700  Biso   1.000  C
  C17      1.0000 0.18370  0.59040  0.27690  Biso   1.000  C
  C18      1.0000 0.33160  0.39450  0.44980  Biso   1.000  C
  C19      1.0000 0.25740  0.40100  0.43540  Biso   1.000  C
  H9       1.0000 0.22010  0.37470  0.45320  Biso   1.000  H
  C20      1.0000 0.23820  0.44670  0.39450  Biso   1.000  C
  H10      1.0000 0.18790  0.45060  0.38440  Biso   1.000  H
  C21      1.0000 0.29290  0.48650  0.36860  Biso   1.000  C
  C22      1.0000 0.36760  0.47830  0.38310  Biso   1.000  C
  H11      1.0000 0.40520  0.50380  0.36510  Biso   1.000  H
  C23      1.0000 0.38690  0.43270  0.42380  Biso   1.000  C
  H12      1.0000 0.43730  0.42790  0.43370  Biso   1.000  H
  C24      1.0000 0.35330  0.34370  0.49290  Biso   1.000  C
  C25      1.0000 0.27190  0.53650  0.32610  Biso   1.000  C
  N1       1.0000 0.20030  0.54610  0.31730  Biso   1.000  N
  N2       1.0000 0.32770  0.56550  0.29690  Biso   1.000  N
  N3       1.0000 0.23430  0.62180  0.24660  Biso   1.000  N
  O1       1.0000 0.49520  0.75440  0.07803  Biso   1.000  O
  O2       1.0000 0.59020  0.70830  0.12318  Biso   1.000  O
  O3       1.0000 0.82180  0.82480  0.07930  Biso   1.000  O
  O4       1.0000 0.82720  0.58450  0.25497  Biso   1.000  O
  O5       1.0000 0.85440  0.65490  0.18744  Biso   1.000  O
  O6       1.0000 0.42070  0.33840  0.50414  Biso   1.000  O
  O7       1.0000 0.30090  0.31110  0.51710  Biso   1.000  O
  Zn1      1.0000 0.66334  0.74596  0.07503  Biso   1.000  Zn
  C26      1.0000 0.53300  0.30550  0.65550  Biso   1.000  C
  C27      1.0000 0.19120  0.21790  0.61590  Biso   1.000  C
  C28      1.0000 0.51060  0.35740  0.69220  Biso   1.000  C
  H13      1.0000 0.46060  0.37340  0.69410  Biso   1.000  H
  C29      1.0000 0.56380  0.38460  0.72570  Biso   1.000  C
  H14      1.0000 0.54930  0.42010  0.75010  Biso   1.000  H
  C30      1.0000 0.63780  0.36130  0.72440  Biso   1.000  C
  C31      1.0000 0.65710  0.30810  0.68740  Biso   1.000  C
  H15      1.0000 0.70690  0.29120  0.68580  Biso   1.000  H
  C32      1.0000 0.60620  0.27970  0.65330  Biso   1.000  C
  H16      1.0000 0.62060  0.24370  0.62920  Biso   1.000  H
  C33      1.0000 0.47900  0.27950  0.61580  Biso   1.000  C
  C34      1.0000 0.69490  0.39210  0.75830  Biso   1.000  C
  C35      1.0000 0.04700  0.38500  0.74020  Biso   1.000  C
  C36      1.0000 0.99290  0.35770  0.70800  Biso   1.000  C
  H17      1.0000 0.00690  0.33510  0.67710  Biso   1.000  H
  C37      1.0000 0.91900  0.36330  0.72070  Biso   1.000  C
  H18      1.0000 0.88270  0.34260  0.69890  Biso   1.000  H
  C38      1.0000 0.89640  0.39850  0.76470  Biso   1.000  C
  C39      1.0000 0.95170  0.42570  0.79900  Biso   1.000  C
  H19      1.0000 0.93800  0.44670  0.83040  Biso   1.000  H
  C40      1.0000 0.02620  0.42030  0.78490  Biso   1.000  C
  H20      1.0000 0.06330  0.44100  0.80610  Biso   1.000  H
  C41      1.0000 0.12840  0.38280  0.72700  Biso   1.000  C
  C42      1.0000 0.81630  0.40960  0.77690  Biso   1.000  C
  C43      1.0000 0.66840  0.60550  0.94980  Biso   1.000  C
  C44      1.0000 0.74260  0.59900  0.93540  Biso   1.000  C
  H21      1.0000 0.77990  0.62530  0.95320  Biso   1.000  H
  C45      1.0000 0.76180  0.55330  0.89450  Biso   1.000  C
  H22      1.0000 0.81210  0.54940  0.88440  Biso   1.000  H
  C46      1.0000 0.70710  0.51350  0.86860  Biso   1.000  C
  C47      1.0000 0.63240  0.52170  0.88310  Biso   1.000  C
  H23      1.0000 0.59480  0.49620  0.86510  Biso   1.000  H
  C48      1.0000 0.61310  0.56730  0.92380  Biso   1.000  C
  H24      1.0000 0.56270  0.57210  0.93370  Biso   1.000  H
  C49      1.0000 0.64670  0.65630  0.99290  Biso   1.000  C
  C50      1.0000 0.72810  0.46350  0.82610  Biso   1.000  C
  N4       1.0000 0.79970  0.45390  0.81730  Biso   1.000  N
  N5       1.0000 0.67230  0.43450  0.79690  Biso   1.000  N
  N6       1.0000 0.76570  0.37820  0.74660  Biso   1.000  N
  O8       1.0000 0.50480  0.24560  0.57803  Biso   1.000  O
  O9       1.0000 0.40980  0.29170  0.62318  Biso   1.000  O
  O10      1.0000 0.17820  0.17520  0.57930  Biso   1.000  O
  O11      1.0000 0.17280  0.41550  0.75497  Biso   1.000  O
  O12      1.0000 0.14560  0.34510  0.68744  Biso   1.000  O
  O13      1.0000 0.57930  0.66160  0.00414  Biso   1.000  O
  O14      1.0000 0.69910  0.68890  0.01710  Biso   1.000  O
  Zn2      1.0000 0.33666  0.25404  0.57503  Biso   1.000  Zn
  C51      1.0000 0.30550  0.46700  0.90550  Biso   1.000  C
  C52      1.0000 0.21790  0.80880  0.86590  Biso   1.000  C
  C53      1.0000 0.35740  0.48940  0.94220  Biso   1.000  C
  H25      1.0000 0.37340  0.53940  0.94410  Biso   1.000  H
  C54      1.0000 0.38460  0.43620  0.97570  Biso   1.000  C
  H26      1.0000 0.42010  0.45070  0.00010  Biso   1.000  H
  C55      1.0000 0.36130  0.36220  0.97440  Biso   1.000  C
  C56      1.0000 0.30810  0.34290  0.93740  Biso   1.000  C
  H27      1.0000 0.29120  0.29310  0.93580  Biso   1.000  H
  C57      1.0000 0.27970  0.39380  0.90330  Biso   1.000  C
  H28      1.0000 0.24370  0.37940  0.87920  Biso   1.000  H
  C58      1.0000 0.27950  0.52100  0.86580  Biso   1.000  C
  C59      1.0000 0.39210  0.30510  0.00830  Biso   1.000  C
  C60      1.0000 0.38500  0.95300  0.99020  Biso   1.000  C
  C61      1.0000 0.35770  0.00710  0.95800  Biso   1.000  C
  H29      1.0000 0.33510  0.99310  0.92710  Biso   1.000  H
  C62      1.0000 0.36330  0.08100  0.97070  Biso   1.000  C
  H30      1.0000 0.34260  0.11730  0.94890  Biso   1.000  H
  C63      1.0000 0.39850  0.10360  0.01470  Biso   1.000  C
  C64      1.0000 0.42570  0.04830  0.04900  Biso   1.000  C
  H31      1.0000 0.44670  0.06200  0.08040  Biso   1.000  H
  C65      1.0000 0.42030  0.97380  0.03490  Biso   1.000  C
  H32      1.0000 0.44100  0.93670  0.05610  Biso   1.000  H
  C66      1.0000 0.38280  0.87160  0.97700  Biso   1.000  C
  C67      1.0000 0.40960  0.18370  0.02690  Biso   1.000  C
  C68      1.0000 0.60550  0.33160  0.19980  Biso   1.000  C
  C69      1.0000 0.59900  0.25740  0.18540  Biso   1.000  C
  H33      1.0000 0.62530  0.22010  0.20320  Biso   1.000  H
  C70      1.0000 0.55330  0.23820  0.14450  Biso   1.000  C
  H34      1.0000 0.54940  0.18790  0.13440  Biso   1.000  H
  C71      1.0000 0.51350  0.29290  0.11860  Biso   1.000  C
  C72      1.0000 0.52170  0.36760  0.13310  Biso   1.000  C
  H35      1.0000 0.49620  0.40520  0.11510  Biso   1.000  H
  C73      1.0000 0.56730  0.38690  0.17380  Biso   1.000  C
  H36      1.0000 0.57210  0.43730  0.18370  Biso   1.000  H
  C74      1.0000 0.65630  0.35330  0.24290  Biso   1.000  C
  C75      1.0000 0.46350  0.27190  0.07610  Biso   1.000  C
  N7       1.0000 0.45390  0.20030  0.06730  Biso   1.000  N
  N8       1.0000 0.43450  0.32770  0.04690  Biso   1.000  N
  N9       1.0000 0.37820  0.23430  0.99660  Biso   1.000  N
  O15      1.0000 0.24560  0.49520  0.82803  Biso   1.000  O
  O16      1.0000 0.29170  0.59020  0.87318  Biso   1.000  O
  O17      1.0000 0.17520  0.82180  0.82930  Biso   1.000  O
  O18      1.0000 0.41550  0.82720  0.00497  Biso   1.000  O
  O19      1.0000 0.34510  0.85440  0.93744  Biso   1.000  O
  O20      1.0000 0.66160  0.42070  0.25414  Biso   1.000  O
  O21      1.0000 0.68890  0.30090  0.26710  Biso   1.000  O
  Zn3      1.0000 0.25404  0.66334  0.82503  Biso   1.000  Zn
  C76      1.0000 0.69450  0.53300  0.40550  Biso   1.000  C
  C77      1.0000 0.78210  0.19120  0.36590  Biso   1.000  C
  C78      1.0000 0.64260  0.51060  0.44220  Biso   1.000  C
  H37      1.0000 0.62660  0.46060  0.44410  Biso   1.000  H
  C79      1.0000 0.61540  0.56380  0.47570  Biso   1.000  C
  H38      1.0000 0.57990  0.54930  0.50010  Biso   1.000  H
  C80      1.0000 0.63870  0.63780  0.47440  Biso   1.000  C
  C81      1.0000 0.69190  0.65710  0.43740  Biso   1.000  C
  H39      1.0000 0.70880  0.70690  0.43580  Biso   1.000  H
  C82      1.0000 0.72030  0.60620  0.40330  Biso   1.000  C
  H40      1.0000 0.75630  0.62060  0.37920  Biso   1.000  H
  C83      1.0000 0.72050  0.47900  0.36580  Biso   1.000  C
  C84      1.0000 0.60790  0.69490  0.50830  Biso   1.000  C
  C85      1.0000 0.61500  0.04700  0.49020  Biso   1.000  C
  C86      1.0000 0.64230  0.99290  0.45800  Biso   1.000  C
  H41      1.0000 0.66490  0.00690  0.42710  Biso   1.000  H
  C87      1.0000 0.63670  0.91900  0.47070  Biso   1.000  C
  H42      1.0000 0.65740  0.88270  0.44890  Biso   1.000  H
  C88      1.0000 0.60150  0.89640  0.51470  Biso   1.000  C
  C89      1.0000 0.57430  0.95170  0.54900  Biso   1.000  C
  H43      1.0000 0.55330  0.93800  0.58040  Biso   1.000  H
  C90      1.0000 0.57970  0.02620  0.53490  Biso   1.000  C
  H44      1.0000 0.55900  0.06330  0.55610  Biso   1.000  H
  C91      1.0000 0.61720  0.12840  0.47700  Biso   1.000  C
  C92      1.0000 0.59040  0.81630  0.52690  Biso   1.000  C
  C93      1.0000 0.39450  0.66840  0.69980  Biso   1.000  C
  C94      1.0000 0.40100  0.74260  0.68540  Biso   1.000  C
  H45      1.0000 0.37470  0.77990  0.70320  Biso   1.000  H
  C95      1.0000 0.44670  0.76180  0.64450  Biso   1.000  C
  H46      1.0000 0.45060  0.81210  0.63440  Biso   1.000  H
  C96      1.0000 0.48650  0.70710  0.61860  Biso   1.000  C
  C97      1.0000 0.47830  0.63240  0.63310  Biso   1.000  C
  H47      1.0000 0.50380  0.59480  0.61510  Biso   1.000  H
  C98      1.0000 0.43270  0.61310  0.67380  Biso   1.000  C
  H48      1.0000 0.42790  0.56270  0.68370  Biso   1.000  H
  C99      1.0000 0.34370  0.64670  0.74290  Biso   1.000  C
  C100     1.0000 0.53650  0.72810  0.57610  Biso   1.000  C
  N10      1.0000 0.54610  0.79970  0.56730  Biso   1.000  N
  N11      1.0000 0.56550  0.67230  0.54690  Biso   1.000  N
  N12      1.0000 0.62180  0.76570  0.49660  Biso   1.000  N
  O22      1.0000 0.75440  0.50480  0.32803  Biso   1.000  O
  O23      1.0000 0.70830  0.40980  0.37318  Biso   1.000  O
  O24      1.0000 0.82480  0.17820  0.32930  Biso   1.000  O
  O25      1.0000 0.58450  0.17280  0.50497  Biso   1.000  O
  O26      1.0000 0.65490  0.14560  0.43744  Biso   1.000  O
  O27      1.0000 0.33840  0.57930  0.75414  Biso   1.000  O
  O28      1.0000 0.31110  0.69910  0.76710  Biso   1.000  O
  Zn4      1.0000 0.74596  0.33666  0.32503  Biso   1.000  Zn
  C101     1.0000 0.53300  0.69450  0.84450  Biso   1.000  C
  C102     1.0000 0.19120  0.78210  0.88410  Biso   1.000  C
  C103     1.0000 0.51060  0.64260  0.80780  Biso   1.000  C
  H49      1.0000 0.46060  0.62660  0.80590  Biso   1.000  H
  C104     1.0000 0.56380  0.61540  0.77430  Biso   1.000  C
  H50      1.0000 0.54930  0.57990  0.74990  Biso   1.000  H
  C105     1.0000 0.63780  0.63870  0.77560  Biso   1.000  C
  C106     1.0000 0.65710  0.69190  0.81260  Biso   1.000  C
  H51      1.0000 0.70690  0.70880  0.81420  Biso   1.000  H
  C107     1.0000 0.60620  0.72030  0.84670  Biso   1.000  C
  H52      1.0000 0.62060  0.75630  0.87080  Biso   1.000  H
  C108     1.0000 0.47900  0.72050  0.88420  Biso   1.000  C
  C109     1.0000 0.69490  0.60790  0.74170  Biso   1.000  C
  C110     1.0000 0.04700  0.61500  0.75980  Biso   1.000  C
  C111     1.0000 0.99290  0.64230  0.79200  Biso   1.000  C
  H53      1.0000 0.00690  0.66490  0.82290  Biso   1.000  H
  C112     1.0000 0.91900  0.63670  0.77930  Biso   1.000  C
  H54      1.0000 0.88270  0.65740  0.80110  Biso   1.000  H
  C113     1.0000 0.89640  0.60150  0.73530  Biso   1.000  C
  C114     1.0000 0.95170  0.57430  0.70100  Biso   1.000  C
  H55      1.0000 0.93800  0.55330  0.66960  Biso   1.000  H
  C115     1.0000 0.02620  0.57970  0.71510  Biso   1.000  C
  H56      1.0000 0.06330  0.55900  0.69390  Biso   1.000  H
  C116     1.0000 0.12840  0.61720  0.77300  Biso   1.000  C
  C117     1.0000 0.81630  0.59040  0.72310  Biso   1.000  C
  C118     1.0000 0.66840  0.39450  0.55020  Biso   1.000  C
  C119     1.0000 0.74260  0.40100  0.56460  Biso   1.000  C
  H57      1.0000 0.77990  0.37470  0.54680  Biso   1.000  H
  C120     1.0000 0.76180  0.44670  0.60550  Biso   1.000  C
  H58      1.0000 0.81210  0.45060  0.61560  Biso   1.000  H
  C121     1.0000 0.70710  0.48650  0.63140  Biso   1.000  C
  C122     1.0000 0.63240  0.47830  0.61690  Biso   1.000  C
  H59      1.0000 0.59480  0.50380  0.63490  Biso   1.000  H
  C123     1.0000 0.61310  0.43270  0.57620  Biso   1.000  C
  H60      1.0000 0.56270  0.42790  0.56630  Biso   1.000  H
  C124     1.0000 0.64670  0.34370  0.50710  Biso   1.000  C
  C125     1.0000 0.72810  0.53650  0.67390  Biso   1.000  C
  N13      1.0000 0.79970  0.54610  0.68270  Biso   1.000  N
  N14      1.0000 0.67230  0.56550  0.70310  Biso   1.000  N
  N15      1.0000 0.76570  0.62180  0.75340  Biso   1.000  N
  O29      1.0000 0.50480  0.75440  0.92197  Biso   1.000  O
  O30      1.0000 0.40980  0.70830  0.87682  Biso   1.000  O
  O31      1.0000 0.17820  0.82480  0.92070  Biso   1.000  O
  O32      1.0000 0.17280  0.58450  0.74503  Biso   1.000  O
  O33      1.0000 0.14560  0.65490  0.81256  Biso   1.000  O
  O34      1.0000 0.57930  0.33840  0.49586  Biso   1.000  O
  O35      1.0000 0.69910  0.31110  0.48290  Biso   1.000  O
  Zn5      1.0000 0.33666  0.74596  0.92497  Biso   1.000  Zn
  C126     1.0000 0.46700  0.30550  0.34450  Biso   1.000  C
  C127     1.0000 0.80880  0.21790  0.38410  Biso   1.000  C
  C128     1.0000 0.48940  0.35740  0.30780  Biso   1.000  C
  H61      1.0000 0.53940  0.37340  0.30590  Biso   1.000  H
  C129     1.0000 0.43620  0.38460  0.27430  Biso   1.000  C
  H62      1.0000 0.45070  0.42010  0.24990  Biso   1.000  H
  C130     1.0000 0.36220  0.36130  0.27560  Biso   1.000  C
  C131     1.0000 0.34290  0.30810  0.31260  Biso   1.000  C
  H63      1.0000 0.29310  0.29120  0.31420  Biso   1.000  H
  C132     1.0000 0.39380  0.27970  0.34670  Biso   1.000  C
  H64      1.0000 0.37940  0.24370  0.37080  Biso   1.000  H
  C133     1.0000 0.52100  0.27950  0.38420  Biso   1.000  C
  C134     1.0000 0.30510  0.39210  0.24170  Biso   1.000  C
  C135     1.0000 0.95300  0.38500  0.25980  Biso   1.000  C
  C136     1.0000 0.00710  0.35770  0.29200  Biso   1.000  C
  H65      1.0000 0.99310  0.33510  0.32290  Biso   1.000  H
  C137     1.0000 0.08100  0.36330  0.27930  Biso   1.000  C
  H66      1.0000 0.11730  0.34260  0.30110  Biso   1.000  H
  C138     1.0000 0.10360  0.39850  0.23530  Biso   1.000  C
  C139     1.0000 0.04830  0.42570  0.20100  Biso   1.000  C
  H67      1.0000 0.06200  0.44670  0.16960  Biso   1.000  H
  C140     1.0000 0.97380  0.42030  0.21510  Biso   1.000  C
  H68      1.0000 0.93670  0.44100  0.19390  Biso   1.000  H
  C141     1.0000 0.87160  0.38280  0.27300  Biso   1.000  C
  C142     1.0000 0.18370  0.40960  0.22310  Biso   1.000  C
  C143     1.0000 0.33160  0.60550  0.05020  Biso   1.000  C
  C144     1.0000 0.25740  0.59900  0.06460  Biso   1.000  C
  H69      1.0000 0.22010  0.62530  0.04680  Biso   1.000  H
  C145     1.0000 0.23820  0.55330  0.10550  Biso   1.000  C
  H70      1.0000 0.18790  0.54940  0.11560  Biso   1.000  H
  C146     1.0000 0.29290  0.51350  0.13140  Biso   1.000  C
  C147     1.0000 0.36760  0.52170  0.11690  Biso   1.000  C
  H71      1.0000 0.40520  0.49620  0.13490  Biso   1.000  H
  C148     1.0000 0.38690  0.56730  0.07620  Biso   1.000  C
  H72      1.0000 0.43730  0.57210  0.06630  Biso   1.000  H
  C149     1.0000 0.35330  0.65630  0.00710  Biso   1.000  C
  C150     1.0000 0.27190  0.46350  0.17390  Biso   1.000  C
  N16      1.0000 0.20030  0.45390  0.18270  Biso   1.000  N
  N17      1.0000 0.32770  0.43450  0.20310  Biso   1.000  N
  N18      1.0000 0.23430  0.37820  0.25340  Biso   1.000  N
  O36      1.0000 0.49520  0.24560  0.42197  Biso   1.000  O
  O37      1.0000 0.59020  0.29170  0.37682  Biso   1.000  O
  O38      1.0000 0.82180  0.17520  0.42070  Biso   1.000  O
  O39      1.0000 0.82720  0.41550  0.24503  Biso   1.000  O
  O40      1.0000 0.85440  0.34510  0.31256  Biso   1.000  O
  O41      1.0000 0.42070  0.66160  0.99586  Biso   1.000  O
  O42      1.0000 0.30090  0.68890  0.98290  Biso   1.000  O
  Zn6      1.0000 0.66334  0.25404  0.42497  Biso   1.000  Zn
  C151     1.0000 0.69450  0.46700  0.09450  Biso   1.000  C
  C152     1.0000 0.78210  0.80880  0.13410  Biso   1.000  C
  C153     1.0000 0.64260  0.48940  0.05780  Biso   1.000  C
  H73      1.0000 0.62660  0.53940  0.05590  Biso   1.000  H
  C154     1.0000 0.61540  0.43620  0.02430  Biso   1.000  C
  H74      1.0000 0.57990  0.45070  0.99990  Biso   1.000  H
  C155     1.0000 0.63870  0.36220  0.02560  Biso   1.000  C
  C156     1.0000 0.69190  0.34290  0.06260  Biso   1.000  C
  H75      1.0000 0.70880  0.29310  0.06420  Biso   1.000  H
  C157     1.0000 0.72030  0.39380  0.09670  Biso   1.000  C
  H76      1.0000 0.75630  0.37940  0.12080  Biso   1.000  H
  C158     1.0000 0.72050  0.52100  0.13420  Biso   1.000  C
  C159     1.0000 0.60790  0.30510  0.99170  Biso   1.000  C
  C160     1.0000 0.61500  0.95300  0.00980  Biso   1.000  C
  C161     1.0000 0.64230  0.00710  0.04200  Biso   1.000  C
  H77      1.0000 0.66490  0.99310  0.07290  Biso   1.000  H
  C162     1.0000 0.63670  0.08100  0.02930  Biso   1.000  C
  H78      1.0000 0.65740  0.11730  0.05110  Biso   1.000  H
  C163     1.0000 0.60150  0.10360  0.98530  Biso   1.000  C
  C164     1.0000 0.57430  0.04830  0.95100  Biso   1.000  C
  H79      1.0000 0.55330  0.06200  0.91960  Biso   1.000  H
  C165     1.0000 0.57970  0.97380  0.96510  Biso   1.000  C
  H80      1.0000 0.55900  0.93670  0.94390  Biso   1.000  H
  C166     1.0000 0.61720  0.87160  0.02300  Biso   1.000  C
  C167     1.0000 0.59040  0.18370  0.97310  Biso   1.000  C
  C168     1.0000 0.39450  0.33160  0.80020  Biso   1.000  C
  C169     1.0000 0.40100  0.25740  0.81460  Biso   1.000  C
  H81      1.0000 0.37470  0.22010  0.79680  Biso   1.000  H
  C170     1.0000 0.44670  0.23820  0.85550  Biso   1.000  C
  H82      1.0000 0.45060  0.18790  0.86560  Biso   1.000  H
  C171     1.0000 0.48650  0.29290  0.88140  Biso   1.000  C
  C172     1.0000 0.47830  0.36760  0.86690  Biso   1.000  C
  H83      1.0000 0.50380  0.40520  0.88490  Biso   1.000  H
  C173     1.0000 0.43270  0.38690  0.82620  Biso   1.000  C
  H84      1.0000 0.42790  0.43730  0.81630  Biso   1.000  H
  C174     1.0000 0.34370  0.35330  0.75710  Biso   1.000  C
  C175     1.0000 0.53650  0.27190  0.92390  Biso   1.000  C
  N19      1.0000 0.54610  0.20030  0.93270  Biso   1.000  N
  N20      1.0000 0.56550  0.32770  0.95310  Biso   1.000  N
  N21      1.0000 0.62180  0.23430  0.00340  Biso   1.000  N
  O43      1.0000 0.75440  0.49520  0.17197  Biso   1.000  O
  O44      1.0000 0.70830  0.59020  0.12682  Biso   1.000  O
  O45      1.0000 0.82480  0.82180  0.17070  Biso   1.000  O
  O46      1.0000 0.58450  0.82720  0.99503  Biso   1.000  O
  O47      1.0000 0.65490  0.85440  0.06256  Biso   1.000  O
  O48      1.0000 0.33840  0.42070  0.74586  Biso   1.000  O
  O49      1.0000 0.31110  0.30090  0.73290  Biso   1.000  O
  Zn7      1.0000 0.74596  0.66334  0.17497  Biso   1.000  Zn
  C176     1.0000 0.30550  0.53300  0.59450  Biso   1.000  C
  C177     1.0000 0.21790  0.19120  0.63410  Biso   1.000  C
  C178     1.0000 0.35740  0.51060  0.55780  Biso   1.000  C
  H85      1.0000 0.37340  0.46060  0.55590  Biso   1.000  H
  C179     1.0000 0.38460  0.56380  0.52430  Biso   1.000  C
  H86      1.0000 0.42010  0.54930  0.49990  Biso   1.000  H
  C180     1.0000 0.36130  0.63780  0.52560  Biso   1.000  C
  C181     1.0000 0.30810  0.65710  0.56260  Biso   1.000  C
  H87      1.0000 0.29120  0.70690  0.56420  Biso   1.000  H
  C182     1.0000 0.27970  0.60620  0.59670  Biso   1.000  C
  H88      1.0000 0.24370  0.62060  0.62080  Biso   1.000  H
  C183     1.0000 0.27950  0.47900  0.63420  Biso   1.000  C
  C184     1.0000 0.39210  0.69490  0.49170  Biso   1.000  C
  C185     1.0000 0.38500  0.04700  0.50980  Biso   1.000  C
  C186     1.0000 0.35770  0.99290  0.54200  Biso   1.000  C
  H89      1.0000 0.33510  0.00690  0.57290  Biso   1.000  H
  C187     1.0000 0.36330  0.91900  0.52930  Biso   1.000  C
  H90      1.0000 0.34260  0.88270  0.55110  Biso   1.000  H
  C188     1.0000 0.39850  0.89640  0.48530  Biso   1.000  C
  C189     1.0000 0.42570  0.95170  0.45100  Biso   1.000  C
  H91      1.0000 0.44670  0.93800  0.41960  Biso   1.000  H
  C190     1.0000 0.42030  0.02620  0.46510  Biso   1.000  C
  H92      1.0000 0.44100  0.06330  0.44390  Biso   1.000  H
  C191     1.0000 0.38280  0.12840  0.52300  Biso   1.000  C
  C192     1.0000 0.40960  0.81630  0.47310  Biso   1.000  C
  C193     1.0000 0.60550  0.66840  0.30020  Biso   1.000  C
  C194     1.0000 0.59900  0.74260  0.31460  Biso   1.000  C
  H93      1.0000 0.62530  0.77990  0.29680  Biso   1.000  H
  C195     1.0000 0.55330  0.76180  0.35550  Biso   1.000  C
  H94      1.0000 0.54940  0.81210  0.36560  Biso   1.000  H
  C196     1.0000 0.51350  0.70710  0.38140  Biso   1.000  C
  C197     1.0000 0.52170  0.63240  0.36690  Biso   1.000  C
  H95      1.0000 0.49620  0.59480  0.38490  Biso   1.000  H
  C198     1.0000 0.56730  0.61310  0.32620  Biso   1.000  C
  H96      1.0000 0.57210  0.56270  0.31630  Biso   1.000  H
  C199     1.0000 0.65630  0.64670  0.25710  Biso   1.000  C
  C200     1.0000 0.46350  0.72810  0.42390  Biso   1.000  C
  N22      1.0000 0.45390  0.79970  0.43270  Biso   1.000  N
  N23      1.0000 0.43450  0.67230  0.45310  Biso   1.000  N
  N24      1.0000 0.37820  0.76570  0.50340  Biso   1.000  N
  O50      1.0000 0.24560  0.50480  0.67197  Biso   1.000  O
  O51      1.0000 0.29170  0.40980  0.62682  Biso   1.000  O
  O52      1.0000 0.17520  0.17820  0.67070  Biso   1.000  O
  O53      1.0000 0.41550  0.17280  0.49503  Biso   1.000  O
  O54      1.0000 0.34510  0.14560  0.56256  Biso   1.000  O
  O55      1.0000 0.66160  0.57930  0.24586  Biso   1.000  O
  O56      1.0000 0.68890  0.69910  0.23290  Biso   1.000  O
  Zn8      1.0000 0.25404  0.33666  0.67497  Biso   1.000  Zn
  O57      1.0000 0.74750  0.74750  0.12500  Biso   1.000  O
  O58      1.0000 0.25250  0.25250  0.62500  Biso   1.000  O
  O59      1.0000 0.25250  0.74750  0.87500  Biso   1.000  O
  O60      1.0000 0.74750  0.25250  0.37500  Biso   1.000  O
  Zn9      1.0000 0.50000  0.74718  0.00000  Biso   1.000  Zn
  Zn10     1.0000 0.50000  0.25282  0.50000  Biso   1.000  Zn
  Zn11     1.0000 0.25282  0.50000  0.75000  Biso   1.000  Zn
  Zn12     1.0000 0.74718  0.50000  0.25000  Biso   1.000  Zn
