data_image0
_cell_length_a       28.0614
_cell_length_b       30.0942
_cell_length_c       30.0947
_cell_angle_alpha    90
_cell_angle_beta     90
_cell_angle_gamma    90

_symmetry_space_group_name_H-M    "P 1"
_symmetry_int_tables_number       1

loop_
  _symmetry_equiv_pos_as_xyz
  'x, y, z'

loop_
  _atom_site_label
  _atom_site_occupancy
  _atom_site_fract_x
  _atom_site_fract_y
  _atom_site_fract_z
  _atom_site_thermal_displace_type
  _atom_site_B_iso_or_equiv
  _atom_site_type_symbol
  O1       1.0000 0.97800  0.93570  0.20990  Biso   1.000  O
  O2       1.0000 0.93660  0.97680  0.21370  Biso   1.000  O
  C1       1.0000 0.98270  0.91600  0.24860  Biso   1.000  C
  C2       1.0000 0.97680  0.86880  0.25100  Biso   1.000  C
  C3       1.0000 0.91660  0.98430  0.25240  Biso   1.000  C
  C4       1.0000 0.86490  0.97920  0.25110  Biso   1.000  C
  C5       1.0000 0.96640  0.77060  0.25120  Biso   1.000  C
  C6       1.0000 0.94730  0.80150  0.21710  Biso   1.000  C
  C7       1.0000 0.84700  0.95600  0.21440  Biso   1.000  C
  O3       1.0000 0.89900  0.74440  0.18540  Biso   1.000  O
  O4       1.0000 0.93650  0.80490  0.15290  Biso   1.000  O
  N1       1.0000 0.91610  0.78470  0.17930  Biso   1.000  N
  C8       1.0000 0.80200  0.95130  0.21560  Biso   1.000  C
  C9       1.0000 0.77870  0.96930  0.25200  Biso   1.000  C
  C10      1.0000 0.95040  0.84780  0.21480  Biso   1.000  C
  O5       1.0000 0.97800  0.43570  0.70990  Biso   1.000  O
  O6       1.0000 0.93660  0.47680  0.71370  Biso   1.000  O
  C11      1.0000 0.98270  0.41600  0.74860  Biso   1.000  C
  C12      1.0000 0.97680  0.36880  0.75100  Biso   1.000  C
  C13      1.0000 0.91660  0.48430  0.75240  Biso   1.000  C
  C14      1.0000 0.86490  0.47920  0.75110  Biso   1.000  C
  C15      1.0000 0.96640  0.27060  0.75120  Biso   1.000  C
  C16      1.0000 0.94730  0.30150  0.71710  Biso   1.000  C
  C17      1.0000 0.84700  0.45600  0.71440  Biso   1.000  C
  O7       1.0000 0.89900  0.24440  0.68540  Biso   1.000  O
  O8       1.0000 0.93650  0.30490  0.65290  Biso   1.000  O
  N2       1.0000 0.91610  0.28470  0.67930  Biso   1.000  N
  C18      1.0000 0.80200  0.45130  0.71560  Biso   1.000  C
  C19      1.0000 0.77870  0.46930  0.75200  Biso   1.000  C
  C20      1.0000 0.95040  0.34780  0.71480  Biso   1.000  C
  O9       1.0000 0.47800  0.93570  0.70990  Biso   1.000  O
  O10      1.0000 0.43660  0.97680  0.71370  Biso   1.000  O
  C21      1.0000 0.48270  0.91600  0.74860  Biso   1.000  C
  C22      1.0000 0.47680  0.86880  0.75100  Biso   1.000  C
  C23      1.0000 0.41660  0.98430  0.75240  Biso   1.000  C
  C24      1.0000 0.36490  0.97920  0.75110  Biso   1.000  C
  C25      1.0000 0.46640  0.77060  0.75120  Biso   1.000  C
  C26      1.0000 0.44730  0.80150  0.71710  Biso   1.000  C
  C27      1.0000 0.34700  0.95600  0.71440  Biso   1.000  C
  O11      1.0000 0.39900  0.74440  0.68540  Biso   1.000  O
  O12      1.0000 0.43650  0.80490  0.65290  Biso   1.000  O
  N3       1.0000 0.41610  0.78470  0.67930  Biso   1.000  N
  C28      1.0000 0.30200  0.95130  0.71560  Biso   1.000  C
  C29      1.0000 0.27870  0.96930  0.75200  Biso   1.000  C
  C30      1.0000 0.45040  0.84780  0.71480  Biso   1.000  C
  O13      1.0000 0.47800  0.43570  0.20990  Biso   1.000  O
  O14      1.0000 0.43660  0.47680  0.21370  Biso   1.000  O
  C31      1.0000 0.48270  0.41600  0.24860  Biso   1.000  C
  C32      1.0000 0.47680  0.36880  0.25100  Biso   1.000  C
  C33      1.0000 0.41660  0.48430  0.25240  Biso   1.000  C
  C34      1.0000 0.36490  0.47920  0.25110  Biso   1.000  C
  C35      1.0000 0.46640  0.27060  0.25120  Biso   1.000  C
  C36      1.0000 0.44730  0.30150  0.21710  Biso   1.000  C
  C37      1.0000 0.34700  0.45600  0.21440  Biso   1.000  C
  O15      1.0000 0.39900  0.24440  0.18540  Biso   1.000  O
  O16      1.0000 0.43650  0.30490  0.15290  Biso   1.000  O
  N4       1.0000 0.41610  0.28470  0.17930  Biso   1.000  N
  C38      1.0000 0.30200  0.45130  0.21560  Biso   1.000  C
  C39      1.0000 0.27870  0.46930  0.25200  Biso   1.000  C
  C40      1.0000 0.45040  0.34780  0.21480  Biso   1.000  C
  O17      1.0000 0.02200  0.06430  0.20990  Biso   1.000  O
  O18      1.0000 0.06340  0.02320  0.21370  Biso   1.000  O
  C41      1.0000 0.01730  0.08400  0.24860  Biso   1.000  C
  C42      1.0000 0.02320  0.13120  0.25100  Biso   1.000  C
  C43      1.0000 0.08340  0.01570  0.25240  Biso   1.000  C
  C44      1.0000 0.13510  0.02080  0.25110  Biso   1.000  C
  C45      1.0000 0.03360  0.22940  0.25120  Biso   1.000  C
  C46      1.0000 0.05270  0.19850  0.21710  Biso   1.000  C
  C47      1.0000 0.15300  0.04400  0.21440  Biso   1.000  C
  O19      1.0000 0.10100  0.25560  0.18540  Biso   1.000  O
  O20      1.0000 0.06350  0.19510  0.15290  Biso   1.000  O
  N5       1.0000 0.08390  0.21530  0.17930  Biso   1.000  N
  C48      1.0000 0.19800  0.04870  0.21560  Biso   1.000  C
  C49      1.0000 0.22130  0.03070  0.25200  Biso   1.000  C
  C50      1.0000 0.04960  0.15220  0.21480  Biso   1.000  C
  O21      1.0000 0.02200  0.56430  0.70990  Biso   1.000  O
  O22      1.0000 0.06340  0.52320  0.71370  Biso   1.000  O
  C51      1.0000 0.01730  0.58400  0.74860  Biso   1.000  C
  C52      1.0000 0.02320  0.63120  0.75100  Biso   1.000  C
  C53      1.0000 0.08340  0.51570  0.75240  Biso   1.000  C
  C54      1.0000 0.13510  0.52080  0.75110  Biso   1.000  C
  C55      1.0000 0.03360  0.72940  0.75120  Biso   1.000  C
  C56      1.0000 0.05270  0.69850  0.71710  Biso   1.000  C
  C57      1.0000 0.15300  0.54400  0.71440  Biso   1.000  C
  O23      1.0000 0.10100  0.75560  0.68540  Biso   1.000  O
  O24      1.0000 0.06350  0.69510  0.65290  Biso   1.000  O
  N6       1.0000 0.08390  0.71530  0.67930  Biso   1.000  N
  C58      1.0000 0.19800  0.54870  0.71560  Biso   1.000  C
  C59      1.0000 0.22130  0.53070  0.75200  Biso   1.000  C
  C60      1.0000 0.04960  0.65220  0.71480  Biso   1.000  C
  O25      1.0000 0.52200  0.06430  0.70990  Biso   1.000  O
  O26      1.0000 0.56340  0.02320  0.71370  Biso   1.000  O
  C61      1.0000 0.51730  0.08400  0.74860  Biso   1.000  C
  C62      1.0000 0.52320  0.13120  0.75100  Biso   1.000  C
  C63      1.0000 0.58340  0.01570  0.75240  Biso   1.000  C
  C64      1.0000 0.63510  0.02080  0.75110  Biso   1.000  C
  C65      1.0000 0.53360  0.22940  0.75120  Biso   1.000  C
  C66      1.0000 0.55270  0.19850  0.71710  Biso   1.000  C
  C67      1.0000 0.65300  0.04400  0.71440  Biso   1.000  C
  O27      1.0000 0.60100  0.25560  0.68540  Biso   1.000  O
  O28      1.0000 0.56350  0.19510  0.65290  Biso   1.000  O
  N7       1.0000 0.58390  0.21530  0.67930  Biso   1.000  N
  C68      1.0000 0.69800  0.04870  0.71560  Biso   1.000  C
  C69      1.0000 0.72130  0.03070  0.75200  Biso   1.000  C
  C70      1.0000 0.54960  0.15220  0.71480  Biso   1.000  C
  O29      1.0000 0.52200  0.56430  0.20990  Biso   1.000  O
  O30      1.0000 0.56340  0.52320  0.21370  Biso   1.000  O
  C71      1.0000 0.51730  0.58400  0.24860  Biso   1.000  C
  C72      1.0000 0.52320  0.63120  0.25100  Biso   1.000  C
  C73      1.0000 0.58340  0.51570  0.25240  Biso   1.000  C
  C74      1.0000 0.63510  0.52080  0.25110  Biso   1.000  C
  C75      1.0000 0.53360  0.72940  0.25120  Biso   1.000  C
  C76      1.0000 0.55270  0.69850  0.21710  Biso   1.000  C
  C77      1.0000 0.65300  0.54400  0.21440  Biso   1.000  C
  O31      1.0000 0.60100  0.75560  0.18540  Biso   1.000  O
  O32      1.0000 0.56350  0.69510  0.15290  Biso   1.000  O
  N8       1.0000 0.58390  0.71530  0.17930  Biso   1.000  N
  C78      1.0000 0.69800  0.54870  0.21560  Biso   1.000  C
  C79      1.0000 0.72130  0.53070  0.25200  Biso   1.000  C
  C80      1.0000 0.54960  0.65220  0.21480  Biso   1.000  C
  O33      1.0000 0.02200  0.93570  0.79010  Biso   1.000  O
  O34      1.0000 0.06340  0.97680  0.78630  Biso   1.000  O
  C81      1.0000 0.01730  0.91600  0.75140  Biso   1.000  C
  C82      1.0000 0.02320  0.86880  0.74900  Biso   1.000  C
  C83      1.0000 0.08340  0.98430  0.74760  Biso   1.000  C
  C84      1.0000 0.13510  0.97920  0.74890  Biso   1.000  C
  C85      1.0000 0.03360  0.77060  0.74880  Biso   1.000  C
  C86      1.0000 0.05270  0.80150  0.78290  Biso   1.000  C
  C87      1.0000 0.15300  0.95600  0.78560  Biso   1.000  C
  O35      1.0000 0.10100  0.74440  0.81460  Biso   1.000  O
  O36      1.0000 0.06350  0.80490  0.84710  Biso   1.000  O
  N9       1.0000 0.08390  0.78470  0.82070  Biso   1.000  N
  C88      1.0000 0.19800  0.95130  0.78440  Biso   1.000  C
  C89      1.0000 0.22130  0.96930  0.74800  Biso   1.000  C
  C90      1.0000 0.04960  0.84780  0.78520  Biso   1.000  C
  O37      1.0000 0.02200  0.43570  0.29010  Biso   1.000  O
  O38      1.0000 0.06340  0.47680  0.28630  Biso   1.000  O
  C91      1.0000 0.01730  0.41600  0.25140  Biso   1.000  C
  C92      1.0000 0.02320  0.36880  0.24900  Biso   1.000  C
  C93      1.0000 0.08340  0.48430  0.24760  Biso   1.000  C
  C94      1.0000 0.13510  0.47920  0.24890  Biso   1.000  C
  C95      1.0000 0.03360  0.27060  0.24880  Biso   1.000  C
  C96      1.0000 0.05270  0.30150  0.28290  Biso   1.000  C
  C97      1.0000 0.15300  0.45600  0.28560  Biso   1.000  C
  O39      1.0000 0.10100  0.24440  0.31460  Biso   1.000  O
  O40      1.0000 0.06350  0.30490  0.34710  Biso   1.000  O
  N10      1.0000 0.08390  0.28470  0.32070  Biso   1.000  N
  C98      1.0000 0.19800  0.45130  0.28440  Biso   1.000  C
  C99      1.0000 0.22130  0.46930  0.24800  Biso   1.000  C
  C100     1.0000 0.04960  0.34780  0.28520  Biso   1.000  C
  O41      1.0000 0.52200  0.93570  0.29010  Biso   1.000  O
  O42      1.0000 0.56340  0.97680  0.28630  Biso   1.000  O
  C101     1.0000 0.51730  0.91600  0.25140  Biso   1.000  C
  C102     1.0000 0.52320  0.86880  0.24900  Biso   1.000  C
  C103     1.0000 0.58340  0.98430  0.24760  Biso   1.000  C
  C104     1.0000 0.63510  0.97920  0.24890  Biso   1.000  C
  C105     1.0000 0.53360  0.77060  0.24880  Biso   1.000  C
  C106     1.0000 0.55270  0.80150  0.28290  Biso   1.000  C
  C107     1.0000 0.65300  0.95600  0.28560  Biso   1.000  C
  O43      1.0000 0.60100  0.74440  0.31460  Biso   1.000  O
  O44      1.0000 0.56350  0.80490  0.34710  Biso   1.000  O
  N11      1.0000 0.58390  0.78470  0.32070  Biso   1.000  N
  C108     1.0000 0.69800  0.95130  0.28440  Biso   1.000  C
  C109     1.0000 0.72130  0.96930  0.24800  Biso   1.000  C
  C110     1.0000 0.54960  0.84780  0.28520  Biso   1.000  C
  O45      1.0000 0.52200  0.43570  0.79010  Biso   1.000  O
  O46      1.0000 0.56340  0.47680  0.78630  Biso   1.000  O
  C111     1.0000 0.51730  0.41600  0.75140  Biso   1.000  C
  C112     1.0000 0.52320  0.36880  0.74900  Biso   1.000  C
  C113     1.0000 0.58340  0.48430  0.74760  Biso   1.000  C
  C114     1.0000 0.63510  0.47920  0.74890  Biso   1.000  C
  C115     1.0000 0.53360  0.27060  0.74880  Biso   1.000  C
  C116     1.0000 0.55270  0.30150  0.78290  Biso   1.000  C
  C117     1.0000 0.65300  0.45600  0.78560  Biso   1.000  C
  O47      1.0000 0.60100  0.24440  0.81460  Biso   1.000  O
  O48      1.0000 0.56350  0.30490  0.84710  Biso   1.000  O
  N12      1.0000 0.58390  0.28470  0.82070  Biso   1.000  N
  C118     1.0000 0.69800  0.45130  0.78440  Biso   1.000  C
  C119     1.0000 0.72130  0.46930  0.74800  Biso   1.000  C
  C120     1.0000 0.54960  0.34780  0.78520  Biso   1.000  C
  O49      1.0000 0.97800  0.06430  0.79010  Biso   1.000  O
  O50      1.0000 0.93660  0.02320  0.78630  Biso   1.000  O
  C121     1.0000 0.98270  0.08400  0.75140  Biso   1.000  C
  C122     1.0000 0.97680  0.13120  0.74900  Biso   1.000  C
  C123     1.0000 0.91660  0.01570  0.74760  Biso   1.000  C
  C124     1.0000 0.86490  0.02080  0.74890  Biso   1.000  C
  C125     1.0000 0.96640  0.22940  0.74880  Biso   1.000  C
  C126     1.0000 0.94730  0.19850  0.78290  Biso   1.000  C
  C127     1.0000 0.84700  0.04400  0.78560  Biso   1.000  C
  O51      1.0000 0.89900  0.25560  0.81460  Biso   1.000  O
  O52      1.0000 0.93650  0.19510  0.84710  Biso   1.000  O
  N13      1.0000 0.91610  0.21530  0.82070  Biso   1.000  N
  C128     1.0000 0.80200  0.04870  0.78440  Biso   1.000  C
  C129     1.0000 0.77870  0.03070  0.74800  Biso   1.000  C
  C130     1.0000 0.95040  0.15220  0.78520  Biso   1.000  C
  O53      1.0000 0.97800  0.56430  0.29010  Biso   1.000  O
  O54      1.0000 0.93660  0.52320  0.28630  Biso   1.000  O
  C131     1.0000 0.98270  0.58400  0.25140  Biso   1.000  C
  C132     1.0000 0.97680  0.63120  0.24900  Biso   1.000  C
  C133     1.0000 0.91660  0.51570  0.24760  Biso   1.000  C
  C134     1.0000 0.86490  0.52080  0.24890  Biso   1.000  C
  C135     1.0000 0.96640  0.72940  0.24880  Biso   1.000  C
  C136     1.0000 0.94730  0.69850  0.28290  Biso   1.000  C
  C137     1.0000 0.84700  0.54400  0.28560  Biso   1.000  C
  O55      1.0000 0.89900  0.75560  0.31460  Biso   1.000  O
  O56      1.0000 0.93650  0.69510  0.34710  Biso   1.000  O
  N14      1.0000 0.91610  0.71530  0.32070  Biso   1.000  N
  C138     1.0000 0.80200  0.54870  0.28440  Biso   1.000  C
  C139     1.0000 0.77870  0.53070  0.24800  Biso   1.000  C
  C140     1.0000 0.95040  0.65220  0.28520  Biso   1.000  C
  O57      1.0000 0.47800  0.06430  0.29010  Biso   1.000  O
  O58      1.0000 0.43660  0.02320  0.28630  Biso   1.000  O
  C141     1.0000 0.48270  0.08400  0.25140  Biso   1.000  C
  C142     1.0000 0.47680  0.13120  0.24900  Biso   1.000  C
  C143     1.0000 0.41660  0.01570  0.24760  Biso   1.000  C
  C144     1.0000 0.36490  0.02080  0.24890  Biso   1.000  C
  C145     1.0000 0.46640  0.22940  0.24880  Biso   1.000  C
  C146     1.0000 0.44730  0.19850  0.28290  Biso   1.000  C
  C147     1.0000 0.34700  0.04400  0.28560  Biso   1.000  C
  O59      1.0000 0.39900  0.25560  0.31460  Biso   1.000  O
  O60      1.0000 0.43650  0.19510  0.34710  Biso   1.000  O
  N15      1.0000 0.41610  0.21530  0.32070  Biso   1.000  N
  C148     1.0000 0.30200  0.04870  0.28440  Biso   1.000  C
  C149     1.0000 0.27870  0.03070  0.24800  Biso   1.000  C
  C150     1.0000 0.45040  0.15220  0.28520  Biso   1.000  C
  O61      1.0000 0.47800  0.56430  0.79010  Biso   1.000  O
  O62      1.0000 0.43660  0.52320  0.78630  Biso   1.000  O
  C151     1.0000 0.48270  0.58400  0.75140  Biso   1.000  C
  C152     1.0000 0.47680  0.63120  0.74900  Biso   1.000  C
  C153     1.0000 0.41660  0.51570  0.74760  Biso   1.000  C
  C154     1.0000 0.36490  0.52080  0.74890  Biso   1.000  C
  C155     1.0000 0.46640  0.72940  0.74880  Biso   1.000  C
  C156     1.0000 0.44730  0.69850  0.78290  Biso   1.000  C
  C157     1.0000 0.34700  0.54400  0.78560  Biso   1.000  C
  O63      1.0000 0.39900  0.75560  0.81460  Biso   1.000  O
  O64      1.0000 0.43650  0.69510  0.84710  Biso   1.000  O
  N16      1.0000 0.41610  0.71530  0.82070  Biso   1.000  N
  C158     1.0000 0.30200  0.54870  0.78440  Biso   1.000  C
  C159     1.0000 0.27870  0.53070  0.74800  Biso   1.000  C
  C160     1.0000 0.45040  0.65220  0.78520  Biso   1.000  C
  O65      1.0000 0.02200  0.06430  0.79010  Biso   1.000  O
  O66      1.0000 0.06340  0.02320  0.78630  Biso   1.000  O
  C161     1.0000 0.01730  0.08400  0.75140  Biso   1.000  C
  C162     1.0000 0.02320  0.13120  0.74900  Biso   1.000  C
  C163     1.0000 0.08340  0.01570  0.74760  Biso   1.000  C
  C164     1.0000 0.13510  0.02080  0.74890  Biso   1.000  C
  C165     1.0000 0.03360  0.22940  0.74880  Biso   1.000  C
  C166     1.0000 0.05270  0.19850  0.78290  Biso   1.000  C
  C167     1.0000 0.15300  0.04400  0.78560  Biso   1.000  C
  O67      1.0000 0.10100  0.25560  0.81460  Biso   1.000  O
  O68      1.0000 0.06350  0.19510  0.84710  Biso   1.000  O
  N17      1.0000 0.08390  0.21530  0.82070  Biso   1.000  N
  C168     1.0000 0.19800  0.04870  0.78440  Biso   1.000  C
  C169     1.0000 0.22130  0.03070  0.74800  Biso   1.000  C
  C170     1.0000 0.04960  0.15220  0.78520  Biso   1.000  C
  O69      1.0000 0.02200  0.56430  0.29010  Biso   1.000  O
  O70      1.0000 0.06340  0.52320  0.28630  Biso   1.000  O
  C171     1.0000 0.01730  0.58400  0.25140  Biso   1.000  C
  C172     1.0000 0.02320  0.63120  0.24900  Biso   1.000  C
  C173     1.0000 0.08340  0.51570  0.24760  Biso   1.000  C
  C174     1.0000 0.13510  0.52080  0.24890  Biso   1.000  C
  C175     1.0000 0.03360  0.72940  0.24880  Biso   1.000  C
  C176     1.0000 0.05270  0.69850  0.28290  Biso   1.000  C
  C177     1.0000 0.15300  0.54400  0.28560  Biso   1.000  C
  O71      1.0000 0.10100  0.75560  0.31460  Biso   1.000  O
  O72      1.0000 0.06350  0.69510  0.34710  Biso   1.000  O
  N18      1.0000 0.08390  0.71530  0.32070  Biso   1.000  N
  C178     1.0000 0.19800  0.54870  0.28440  Biso   1.000  C
  C179     1.0000 0.22130  0.53070  0.24800  Biso   1.000  C
  C180     1.0000 0.04960  0.65220  0.28520  Biso   1.000  C
  O73      1.0000 0.52200  0.06430  0.29010  Biso   1.000  O
  O74      1.0000 0.56340  0.02320  0.28630  Biso   1.000  O
  C181     1.0000 0.51730  0.08400  0.25140  Biso   1.000  C
  C182     1.0000 0.52320  0.13120  0.24900  Biso   1.000  C
  C183     1.0000 0.58340  0.01570  0.24760  Biso   1.000  C
  C184     1.0000 0.63510  0.02080  0.24890  Biso   1.000  C
  C185     1.0000 0.53360  0.22940  0.24880  Biso   1.000  C
  C186     1.0000 0.55270  0.19850  0.28290  Biso   1.000  C
  C187     1.0000 0.65300  0.04400  0.28560  Biso   1.000  C
  O75      1.0000 0.60100  0.25560  0.31460  Biso   1.000  O
  O76      1.0000 0.56350  0.19510  0.34710  Biso   1.000  O
  N19      1.0000 0.58390  0.21530  0.32070  Biso   1.000  N
  C188     1.0000 0.69800  0.04870  0.28440  Biso   1.000  C
  C189     1.0000 0.72130  0.03070  0.24800  Biso   1.000  C
  C190     1.0000 0.54960  0.15220  0.28520  Biso   1.000  C
  O77      1.0000 0.52200  0.56430  0.79010  Biso   1.000  O
  O78      1.0000 0.56340  0.52320  0.78630  Biso   1.000  O
  C191     1.0000 0.51730  0.58400  0.75140  Biso   1.000  C
  C192     1.0000 0.52320  0.63120  0.74900  Biso   1.000  C
  C193     1.0000 0.58340  0.51570  0.74760  Biso   1.000  C
  C194     1.0000 0.63510  0.52080  0.74890  Biso   1.000  C
  C195     1.0000 0.53360  0.72940  0.74880  Biso   1.000  C
  C196     1.0000 0.55270  0.69850  0.78290  Biso   1.000  C
  C197     1.0000 0.65300  0.54400  0.78560  Biso   1.000  C
  O79      1.0000 0.60100  0.75560  0.81460  Biso   1.000  O
  O80      1.0000 0.56350  0.69510  0.84710  Biso   1.000  O
  N20      1.0000 0.58390  0.71530  0.82070  Biso   1.000  N
  C198     1.0000 0.69800  0.54870  0.78440  Biso   1.000  C
  C199     1.0000 0.72130  0.53070  0.74800  Biso   1.000  C
  C200     1.0000 0.54960  0.65220  0.78520  Biso   1.000  C
  O81      1.0000 0.97800  0.93570  0.79010  Biso   1.000  O
  O82      1.0000 0.93660  0.97680  0.78630  Biso   1.000  O
  C201     1.0000 0.98270  0.91600  0.75140  Biso   1.000  C
  C202     1.0000 0.97680  0.86880  0.74900  Biso   1.000  C
  C203     1.0000 0.91660  0.98430  0.74760  Biso   1.000  C
  C204     1.0000 0.86490  0.97920  0.74890  Biso   1.000  C
  C205     1.0000 0.96640  0.77060  0.74880  Biso   1.000  C
  C206     1.0000 0.94730  0.80150  0.78290  Biso   1.000  C
  C207     1.0000 0.84700  0.95600  0.78560  Biso   1.000  C
  O83      1.0000 0.89900  0.74440  0.81460  Biso   1.000  O
  O84      1.0000 0.93650  0.80490  0.84710  Biso   1.000  O
  N21      1.0000 0.91610  0.78470  0.82070  Biso   1.000  N
  C208     1.0000 0.80200  0.95130  0.78440  Biso   1.000  C
  C209     1.0000 0.77870  0.96930  0.74800  Biso   1.000  C
  C210     1.0000 0.95040  0.84780  0.78520  Biso   1.000  C
  O85      1.0000 0.97800  0.43570  0.29010  Biso   1.000  O
  O86      1.0000 0.93660  0.47680  0.28630  Biso   1.000  O
  C211     1.0000 0.98270  0.41600  0.25140  Biso   1.000  C
  C212     1.0000 0.97680  0.36880  0.24900  Biso   1.000  C
  C213     1.0000 0.91660  0.48430  0.24760  Biso   1.000  C
  C214     1.0000 0.86490  0.47920  0.24890  Biso   1.000  C
  C215     1.0000 0.96640  0.27060  0.24880  Biso   1.000  C
  C216     1.0000 0.94730  0.30150  0.28290  Biso   1.000  C
  C217     1.0000 0.84700  0.45600  0.28560  Biso   1.000  C
  O87      1.0000 0.89900  0.24440  0.31460  Biso   1.000  O
  O88      1.0000 0.93650  0.30490  0.34710  Biso   1.000  O
  N22      1.0000 0.91610  0.28470  0.32070  Biso   1.000  N
  C218     1.0000 0.80200  0.45130  0.28440  Biso   1.000  C
  C219     1.0000 0.77870  0.46930  0.24800  Biso   1.000  C
  C220     1.0000 0.95040  0.34780  0.28520  Biso   1.000  C
  O89      1.0000 0.47800  0.93570  0.29010  Biso   1.000  O
  O90      1.0000 0.43660  0.97680  0.28630  Biso   1.000  O
  C221     1.0000 0.48270  0.91600  0.25140  Biso   1.000  C
  C222     1.0000 0.47680  0.86880  0.24900  Biso   1.000  C
  C223     1.0000 0.41660  0.98430  0.24760  Biso   1.000  C
  C224     1.0000 0.36490  0.97920  0.24890  Biso   1.000  C
  C225     1.0000 0.46640  0.77060  0.24880  Biso   1.000  C
  C226     1.0000 0.44730  0.80150  0.28290  Biso   1.000  C
  C227     1.0000 0.34700  0.95600  0.28560  Biso   1.000  C
  O91      1.0000 0.39900  0.74440  0.31460  Biso   1.000  O
  O92      1.0000 0.43650  0.80490  0.34710  Biso   1.000  O
  N23      1.0000 0.41610  0.78470  0.32070  Biso   1.000  N
  C228     1.0000 0.30200  0.95130  0.28440  Biso   1.000  C
  C229     1.0000 0.27870  0.96930  0.24800  Biso   1.000  C
  C230     1.0000 0.45040  0.84780  0.28520  Biso   1.000  C
  O93      1.0000 0.47800  0.43570  0.79010  Biso   1.000  O
  O94      1.0000 0.43660  0.47680  0.78630  Biso   1.000  O
  C231     1.0000 0.48270  0.41600  0.75140  Biso   1.000  C
  C232     1.0000 0.47680  0.36880  0.74900  Biso   1.000  C
  C233     1.0000 0.41660  0.48430  0.74760  Biso   1.000  C
  C234     1.0000 0.36490  0.47920  0.74890  Biso   1.000  C
  C235     1.0000 0.46640  0.27060  0.74880  Biso   1.000  C
  C236     1.0000 0.44730  0.30150  0.78290  Biso   1.000  C
  C237     1.0000 0.34700  0.45600  0.78560  Biso   1.000  C
  O95      1.0000 0.39900  0.24440  0.81460  Biso   1.000  O
  O96      1.0000 0.43650  0.30490  0.84710  Biso   1.000  O
  N24      1.0000 0.41610  0.28470  0.82070  Biso   1.000  N
  C238     1.0000 0.30200  0.45130  0.78440  Biso   1.000  C
  C239     1.0000 0.27870  0.46930  0.74800  Biso   1.000  C
  C240     1.0000 0.45040  0.34780  0.78520  Biso   1.000  C
  O97      1.0000 0.97800  0.06430  0.20990  Biso   1.000  O
  O98      1.0000 0.93660  0.02320  0.21370  Biso   1.000  O
  C241     1.0000 0.98270  0.08400  0.24860  Biso   1.000  C
  C242     1.0000 0.97680  0.13120  0.25100  Biso   1.000  C
  C243     1.0000 0.91660  0.01570  0.25240  Biso   1.000  C
  C244     1.0000 0.86490  0.02080  0.25110  Biso   1.000  C
  C245     1.0000 0.96640  0.22940  0.25120  Biso   1.000  C
  C246     1.0000 0.94730  0.19850  0.21710  Biso   1.000  C
  C247     1.0000 0.84700  0.04400  0.21440  Biso   1.000  C
  O99      1.0000 0.89900  0.25560  0.18540  Biso   1.000  O
  O100     1.0000 0.93650  0.19510  0.15290  Biso   1.000  O
  N25      1.0000 0.91610  0.21530  0.17930  Biso   1.000  N
  C248     1.0000 0.80200  0.04870  0.21560  Biso   1.000  C
  C249     1.0000 0.77870  0.03070  0.25200  Biso   1.000  C
  C250     1.0000 0.95040  0.15220  0.21480  Biso   1.000  C
  O101     1.0000 0.97800  0.56430  0.70990  Biso   1.000  O
  O102     1.0000 0.93660  0.52320  0.71370  Biso   1.000  O
  C251     1.0000 0.98270  0.58400  0.74860  Biso   1.000  C
  C252     1.0000 0.97680  0.63120  0.75100  Biso   1.000  C
  C253     1.0000 0.91660  0.51570  0.75240  Biso   1.000  C
  C254     1.0000 0.86490  0.52080  0.75110  Biso   1.000  C
  C255     1.0000 0.96640  0.72940  0.75120  Biso   1.000  C
  C256     1.0000 0.94730  0.69850  0.71710  Biso   1.000  C
  C257     1.0000 0.84700  0.54400  0.71440  Biso   1.000  C
  O103     1.0000 0.89900  0.75560  0.68540  Biso   1.000  O
  O104     1.0000 0.93650  0.69510  0.65290  Biso   1.000  O
  N26      1.0000 0.91610  0.71530  0.67930  Biso   1.000  N
  C258     1.0000 0.80200  0.54870  0.71560  Biso   1.000  C
  C259     1.0000 0.77870  0.53070  0.75200  Biso   1.000  C
  C260     1.0000 0.95040  0.65220  0.71480  Biso   1.000  C
  O105     1.0000 0.47800  0.06430  0.70990  Biso   1.000  O
  O106     1.0000 0.43660  0.02320  0.71370  Biso   1.000  O
  C261     1.0000 0.48270  0.08400  0.74860  Biso   1.000  C
  C262     1.0000 0.47680  0.13120  0.75100  Biso   1.000  C
  C263     1.0000 0.41660  0.01570  0.75240  Biso   1.000  C
  C264     1.0000 0.36490  0.02080  0.75110  Biso   1.000  C
  C265     1.0000 0.46640  0.22940  0.75120  Biso   1.000  C
  C266     1.0000 0.44730  0.19850  0.71710  Biso   1.000  C
  C267     1.0000 0.34700  0.04400  0.71440  Biso   1.000  C
  O107     1.0000 0.39900  0.25560  0.68540  Biso   1.000  O
  O108     1.0000 0.43650  0.19510  0.65290  Biso   1.000  O
  N27      1.0000 0.41610  0.21530  0.67930  Biso   1.000  N
  C268     1.0000 0.30200  0.04870  0.71560  Biso   1.000  C
  C269     1.0000 0.27870  0.03070  0.75200  Biso   1.000  C
  C270     1.0000 0.45040  0.15220  0.71480  Biso   1.000  C
  O109     1.0000 0.47800  0.56430  0.20990  Biso   1.000  O
  O110     1.0000 0.43660  0.52320  0.21370  Biso   1.000  O
  C271     1.0000 0.48270  0.58400  0.24860  Biso   1.000  C
  C272     1.0000 0.47680  0.63120  0.25100  Biso   1.000  C
  C273     1.0000 0.41660  0.51570  0.25240  Biso   1.000  C
  C274     1.0000 0.36490  0.52080  0.25110  Biso   1.000  C
  C275     1.0000 0.46640  0.72940  0.25120  Biso   1.000  C
  C276     1.0000 0.44730  0.69850  0.21710  Biso   1.000  C
  C277     1.0000 0.34700  0.54400  0.21440  Biso   1.000  C
  O111     1.0000 0.39900  0.75560  0.18540  Biso   1.000  O
  O112     1.0000 0.43650  0.69510  0.15290  Biso   1.000  O
  N28      1.0000 0.41610  0.71530  0.17930  Biso   1.000  N
  C278     1.0000 0.30200  0.54870  0.21560  Biso   1.000  C
  C279     1.0000 0.27870  0.53070  0.25200  Biso   1.000  C
  C280     1.0000 0.45040  0.65220  0.21480  Biso   1.000  C
  O113     1.0000 0.02200  0.93570  0.20990  Biso   1.000  O
  O114     1.0000 0.06340  0.97680  0.21370  Biso   1.000  O
  C281     1.0000 0.01730  0.91600  0.24860  Biso   1.000  C
  C282     1.0000 0.02320  0.86880  0.25100  Biso   1.000  C
  C283     1.0000 0.08340  0.98430  0.25240  Biso   1.000  C
  C284     1.0000 0.13510  0.97920  0.25110  Biso   1.000  C
  C285     1.0000 0.03360  0.77060  0.25120  Biso   1.000  C
  C286     1.0000 0.05270  0.80150  0.21710  Biso   1.000  C
  C287     1.0000 0.15300  0.95600  0.21440  Biso   1.000  C
  O115     1.0000 0.10100  0.74440  0.18540  Biso   1.000  O
  O116     1.0000 0.06350  0.80490  0.15290  Biso   1.000  O
  N29      1.0000 0.08390  0.78470  0.17930  Biso   1.000  N
  C288     1.0000 0.19800  0.95130  0.21560  Biso   1.000  C
  C289     1.0000 0.22130  0.96930  0.25200  Biso   1.000  C
  C290     1.0000 0.04960  0.84780  0.21480  Biso   1.000  C
  O117     1.0000 0.02200  0.43570  0.70990  Biso   1.000  O
  O118     1.0000 0.06340  0.47680  0.71370  Biso   1.000  O
  C291     1.0000 0.01730  0.41600  0.74860  Biso   1.000  C
  C292     1.0000 0.02320  0.36880  0.75100  Biso   1.000  C
  C293     1.0000 0.08340  0.48430  0.75240  Biso   1.000  C
  C294     1.0000 0.13510  0.47920  0.75110  Biso   1.000  C
  C295     1.0000 0.03360  0.27060  0.75120  Biso   1.000  C
  C296     1.0000 0.05270  0.30150  0.71710  Biso   1.000  C
  C297     1.0000 0.15300  0.45600  0.71440  Biso   1.000  C
  O119     1.0000 0.10100  0.24440  0.68540  Biso   1.000  O
  O120     1.0000 0.06350  0.30490  0.65290  Biso   1.000  O
  N30      1.0000 0.08390  0.28470  0.67930  Biso   1.000  N
  C298     1.0000 0.19800  0.45130  0.71560  Biso   1.000  C
  C299     1.0000 0.22130  0.46930  0.75200  Biso   1.000  C
  C300     1.0000 0.04960  0.34780  0.71480  Biso   1.000  C
  O121     1.0000 0.52200  0.93570  0.70990  Biso   1.000  O
  O122     1.0000 0.56340  0.97680  0.71370  Biso   1.000  O
  C301     1.0000 0.51730  0.91600  0.74860  Biso   1.000  C
  C302     1.0000 0.52320  0.86880  0.75100  Biso   1.000  C
  C303     1.0000 0.58340  0.98430  0.75240  Biso   1.000  C
  C304     1.0000 0.63510  0.97920  0.75110  Biso   1.000  C
  C305     1.0000 0.53360  0.77060  0.75120  Biso   1.000  C
  C306     1.0000 0.55270  0.80150  0.71710  Biso   1.000  C
  C307     1.0000 0.65300  0.95600  0.71440  Biso   1.000  C
  O123     1.0000 0.60100  0.74440  0.68540  Biso   1.000  O
  O124     1.0000 0.56350  0.80490  0.65290  Biso   1.000  O
  N31      1.0000 0.58390  0.78470  0.67930  Biso   1.000  N
  C308     1.0000 0.69800  0.95130  0.71560  Biso   1.000  C
  C309     1.0000 0.72130  0.96930  0.75200  Biso   1.000  C
  C310     1.0000 0.54960  0.84780  0.71480  Biso   1.000  C
  O125     1.0000 0.52200  0.43570  0.20990  Biso   1.000  O
  O126     1.0000 0.56340  0.47680  0.21370  Biso   1.000  O
  C311     1.0000 0.51730  0.41600  0.24860  Biso   1.000  C
  C312     1.0000 0.52320  0.36880  0.25100  Biso   1.000  C
  C313     1.0000 0.58340  0.48430  0.25240  Biso   1.000  C
  C314     1.0000 0.63510  0.47920  0.25110  Biso   1.000  C
  C315     1.0000 0.53360  0.27060  0.25120  Biso   1.000  C
  C316     1.0000 0.55270  0.30150  0.21710  Biso   1.000  C
  C317     1.0000 0.65300  0.45600  0.21440  Biso   1.000  C
  O127     1.0000 0.60100  0.24440  0.18540  Biso   1.000  O
  O128     1.0000 0.56350  0.30490  0.15290  Biso   1.000  O
  N32      1.0000 0.58390  0.28470  0.17930  Biso   1.000  N
  C318     1.0000 0.69800  0.45130  0.21560  Biso   1.000  C
  C319     1.0000 0.72130  0.46930  0.25200  Biso   1.000  C
  C320     1.0000 0.54960  0.34780  0.21480  Biso   1.000  C
  O129     1.0000 0.96900  0.00000  0.19250  Biso   1.000  O
  O130     1.0000 0.93370  0.00000  0.29105  Biso   1.000  O
  C321     1.0000 0.04040  0.00000  0.44890  Biso   1.000  C
  C322     1.0000 0.84130  0.00000  0.28750  Biso   1.000  C
  C323     1.0000 0.79460  0.00000  0.28530  Biso   1.000  C
  C324     1.0000 0.03690  0.00000  0.39860  Biso   1.000  C
  O131     1.0000 0.96900  0.50000  0.69250  Biso   1.000  O
  O132     1.0000 0.93370  0.50000  0.79105  Biso   1.000  O
  C325     1.0000 0.04040  0.50000  0.94890  Biso   1.000  C
  C326     1.0000 0.84130  0.50000  0.78750  Biso   1.000  C
  C327     1.0000 0.79460  0.50000  0.78530  Biso   1.000  C
  C328     1.0000 0.03690  0.50000  0.89860  Biso   1.000  C
  O133     1.0000 0.46900  0.00000  0.69250  Biso   1.000  O
  O134     1.0000 0.43370  0.00000  0.79105  Biso   1.000  O
  C329     1.0000 0.54040  0.00000  0.94890  Biso   1.000  C
  C330     1.0000 0.34130  0.00000  0.78750  Biso   1.000  C
  C331     1.0000 0.29460  0.00000  0.78530  Biso   1.000  C
  C332     1.0000 0.53690  0.00000  0.89860  Biso   1.000  C
  O135     1.0000 0.46900  0.50000  0.19250  Biso   1.000  O
  O136     1.0000 0.43370  0.50000  0.29105  Biso   1.000  O
  C333     1.0000 0.54040  0.50000  0.44890  Biso   1.000  C
  C334     1.0000 0.34130  0.50000  0.28750  Biso   1.000  C
  C335     1.0000 0.29460  0.50000  0.28530  Biso   1.000  C
  C336     1.0000 0.53690  0.50000  0.39860  Biso   1.000  C
  O137     1.0000 0.03100  0.00000  0.19250  Biso   1.000  O
  O138     1.0000 0.06630  0.00000  0.29105  Biso   1.000  O
  C337     1.0000 0.95960  0.00000  0.44890  Biso   1.000  C
  C338     1.0000 0.15870  0.00000  0.28750  Biso   1.000  C
  C339     1.0000 0.20540  0.00000  0.28530  Biso   1.000  C
  C340     1.0000 0.96310  0.00000  0.39860  Biso   1.000  C
  O139     1.0000 0.03100  0.50000  0.69250  Biso   1.000  O
  O140     1.0000 0.06630  0.50000  0.79105  Biso   1.000  O
  C341     1.0000 0.95960  0.50000  0.94890  Biso   1.000  C
  C342     1.0000 0.15870  0.50000  0.78750  Biso   1.000  C
  C343     1.0000 0.20540  0.50000  0.78530  Biso   1.000  C
  C344     1.0000 0.96310  0.50000  0.89860  Biso   1.000  C
  O141     1.0000 0.53100  0.00000  0.69250  Biso   1.000  O
  O142     1.0000 0.56630  0.00000  0.79105  Biso   1.000  O
  C345     1.0000 0.45960  0.00000  0.94890  Biso   1.000  C
  C346     1.0000 0.65870  0.00000  0.78750  Biso   1.000  C
  C347     1.0000 0.70540  0.00000  0.78530  Biso   1.000  C
  C348     1.0000 0.46310  0.00000  0.89860  Biso   1.000  C
  O143     1.0000 0.53100  0.50000  0.19250  Biso   1.000  O
  O144     1.0000 0.56630  0.50000  0.29105  Biso   1.000  O
  C349     1.0000 0.45960  0.50000  0.44890  Biso   1.000  C
  C350     1.0000 0.65870  0.50000  0.28750  Biso   1.000  C
  C351     1.0000 0.70540  0.50000  0.28530  Biso   1.000  C
  C352     1.0000 0.46310  0.50000  0.39860  Biso   1.000  C
  O145     1.0000 0.03100  0.00000  0.80750  Biso   1.000  O
  O146     1.0000 0.06630  0.00000  0.70895  Biso   1.000  O
  C353     1.0000 0.95960  0.00000  0.55110  Biso   1.000  C
  C354     1.0000 0.15870  0.00000  0.71250  Biso   1.000  C
  C355     1.0000 0.20540  0.00000  0.71470  Biso   1.000  C
  C356     1.0000 0.96310  0.00000  0.60140  Biso   1.000  C
  O147     1.0000 0.03100  0.50000  0.30750  Biso   1.000  O
  O148     1.0000 0.06630  0.50000  0.20895  Biso   1.000  O
  C357     1.0000 0.95960  0.50000  0.05110  Biso   1.000  C
  C358     1.0000 0.15870  0.50000  0.21250  Biso   1.000  C
  C359     1.0000 0.20540  0.50000  0.21470  Biso   1.000  C
  C360     1.0000 0.96310  0.50000  0.10140  Biso   1.000  C
  O149     1.0000 0.53100  0.00000  0.30750  Biso   1.000  O
  O150     1.0000 0.56630  0.00000  0.20895  Biso   1.000  O
  C361     1.0000 0.45960  0.00000  0.05110  Biso   1.000  C
  C362     1.0000 0.65870  0.00000  0.21250  Biso   1.000  C
  C363     1.0000 0.70540  0.00000  0.21470  Biso   1.000  C
  C364     1.0000 0.46310  0.00000  0.10140  Biso   1.000  C
  O151     1.0000 0.53100  0.50000  0.80750  Biso   1.000  O
  O152     1.0000 0.56630  0.50000  0.70895  Biso   1.000  O
  C365     1.0000 0.45960  0.50000  0.55110  Biso   1.000  C
  C366     1.0000 0.65870  0.50000  0.71250  Biso   1.000  C
  C367     1.0000 0.70540  0.50000  0.71470  Biso   1.000  C
  C368     1.0000 0.46310  0.50000  0.60140  Biso   1.000  C
  O153     1.0000 0.96900  0.00000  0.80750  Biso   1.000  O
  O154     1.0000 0.93370  0.00000  0.70895  Biso   1.000  O
  C369     1.0000 0.04040  0.00000  0.55110  Biso   1.000  C
  C370     1.0000 0.84130  0.00000  0.71250  Biso   1.000  C
  C371     1.0000 0.79460  0.00000  0.71470  Biso   1.000  C
  C372     1.0000 0.03690  0.00000  0.60140  Biso   1.000  C
  O155     1.0000 0.96900  0.50000  0.30750  Biso   1.000  O
  O156     1.0000 0.93370  0.50000  0.20895  Biso   1.000  O
  C373     1.0000 0.04040  0.50000  0.05110  Biso   1.000  C
  C374     1.0000 0.84130  0.50000  0.21250  Biso   1.000  C
  C375     1.0000 0.79460  0.50000  0.21470  Biso   1.000  C
  C376     1.0000 0.03690  0.50000  0.10140  Biso   1.000  C
  O157     1.0000 0.46900  0.00000  0.30750  Biso   1.000  O
  O158     1.0000 0.43370  0.00000  0.20895  Biso   1.000  O
  C377     1.0000 0.54040  0.00000  0.05110  Biso   1.000  C
  C378     1.0000 0.34130  0.00000  0.21250  Biso   1.000  C
  C379     1.0000 0.29460  0.00000  0.21470  Biso   1.000  C
  C380     1.0000 0.53690  0.00000  0.10140  Biso   1.000  C
  O159     1.0000 0.46900  0.50000  0.80750  Biso   1.000  O
  O160     1.0000 0.43370  0.50000  0.70895  Biso   1.000  O
  C381     1.0000 0.54040  0.50000  0.55110  Biso   1.000  C
  C382     1.0000 0.34130  0.50000  0.71250  Biso   1.000  C
  C383     1.0000 0.29460  0.50000  0.71470  Biso   1.000  C
  C384     1.0000 0.53690  0.50000  0.60140  Biso   1.000  C
  O161     1.0000 0.00000  0.93390  0.28663  Biso   1.000  O
  C385     1.0000 0.00000  0.84260  0.28610  Biso   1.000  C
  C386     1.0000 0.00000  0.79740  0.28830  Biso   1.000  C
  C387     1.0000 0.00000  0.96450  0.10150  Biso   1.000  C
  C388     1.0000 0.00000  0.96260  0.05400  Biso   1.000  C
  O162     1.0000 0.00000  0.43390  0.78663  Biso   1.000  O
  C389     1.0000 0.00000  0.34260  0.78610  Biso   1.000  C
  C390     1.0000 0.00000  0.29740  0.78830  Biso   1.000  C
  C391     1.0000 0.00000  0.46450  0.60150  Biso   1.000  C
  C392     1.0000 0.00000  0.46260  0.55400  Biso   1.000  C
  O163     1.0000 0.50000  0.93390  0.78663  Biso   1.000  O
  C393     1.0000 0.50000  0.84260  0.78610  Biso   1.000  C
  C394     1.0000 0.50000  0.79740  0.78830  Biso   1.000  C
  C395     1.0000 0.50000  0.96450  0.60150  Biso   1.000  C
  C396     1.0000 0.50000  0.96260  0.55400  Biso   1.000  C
  O164     1.0000 0.50000  0.43390  0.28663  Biso   1.000  O
  C397     1.0000 0.50000  0.34260  0.28610  Biso   1.000  C
  C398     1.0000 0.50000  0.29740  0.28830  Biso   1.000  C
  C399     1.0000 0.50000  0.46450  0.10150  Biso   1.000  C
  C400     1.0000 0.50000  0.46260  0.05400  Biso   1.000  C
  O165     1.0000 0.00000  0.06610  0.28663  Biso   1.000  O
  C401     1.0000 0.00000  0.15740  0.28610  Biso   1.000  C
  C402     1.0000 0.00000  0.20260  0.28830  Biso   1.000  C
  C403     1.0000 0.00000  0.03550  0.10150  Biso   1.000  C
  C404     1.0000 0.00000  0.03740  0.05400  Biso   1.000  C
  O166     1.0000 0.00000  0.56610  0.78663  Biso   1.000  O
  C405     1.0000 0.00000  0.65740  0.78610  Biso   1.000  C
  C406     1.0000 0.00000  0.70260  0.78830  Biso   1.000  C
  C407     1.0000 0.00000  0.53550  0.60150  Biso   1.000  C
  C408     1.0000 0.00000  0.53740  0.55400  Biso   1.000  C
  O167     1.0000 0.50000  0.06610  0.78663  Biso   1.000  O
  C409     1.0000 0.50000  0.15740  0.78610  Biso   1.000  C
  C410     1.0000 0.50000  0.20260  0.78830  Biso   1.000  C
  C411     1.0000 0.50000  0.03550  0.60150  Biso   1.000  C
  C412     1.0000 0.50000  0.03740  0.55400  Biso   1.000  C
  O168     1.0000 0.50000  0.56610  0.28663  Biso   1.000  O
  C413     1.0000 0.50000  0.65740  0.28610  Biso   1.000  C
  C414     1.0000 0.50000  0.70260  0.28830  Biso   1.000  C
  C415     1.0000 0.50000  0.53550  0.10150  Biso   1.000  C
  C416     1.0000 0.50000  0.53740  0.05400  Biso   1.000  C
  O169     1.0000 0.00000  0.93390  0.71337  Biso   1.000  O
  C417     1.0000 0.00000  0.84260  0.71390  Biso   1.000  C
  C418     1.0000 0.00000  0.79740  0.71170  Biso   1.000  C
  C419     1.0000 0.00000  0.96450  0.89850  Biso   1.000  C
  C420     1.0000 0.00000  0.96260  0.94600  Biso   1.000  C
  O170     1.0000 0.00000  0.43390  0.21337  Biso   1.000  O
  C421     1.0000 0.00000  0.34260  0.21390  Biso   1.000  C
  C422     1.0000 0.00000  0.29740  0.21170  Biso   1.000  C
  C423     1.0000 0.00000  0.46450  0.39850  Biso   1.000  C
  C424     1.0000 0.00000  0.46260  0.44600  Biso   1.000  C
  O171     1.0000 0.50000  0.93390  0.21337  Biso   1.000  O
  C425     1.0000 0.50000  0.84260  0.21390  Biso   1.000  C
  C426     1.0000 0.50000  0.79740  0.21170  Biso   1.000  C
  C427     1.0000 0.50000  0.96450  0.39850  Biso   1.000  C
  C428     1.0000 0.50000  0.96260  0.44600  Biso   1.000  C
  O172     1.0000 0.50000  0.43390  0.71337  Biso   1.000  O
  C429     1.0000 0.50000  0.34260  0.71390  Biso   1.000  C
  C430     1.0000 0.50000  0.29740  0.71170  Biso   1.000  C
  C431     1.0000 0.50000  0.46450  0.89850  Biso   1.000  C
  C432     1.0000 0.50000  0.46260  0.94600  Biso   1.000  C
  O173     1.0000 0.00000  0.06610  0.71337  Biso   1.000  O
  C433     1.0000 0.00000  0.15740  0.71390  Biso   1.000  C
  C434     1.0000 0.00000  0.20260  0.71170  Biso   1.000  C
  C435     1.0000 0.00000  0.03550  0.89850  Biso   1.000  C
  C436     1.0000 0.00000  0.03740  0.94600  Biso   1.000  C
  O174     1.0000 0.00000  0.56610  0.21337  Biso   1.000  O
  C437     1.0000 0.00000  0.65740  0.21390  Biso   1.000  C
  C438     1.0000 0.00000  0.70260  0.21170  Biso   1.000  C
  C439     1.0000 0.00000  0.53550  0.39850  Biso   1.000  C
  C440     1.0000 0.00000  0.53740  0.44600  Biso   1.000  C
  O175     1.0000 0.50000  0.06610  0.21337  Biso   1.000  O
  C441     1.0000 0.50000  0.15740  0.21390  Biso   1.000  C
  C442     1.0000 0.50000  0.20260  0.21170  Biso   1.000  C
  C443     1.0000 0.50000  0.03550  0.39850  Biso   1.000  C
  C444     1.0000 0.50000  0.03740  0.44600  Biso   1.000  C
  O176     1.0000 0.50000  0.56610  0.71337  Biso   1.000  O
  C445     1.0000 0.50000  0.65740  0.71390  Biso   1.000  C
  C446     1.0000 0.50000  0.70260  0.71170  Biso   1.000  C
  C447     1.0000 0.50000  0.53550  0.89850  Biso   1.000  C
  C448     1.0000 0.50000  0.53740  0.94600  Biso   1.000  C
  N33      1.0000 0.00000  0.00000  0.37530  Biso   1.000  N
  C449     1.0000 0.00000  0.00000  0.47330  Biso   1.000  C
  Zn1      1.0000 0.00000  0.00000  0.30270  Biso   1.000  Zn
  N34      1.0000 0.00000  0.00000  0.12550  Biso   1.000  N
  C450     1.0000 0.00000  0.00000  0.02680  Biso   1.000  C
  Zn2      1.0000 0.00000  0.00000  0.19800  Biso   1.000  Zn
  N35      1.0000 0.00000  0.50000  0.87530  Biso   1.000  N
  C451     1.0000 0.00000  0.50000  0.97330  Biso   1.000  C
  Zn3      1.0000 0.00000  0.50000  0.80270  Biso   1.000  Zn
  N36      1.0000 0.00000  0.50000  0.62550  Biso   1.000  N
  C452     1.0000 0.00000  0.50000  0.52680  Biso   1.000  C
  Zn4      1.0000 0.00000  0.50000  0.69800  Biso   1.000  Zn
  N37      1.0000 0.50000  0.00000  0.87530  Biso   1.000  N
  C453     1.0000 0.50000  0.00000  0.97330  Biso   1.000  C
  Zn5      1.0000 0.50000  0.00000  0.80270  Biso   1.000  Zn
  N38      1.0000 0.50000  0.00000  0.62550  Biso   1.000  N
  C454     1.0000 0.50000  0.00000  0.52680  Biso   1.000  C
  Zn6      1.0000 0.50000  0.00000  0.69800  Biso   1.000  Zn
  N39      1.0000 0.50000  0.50000  0.37530  Biso   1.000  N
  C455     1.0000 0.50000  0.50000  0.47330  Biso   1.000  C
  Zn7      1.0000 0.50000  0.50000  0.30270  Biso   1.000  Zn
  N40      1.0000 0.50000  0.50000  0.12550  Biso   1.000  N
  C456     1.0000 0.50000  0.50000  0.02680  Biso   1.000  C
  Zn8      1.0000 0.50000  0.50000  0.19800  Biso   1.000  Zn
  N41      1.0000 0.00000  0.00000  0.62470  Biso   1.000  N
  C457     1.0000 0.00000  0.00000  0.52670  Biso   1.000  C
  Zn9      1.0000 0.00000  0.00000  0.69730  Biso   1.000  Zn
  N42      1.0000 0.00000  0.00000  0.87450  Biso   1.000  N
  C458     1.0000 0.00000  0.00000  0.97320  Biso   1.000  C
  Zn10     1.0000 0.00000  0.00000  0.80200  Biso   1.000  Zn
  N43      1.0000 0.00000  0.50000  0.12470  Biso   1.000  N
  C459     1.0000 0.00000  0.50000  0.02670  Biso   1.000  C
  Zn11     1.0000 0.00000  0.50000  0.19730  Biso   1.000  Zn
  N44      1.0000 0.00000  0.50000  0.37450  Biso   1.000  N
  C460     1.0000 0.00000  0.50000  0.47320  Biso   1.000  C
  Zn12     1.0000 0.00000  0.50000  0.30200  Biso   1.000  Zn
  N45      1.0000 0.50000  0.00000  0.12470  Biso   1.000  N
  C461     1.0000 0.50000  0.00000  0.02670  Biso   1.000  C
  Zn13     1.0000 0.50000  0.00000  0.19730  Biso   1.000  Zn
  N46      1.0000 0.50000  0.00000  0.37450  Biso   1.000  N
  C462     1.0000 0.50000  0.00000  0.47320  Biso   1.000  C
  Zn14     1.0000 0.50000  0.00000  0.30200  Biso   1.000  Zn
  N47      1.0000 0.50000  0.50000  0.62470  Biso   1.000  N
  C463     1.0000 0.50000  0.50000  0.52670  Biso   1.000  C
  Zn15     1.0000 0.50000  0.50000  0.69730  Biso   1.000  Zn
  N48      1.0000 0.50000  0.50000  0.87450  Biso   1.000  N
  C464     1.0000 0.50000  0.50000  0.97320  Biso   1.000  C
  Zn16     1.0000 0.50000  0.50000  0.80200  Biso   1.000  Zn
  O177     1.0000 0.23710  0.31501  0.03772  Biso   1.000  O
  O178     1.0000 0.31490  0.26380  0.03967  Biso   1.000  O
  N49      1.0000 0.17200  0.46550  0.92510  Biso   1.000  N
  C465     1.0000 0.20900  0.40360  0.96470  Biso   1.000  C
  C466     1.0000 0.19940  0.44880  0.96530  Biso   1.000  C
  C467     1.0000 0.21640  0.24420  0.14950  Biso   1.000  C
  C468     1.0000 0.20890  0.24760  0.19840  Biso   1.000  C
  C469     1.0000 0.40240  0.29470  0.03540  Biso   1.000  C
  C470     1.0000 0.44950  0.29670  0.03600  Biso   1.000  C
  C471     1.0000 0.24460  0.40610  0.96000  Biso   1.000  C
  C472     1.0000 0.23770  0.45520  0.96200  Biso   1.000  C
  C473     1.0000 0.25700  0.28350  0.14720  Biso   1.000  C
  C474     1.0000 0.23160  0.21290  0.19780  Biso   1.000  C
  C475     1.0000 0.40860  0.25570  0.03910  Biso   1.000  C
  C476     1.0000 0.45750  0.25770  0.02970  Biso   1.000  C
  O179     1.0000 0.17570  0.44850  0.88480  Biso   1.000  O
  O180     1.0000 0.23710  0.81501  0.53772  Biso   1.000  O
  O181     1.0000 0.31490  0.76380  0.53967  Biso   1.000  O
  N50      1.0000 0.17200  0.96550  0.42510  Biso   1.000  N
  C477     1.0000 0.20900  0.90360  0.46470  Biso   1.000  C
  C478     1.0000 0.19940  0.94880  0.46530  Biso   1.000  C
  C479     1.0000 0.21640  0.74420  0.64950  Biso   1.000  C
  C480     1.0000 0.20890  0.74760  0.69840  Biso   1.000  C
  C481     1.0000 0.40240  0.79470  0.53540  Biso   1.000  C
  C482     1.0000 0.44950  0.79670  0.53600  Biso   1.000  C
  C483     1.0000 0.24460  0.90610  0.46000  Biso   1.000  C
  C484     1.0000 0.23770  0.95520  0.46200  Biso   1.000  C
  C485     1.0000 0.25700  0.78350  0.64720  Biso   1.000  C
  C486     1.0000 0.23160  0.71290  0.69780  Biso   1.000  C
  C487     1.0000 0.40860  0.75570  0.53910  Biso   1.000  C
  C488     1.0000 0.45750  0.75770  0.52970  Biso   1.000  C
  O182     1.0000 0.17570  0.94850  0.38480  Biso   1.000  O
  O183     1.0000 0.73710  0.31501  0.53772  Biso   1.000  O
  O184     1.0000 0.81490  0.26380  0.53967  Biso   1.000  O
  N51      1.0000 0.67200  0.46550  0.42510  Biso   1.000  N
  C489     1.0000 0.70900  0.40360  0.46470  Biso   1.000  C
  C490     1.0000 0.69940  0.44880  0.46530  Biso   1.000  C
  C491     1.0000 0.71640  0.24420  0.64950  Biso   1.000  C
  C492     1.0000 0.70890  0.24760  0.69840  Biso   1.000  C
  C493     1.0000 0.90240  0.29470  0.53540  Biso   1.000  C
  C494     1.0000 0.94950  0.29670  0.53600  Biso   1.000  C
  C495     1.0000 0.74460  0.40610  0.46000  Biso   1.000  C
  C496     1.0000 0.73770  0.45520  0.46200  Biso   1.000  C
  C497     1.0000 0.75700  0.28350  0.64720  Biso   1.000  C
  C498     1.0000 0.73160  0.21290  0.69780  Biso   1.000  C
  C499     1.0000 0.90860  0.25570  0.53910  Biso   1.000  C
  C500     1.0000 0.95750  0.25770  0.52970  Biso   1.000  C
  O185     1.0000 0.67570  0.44850  0.38480  Biso   1.000  O
  O186     1.0000 0.73710  0.81501  0.03772  Biso   1.000  O
  O187     1.0000 0.81490  0.76380  0.03967  Biso   1.000  O
  N52      1.0000 0.67200  0.96550  0.92510  Biso   1.000  N
  C501     1.0000 0.70900  0.90360  0.96470  Biso   1.000  C
  C502     1.0000 0.69940  0.94880  0.96530  Biso   1.000  C
  C503     1.0000 0.71640  0.74420  0.14950  Biso   1.000  C
  C504     1.0000 0.70890  0.74760  0.19840  Biso   1.000  C
  C505     1.0000 0.90240  0.79470  0.03540  Biso   1.000  C
  C506     1.0000 0.94950  0.79670  0.03600  Biso   1.000  C
  C507     1.0000 0.74460  0.90610  0.96000  Biso   1.000  C
  C508     1.0000 0.73770  0.95520  0.96200  Biso   1.000  C
  C509     1.0000 0.75700  0.78350  0.14720  Biso   1.000  C
  C510     1.0000 0.73160  0.71290  0.19780  Biso   1.000  C
  C511     1.0000 0.90860  0.75570  0.03910  Biso   1.000  C
  C512     1.0000 0.95750  0.75770  0.02970  Biso   1.000  C
  O188     1.0000 0.67570  0.94850  0.88480  Biso   1.000  O
  O189     1.0000 0.76290  0.68499  0.03772  Biso   1.000  O
  O190     1.0000 0.68510  0.73620  0.03967  Biso   1.000  O
  N53      1.0000 0.82800  0.53450  0.92510  Biso   1.000  N
  C513     1.0000 0.79100  0.59640  0.96470  Biso   1.000  C
  C514     1.0000 0.80060  0.55120  0.96530  Biso   1.000  C
  C515     1.0000 0.78360  0.75580  0.14950  Biso   1.000  C
  C516     1.0000 0.79110  0.75240  0.19840  Biso   1.000  C
  C517     1.0000 0.59760  0.70530  0.03540  Biso   1.000  C
  C518     1.0000 0.55050  0.70330  0.03600  Biso   1.000  C
  C519     1.0000 0.75540  0.59390  0.96000  Biso   1.000  C
  C520     1.0000 0.76230  0.54480  0.96200  Biso   1.000  C
  C521     1.0000 0.74300  0.71650  0.14720  Biso   1.000  C
  C522     1.0000 0.76840  0.78710  0.19780  Biso   1.000  C
  C523     1.0000 0.59140  0.74430  0.03910  Biso   1.000  C
  C524     1.0000 0.54250  0.74230  0.02970  Biso   1.000  C
  O191     1.0000 0.82430  0.55150  0.88480  Biso   1.000  O
  O192     1.0000 0.76290  0.18499  0.53772  Biso   1.000  O
  O193     1.0000 0.68510  0.23620  0.53967  Biso   1.000  O
  N54      1.0000 0.82800  0.03450  0.42510  Biso   1.000  N
  C525     1.0000 0.79100  0.09640  0.46470  Biso   1.000  C
  C526     1.0000 0.80060  0.05120  0.46530  Biso   1.000  C
  C527     1.0000 0.78360  0.25580  0.64950  Biso   1.000  C
  C528     1.0000 0.79110  0.25240  0.69840  Biso   1.000  C
  C529     1.0000 0.59760  0.20530  0.53540  Biso   1.000  C
  C530     1.0000 0.55050  0.20330  0.53600  Biso   1.000  C
  C531     1.0000 0.75540  0.09390  0.46000  Biso   1.000  C
  C532     1.0000 0.76230  0.04480  0.46200  Biso   1.000  C
  C533     1.0000 0.74300  0.21650  0.64720  Biso   1.000  C
  C534     1.0000 0.76840  0.28710  0.69780  Biso   1.000  C
  C535     1.0000 0.59140  0.24430  0.53910  Biso   1.000  C
  C536     1.0000 0.54250  0.24230  0.52970  Biso   1.000  C
  O194     1.0000 0.82430  0.05150  0.38480  Biso   1.000  O
  O195     1.0000 0.26290  0.68499  0.53772  Biso   1.000  O
  O196     1.0000 0.18510  0.73620  0.53967  Biso   1.000  O
  N55      1.0000 0.32800  0.53450  0.42510  Biso   1.000  N
  C537     1.0000 0.29100  0.59640  0.46470  Biso   1.000  C
  C538     1.0000 0.30060  0.55120  0.46530  Biso   1.000  C
  C539     1.0000 0.28360  0.75580  0.64950  Biso   1.000  C
  C540     1.0000 0.29110  0.75240  0.69840  Biso   1.000  C
  C541     1.0000 0.09760  0.70530  0.53540  Biso   1.000  C
  C542     1.0000 0.05050  0.70330  0.53600  Biso   1.000  C
  C543     1.0000 0.25540  0.59390  0.46000  Biso   1.000  C
  C544     1.0000 0.26230  0.54480  0.46200  Biso   1.000  C
  C545     1.0000 0.24300  0.71650  0.64720  Biso   1.000  C
  C546     1.0000 0.26840  0.78710  0.69780  Biso   1.000  C
  C547     1.0000 0.09140  0.74430  0.53910  Biso   1.000  C
  C548     1.0000 0.04250  0.74230  0.52970  Biso   1.000  C
  O197     1.0000 0.32430  0.55150  0.38480  Biso   1.000  O
  O198     1.0000 0.26290  0.18499  0.03772  Biso   1.000  O
  O199     1.0000 0.18510  0.23620  0.03967  Biso   1.000  O
  N56      1.0000 0.32800  0.03450  0.92510  Biso   1.000  N
  C549     1.0000 0.29100  0.09640  0.96470  Biso   1.000  C
  C550     1.0000 0.30060  0.05120  0.96530  Biso   1.000  C
  C551     1.0000 0.28360  0.25580  0.14950  Biso   1.000  C
  C552     1.0000 0.29110  0.25240  0.19840  Biso   1.000  C
  C553     1.0000 0.09760  0.20530  0.03540  Biso   1.000  C
  C554     1.0000 0.05050  0.20330  0.03600  Biso   1.000  C
  C555     1.0000 0.25540  0.09390  0.96000  Biso   1.000  C
  C556     1.0000 0.26230  0.04480  0.96200  Biso   1.000  C
  C557     1.0000 0.24300  0.21650  0.14720  Biso   1.000  C
  C558     1.0000 0.26840  0.28710  0.19780  Biso   1.000  C
  C559     1.0000 0.09140  0.24430  0.03910  Biso   1.000  C
  C560     1.0000 0.04250  0.24230  0.02970  Biso   1.000  C
  O200     1.0000 0.32430  0.05150  0.88480  Biso   1.000  O
  O201     1.0000 0.76290  0.31501  0.96228  Biso   1.000  O
  O202     1.0000 0.68510  0.26380  0.96033  Biso   1.000  O
  N57      1.0000 0.82800  0.46550  0.07490  Biso   1.000  N
  C561     1.0000 0.79100  0.40360  0.03530  Biso   1.000  C
  C562     1.0000 0.80060  0.44880  0.03470  Biso   1.000  C
  C563     1.0000 0.78360  0.24420  0.85050  Biso   1.000  C
  C564     1.0000 0.79110  0.24760  0.80160  Biso   1.000  C
  C565     1.0000 0.59760  0.29470  0.96460  Biso   1.000  C
  C566     1.0000 0.55050  0.29670  0.96400  Biso   1.000  C
  C567     1.0000 0.75540  0.40610  0.04000  Biso   1.000  C
  C568     1.0000 0.76230  0.45520  0.03800  Biso   1.000  C
  C569     1.0000 0.74300  0.28350  0.85280  Biso   1.000  C
  C570     1.0000 0.76840  0.21290  0.80220  Biso   1.000  C
  C571     1.0000 0.59140  0.25570  0.96090  Biso   1.000  C
  C572     1.0000 0.54250  0.25770  0.97030  Biso   1.000  C
  O203     1.0000 0.82430  0.44850  0.11520  Biso   1.000  O
  O204     1.0000 0.76290  0.81501  0.46228  Biso   1.000  O
  O205     1.0000 0.68510  0.76380  0.46033  Biso   1.000  O
  N58      1.0000 0.82800  0.96550  0.57490  Biso   1.000  N
  C573     1.0000 0.79100  0.90360  0.53530  Biso   1.000  C
  C574     1.0000 0.80060  0.94880  0.53470  Biso   1.000  C
  C575     1.0000 0.78360  0.74420  0.35050  Biso   1.000  C
  C576     1.0000 0.79110  0.74760  0.30160  Biso   1.000  C
  C577     1.0000 0.59760  0.79470  0.46460  Biso   1.000  C
  C578     1.0000 0.55050  0.79670  0.46400  Biso   1.000  C
  C579     1.0000 0.75540  0.90610  0.54000  Biso   1.000  C
  C580     1.0000 0.76230  0.95520  0.53800  Biso   1.000  C
  C581     1.0000 0.74300  0.78350  0.35280  Biso   1.000  C
  C582     1.0000 0.76840  0.71290  0.30220  Biso   1.000  C
  C583     1.0000 0.59140  0.75570  0.46090  Biso   1.000  C
  C584     1.0000 0.54250  0.75770  0.47030  Biso   1.000  C
  O206     1.0000 0.82430  0.94850  0.61520  Biso   1.000  O
  O207     1.0000 0.26290  0.31501  0.46228  Biso   1.000  O
  O208     1.0000 0.18510  0.26380  0.46033  Biso   1.000  O
  N59      1.0000 0.32800  0.46550  0.57490  Biso   1.000  N
  C585     1.0000 0.29100  0.40360  0.53530  Biso   1.000  C
  C586     1.0000 0.30060  0.44880  0.53470  Biso   1.000  C
  C587     1.0000 0.28360  0.24420  0.35050  Biso   1.000  C
  C588     1.0000 0.29110  0.24760  0.30160  Biso   1.000  C
  C589     1.0000 0.09760  0.29470  0.46460  Biso   1.000  C
  C590     1.0000 0.05050  0.29670  0.46400  Biso   1.000  C
  C591     1.0000 0.25540  0.40610  0.54000  Biso   1.000  C
  C592     1.0000 0.26230  0.45520  0.53800  Biso   1.000  C
  C593     1.0000 0.24300  0.28350  0.35280  Biso   1.000  C
  C594     1.0000 0.26840  0.21290  0.30220  Biso   1.000  C
  C595     1.0000 0.09140  0.25570  0.46090  Biso   1.000  C
  C596     1.0000 0.04250  0.25770  0.47030  Biso   1.000  C
  O209     1.0000 0.32430  0.44850  0.61520  Biso   1.000  O
  O210     1.0000 0.26290  0.81501  0.96228  Biso   1.000  O
  O211     1.0000 0.18510  0.76380  0.96033  Biso   1.000  O
  N60      1.0000 0.32800  0.96550  0.07490  Biso   1.000  N
  C597     1.0000 0.29100  0.90360  0.03530  Biso   1.000  C
  C598     1.0000 0.30060  0.94880  0.03470  Biso   1.000  C
  C599     1.0000 0.28360  0.74420  0.85050  Biso   1.000  C
  C600     1.0000 0.29110  0.74760  0.80160  Biso   1.000  C
  C601     1.0000 0.09760  0.79470  0.96460  Biso   1.000  C
  C602     1.0000 0.05050  0.79670  0.96400  Biso   1.000  C
  C603     1.0000 0.25540  0.90610  0.04000  Biso   1.000  C
  C604     1.0000 0.26230  0.95520  0.03800  Biso   1.000  C
  C605     1.0000 0.24300  0.78350  0.85280  Biso   1.000  C
  C606     1.0000 0.26840  0.71290  0.80220  Biso   1.000  C
  C607     1.0000 0.09140  0.75570  0.96090  Biso   1.000  C
  C608     1.0000 0.04250  0.75770  0.97030  Biso   1.000  C
  O212     1.0000 0.32430  0.94850  0.11520  Biso   1.000  O
  O213     1.0000 0.23710  0.68499  0.96228  Biso   1.000  O
  O214     1.0000 0.31490  0.73620  0.96033  Biso   1.000  O
  N61      1.0000 0.17200  0.53450  0.07490  Biso   1.000  N
  C609     1.0000 0.20900  0.59640  0.03530  Biso   1.000  C
  C610     1.0000 0.19940  0.55120  0.03470  Biso   1.000  C
  C611     1.0000 0.21640  0.75580  0.85050  Biso   1.000  C
  C612     1.0000 0.20890  0.75240  0.80160  Biso   1.000  C
  C613     1.0000 0.40240  0.70530  0.96460  Biso   1.000  C
  C614     1.0000 0.44950  0.70330  0.96400  Biso   1.000  C
  C615     1.0000 0.24460  0.59390  0.04000  Biso   1.000  C
  C616     1.0000 0.23770  0.54480  0.03800  Biso   1.000  C
  C617     1.0000 0.25700  0.71650  0.85280  Biso   1.000  C
  C618     1.0000 0.23160  0.78710  0.80220  Biso   1.000  C
  C619     1.0000 0.40860  0.74430  0.96090  Biso   1.000  C
  C620     1.0000 0.45750  0.74230  0.97030  Biso   1.000  C
  O215     1.0000 0.17570  0.55150  0.11520  Biso   1.000  O
  O216     1.0000 0.23710  0.18499  0.46228  Biso   1.000  O
  O217     1.0000 0.31490  0.23620  0.46033  Biso   1.000  O
  N62      1.0000 0.17200  0.03450  0.57490  Biso   1.000  N
  C621     1.0000 0.20900  0.09640  0.53530  Biso   1.000  C
  C622     1.0000 0.19940  0.05120  0.53470  Biso   1.000  C
  C623     1.0000 0.21640  0.25580  0.35050  Biso   1.000  C
  C624     1.0000 0.20890  0.25240  0.30160  Biso   1.000  C
  C625     1.0000 0.40240  0.20530  0.46460  Biso   1.000  C
  C626     1.0000 0.44950  0.20330  0.46400  Biso   1.000  C
  C627     1.0000 0.24460  0.09390  0.54000  Biso   1.000  C
  C628     1.0000 0.23770  0.04480  0.53800  Biso   1.000  C
  C629     1.0000 0.25700  0.21650  0.35280  Biso   1.000  C
  C630     1.0000 0.23160  0.28710  0.30220  Biso   1.000  C
  C631     1.0000 0.40860  0.24430  0.46090  Biso   1.000  C
  C632     1.0000 0.45750  0.24230  0.47030  Biso   1.000  C
  O218     1.0000 0.17570  0.05150  0.61520  Biso   1.000  O
  O219     1.0000 0.73710  0.68499  0.46228  Biso   1.000  O
  O220     1.0000 0.81490  0.73620  0.46033  Biso   1.000  O
  N63      1.0000 0.67200  0.53450  0.57490  Biso   1.000  N
  C633     1.0000 0.70900  0.59640  0.53530  Biso   1.000  C
  C634     1.0000 0.69940  0.55120  0.53470  Biso   1.000  C
  C635     1.0000 0.71640  0.75580  0.35050  Biso   1.000  C
  C636     1.0000 0.70890  0.75240  0.30160  Biso   1.000  C
  C637     1.0000 0.90240  0.70530  0.46460  Biso   1.000  C
  C638     1.0000 0.94950  0.70330  0.46400  Biso   1.000  C
  C639     1.0000 0.74460  0.59390  0.54000  Biso   1.000  C
  C640     1.0000 0.73770  0.54480  0.53800  Biso   1.000  C
  C641     1.0000 0.75700  0.71650  0.35280  Biso   1.000  C
  C642     1.0000 0.73160  0.78710  0.30220  Biso   1.000  C
  C643     1.0000 0.90860  0.74430  0.46090  Biso   1.000  C
  C644     1.0000 0.95750  0.74230  0.47030  Biso   1.000  C
  O221     1.0000 0.67570  0.55150  0.61520  Biso   1.000  O
  O222     1.0000 0.73710  0.18499  0.96228  Biso   1.000  O
  O223     1.0000 0.81490  0.23620  0.96033  Biso   1.000  O
  N64      1.0000 0.67200  0.03450  0.07490  Biso   1.000  N
  C645     1.0000 0.70900  0.09640  0.03530  Biso   1.000  C
  C646     1.0000 0.69940  0.05120  0.03470  Biso   1.000  C
  C647     1.0000 0.71640  0.25580  0.85050  Biso   1.000  C
  C648     1.0000 0.70890  0.25240  0.80160  Biso   1.000  C
  C649     1.0000 0.90240  0.20530  0.96460  Biso   1.000  C
  C650     1.0000 0.94950  0.20330  0.96400  Biso   1.000  C
  C651     1.0000 0.74460  0.09390  0.04000  Biso   1.000  C
  C652     1.0000 0.73770  0.04480  0.03800  Biso   1.000  C
  C653     1.0000 0.75700  0.21650  0.85280  Biso   1.000  C
  C654     1.0000 0.73160  0.28710  0.80220  Biso   1.000  C
  C655     1.0000 0.90860  0.24430  0.96090  Biso   1.000  C
  C656     1.0000 0.95750  0.24230  0.97030  Biso   1.000  C
  O224     1.0000 0.67570  0.05150  0.11520  Biso   1.000  O
  O225     1.0000 0.76290  0.68499  0.96228  Biso   1.000  O
  O226     1.0000 0.68510  0.73620  0.96033  Biso   1.000  O
  N65      1.0000 0.82800  0.53450  0.07490  Biso   1.000  N
  C657     1.0000 0.79100  0.59640  0.03530  Biso   1.000  C
  C658     1.0000 0.80060  0.55120  0.03470  Biso   1.000  C
  C659     1.0000 0.78360  0.75580  0.85050  Biso   1.000  C
  C660     1.0000 0.79110  0.75240  0.80160  Biso   1.000  C
  C661     1.0000 0.59760  0.70530  0.96460  Biso   1.000  C
  C662     1.0000 0.55050  0.70330  0.96400  Biso   1.000  C
  C663     1.0000 0.75540  0.59390  0.04000  Biso   1.000  C
  C664     1.0000 0.76230  0.54480  0.03800  Biso   1.000  C
  C665     1.0000 0.74300  0.71650  0.85280  Biso   1.000  C
  C666     1.0000 0.76840  0.78710  0.80220  Biso   1.000  C
  C667     1.0000 0.59140  0.74430  0.96090  Biso   1.000  C
  C668     1.0000 0.54250  0.74230  0.97030  Biso   1.000  C
  O227     1.0000 0.82430  0.55150  0.11520  Biso   1.000  O
  O228     1.0000 0.76290  0.18499  0.46228  Biso   1.000  O
  O229     1.0000 0.68510  0.23620  0.46033  Biso   1.000  O
  N66      1.0000 0.82800  0.03450  0.57490  Biso   1.000  N
  C669     1.0000 0.79100  0.09640  0.53530  Biso   1.000  C
  C670     1.0000 0.80060  0.05120  0.53470  Biso   1.000  C
  C671     1.0000 0.78360  0.25580  0.35050  Biso   1.000  C
  C672     1.0000 0.79110  0.25240  0.30160  Biso   1.000  C
  C673     1.0000 0.59760  0.20530  0.46460  Biso   1.000  C
  C674     1.0000 0.55050  0.20330  0.46400  Biso   1.000  C
  C675     1.0000 0.75540  0.09390  0.54000  Biso   1.000  C
  C676     1.0000 0.76230  0.04480  0.53800  Biso   1.000  C
  C677     1.0000 0.74300  0.21650  0.35280  Biso   1.000  C
  C678     1.0000 0.76840  0.28710  0.30220  Biso   1.000  C
  C679     1.0000 0.59140  0.24430  0.46090  Biso   1.000  C
  C680     1.0000 0.54250  0.24230  0.47030  Biso   1.000  C
  O230     1.0000 0.82430  0.05150  0.61520  Biso   1.000  O
  O231     1.0000 0.26290  0.68499  0.46228  Biso   1.000  O
  O232     1.0000 0.18510  0.73620  0.46033  Biso   1.000  O
  N67      1.0000 0.32800  0.53450  0.57490  Biso   1.000  N
  C681     1.0000 0.29100  0.59640  0.53530  Biso   1.000  C
  C682     1.0000 0.30060  0.55120  0.53470  Biso   1.000  C
  C683     1.0000 0.28360  0.75580  0.35050  Biso   1.000  C
  C684     1.0000 0.29110  0.75240  0.30160  Biso   1.000  C
  C685     1.0000 0.09760  0.70530  0.46460  Biso   1.000  C
  C686     1.0000 0.05050  0.70330  0.46400  Biso   1.000  C
  C687     1.0000 0.25540  0.59390  0.54000  Biso   1.000  C
  C688     1.0000 0.26230  0.54480  0.53800  Biso   1.000  C
  C689     1.0000 0.24300  0.71650  0.35280  Biso   1.000  C
  C690     1.0000 0.26840  0.78710  0.30220  Biso   1.000  C
  C691     1.0000 0.09140  0.74430  0.46090  Biso   1.000  C
  C692     1.0000 0.04250  0.74230  0.47030  Biso   1.000  C
  O233     1.0000 0.32430  0.55150  0.61520  Biso   1.000  O
  O234     1.0000 0.26290  0.18499  0.96228  Biso   1.000  O
  O235     1.0000 0.18510  0.23620  0.96033  Biso   1.000  O
  N68      1.0000 0.32800  0.03450  0.07490  Biso   1.000  N
  C693     1.0000 0.29100  0.09640  0.03530  Biso   1.000  C
  C694     1.0000 0.30060  0.05120  0.03470  Biso   1.000  C
  C695     1.0000 0.28360  0.25580  0.85050  Biso   1.000  C
  C696     1.0000 0.29110  0.25240  0.80160  Biso   1.000  C
  C697     1.0000 0.09760  0.20530  0.96460  Biso   1.000  C
  C698     1.0000 0.05050  0.20330  0.96400  Biso   1.000  C
  C699     1.0000 0.25540  0.09390  0.04000  Biso   1.000  C
  C700     1.0000 0.26230  0.04480  0.03800  Biso   1.000  C
  C701     1.0000 0.24300  0.21650  0.85280  Biso   1.000  C
  C702     1.0000 0.26840  0.28710  0.80220  Biso   1.000  C
  C703     1.0000 0.09140  0.24430  0.96090  Biso   1.000  C
  C704     1.0000 0.04250  0.24230  0.97030  Biso   1.000  C
  O236     1.0000 0.32430  0.05150  0.11520  Biso   1.000  O
  O237     1.0000 0.23710  0.31501  0.96228  Biso   1.000  O
  O238     1.0000 0.31490  0.26380  0.96033  Biso   1.000  O
  N69      1.0000 0.17200  0.46550  0.07490  Biso   1.000  N
  C705     1.0000 0.20900  0.40360  0.03530  Biso   1.000  C
  C706     1.0000 0.19940  0.44880  0.03470  Biso   1.000  C
  C707     1.0000 0.21640  0.24420  0.85050  Biso   1.000  C
  C708     1.0000 0.20890  0.24760  0.80160  Biso   1.000  C
  C709     1.0000 0.40240  0.29470  0.96460  Biso   1.000  C
  C710     1.0000 0.44950  0.29670  0.96400  Biso   1.000  C
  C711     1.0000 0.24460  0.40610  0.04000  Biso   1.000  C
  C712     1.0000 0.23770  0.45520  0.03800  Biso   1.000  C
  C713     1.0000 0.25700  0.28350  0.85280  Biso   1.000  C
  C714     1.0000 0.23160  0.21290  0.80220  Biso   1.000  C
  C715     1.0000 0.40860  0.25570  0.96090  Biso   1.000  C
  C716     1.0000 0.45750  0.25770  0.97030  Biso   1.000  C
  O239     1.0000 0.17570  0.44850  0.11520  Biso   1.000  O
  O240     1.0000 0.23710  0.81501  0.46228  Biso   1.000  O
  O241     1.0000 0.31490  0.76380  0.46033  Biso   1.000  O
  N70      1.0000 0.17200  0.96550  0.57490  Biso   1.000  N
  C717     1.0000 0.20900  0.90360  0.53530  Biso   1.000  C
  C718     1.0000 0.19940  0.94880  0.53470  Biso   1.000  C
  C719     1.0000 0.21640  0.74420  0.35050  Biso   1.000  C
  C720     1.0000 0.20890  0.74760  0.30160  Biso   1.000  C
  C721     1.0000 0.40240  0.79470  0.46460  Biso   1.000  C
  C722     1.0000 0.44950  0.79670  0.46400  Biso   1.000  C
  C723     1.0000 0.24460  0.90610  0.54000  Biso   1.000  C
  C724     1.0000 0.23770  0.95520  0.53800  Biso   1.000  C
  C725     1.0000 0.25700  0.78350  0.35280  Biso   1.000  C
  C726     1.0000 0.23160  0.71290  0.30220  Biso   1.000  C
  C727     1.0000 0.40860  0.75570  0.46090  Biso   1.000  C
  C728     1.0000 0.45750  0.75770  0.47030  Biso   1.000  C
  O242     1.0000 0.17570  0.94850  0.61520  Biso   1.000  O
  O243     1.0000 0.73710  0.31501  0.46228  Biso   1.000  O
  O244     1.0000 0.81490  0.26380  0.46033  Biso   1.000  O
  N71      1.0000 0.67200  0.46550  0.57490  Biso   1.000  N
  C729     1.0000 0.70900  0.40360  0.53530  Biso   1.000  C
  C730     1.0000 0.69940  0.44880  0.53470  Biso   1.000  C
  C731     1.0000 0.71640  0.24420  0.35050  Biso   1.000  C
  C732     1.0000 0.70890  0.24760  0.30160  Biso   1.000  C
  C733     1.0000 0.90240  0.29470  0.46460  Biso   1.000  C
  C734     1.0000 0.94950  0.29670  0.46400  Biso   1.000  C
  C735     1.0000 0.74460  0.40610  0.54000  Biso   1.000  C
  C736     1.0000 0.73770  0.45520  0.53800  Biso   1.000  C
  C737     1.0000 0.75700  0.28350  0.35280  Biso   1.000  C
  C738     1.0000 0.73160  0.21290  0.30220  Biso   1.000  C
  C739     1.0000 0.90860  0.25570  0.46090  Biso   1.000  C
  C740     1.0000 0.95750  0.25770  0.47030  Biso   1.000  C
  O245     1.0000 0.67570  0.44850  0.61520  Biso   1.000  O
  O246     1.0000 0.73710  0.81501  0.96228  Biso   1.000  O
  O247     1.0000 0.81490  0.76380  0.96033  Biso   1.000  O
  N72      1.0000 0.67200  0.96550  0.07490  Biso   1.000  N
  C741     1.0000 0.70900  0.90360  0.03530  Biso   1.000  C
  C742     1.0000 0.69940  0.94880  0.03470  Biso   1.000  C
  C743     1.0000 0.71640  0.74420  0.85050  Biso   1.000  C
  C744     1.0000 0.70890  0.74760  0.80160  Biso   1.000  C
  C745     1.0000 0.90240  0.79470  0.96460  Biso   1.000  C
  C746     1.0000 0.94950  0.79670  0.96400  Biso   1.000  C
  C747     1.0000 0.74460  0.90610  0.04000  Biso   1.000  C
  C748     1.0000 0.73770  0.95520  0.03800  Biso   1.000  C
  C749     1.0000 0.75700  0.78350  0.85280  Biso   1.000  C
  C750     1.0000 0.73160  0.71290  0.80220  Biso   1.000  C
  C751     1.0000 0.90860  0.75570  0.96090  Biso   1.000  C
  C752     1.0000 0.95750  0.75770  0.97030  Biso   1.000  C
  O248     1.0000 0.67570  0.94850  0.11520  Biso   1.000  O
  O249     1.0000 0.23710  0.68499  0.03772  Biso   1.000  O
  O250     1.0000 0.31490  0.73620  0.03967  Biso   1.000  O
  N73      1.0000 0.17200  0.53450  0.92510  Biso   1.000  N
  C753     1.0000 0.20900  0.59640  0.96470  Biso   1.000  C
  C754     1.0000 0.19940  0.55120  0.96530  Biso   1.000  C
  C755     1.0000 0.21640  0.75580  0.14950  Biso   1.000  C
  C756     1.0000 0.20890  0.75240  0.19840  Biso   1.000  C
  C757     1.0000 0.40240  0.70530  0.03540  Biso   1.000  C
  C758     1.0000 0.44950  0.70330  0.03600  Biso   1.000  C
  C759     1.0000 0.24460  0.59390  0.96000  Biso   1.000  C
  C760     1.0000 0.23770  0.54480  0.96200  Biso   1.000  C
  C761     1.0000 0.25700  0.71650  0.14720  Biso   1.000  C
  C762     1.0000 0.23160  0.78710  0.19780  Biso   1.000  C
  C763     1.0000 0.40860  0.74430  0.03910  Biso   1.000  C
  C764     1.0000 0.45750  0.74230  0.02970  Biso   1.000  C
  O251     1.0000 0.17570  0.55150  0.88480  Biso   1.000  O
  O252     1.0000 0.23710  0.18499  0.53772  Biso   1.000  O
  O253     1.0000 0.31490  0.23620  0.53967  Biso   1.000  O
  N74      1.0000 0.17200  0.03450  0.42510  Biso   1.000  N
  C765     1.0000 0.20900  0.09640  0.46470  Biso   1.000  C
  C766     1.0000 0.19940  0.05120  0.46530  Biso   1.000  C
  C767     1.0000 0.21640  0.25580  0.64950  Biso   1.000  C
  C768     1.0000 0.20890  0.25240  0.69840  Biso   1.000  C
  C769     1.0000 0.40240  0.20530  0.53540  Biso   1.000  C
  C770     1.0000 0.44950  0.20330  0.53600  Biso   1.000  C
  C771     1.0000 0.24460  0.09390  0.46000  Biso   1.000  C
  C772     1.0000 0.23770  0.04480  0.46200  Biso   1.000  C
  C773     1.0000 0.25700  0.21650  0.64720  Biso   1.000  C
  C774     1.0000 0.23160  0.28710  0.69780  Biso   1.000  C
  C775     1.0000 0.40860  0.24430  0.53910  Biso   1.000  C
  C776     1.0000 0.45750  0.24230  0.52970  Biso   1.000  C
  O254     1.0000 0.17570  0.05150  0.38480  Biso   1.000  O
  O255     1.0000 0.73710  0.68499  0.53772  Biso   1.000  O
  O256     1.0000 0.81490  0.73620  0.53967  Biso   1.000  O
  N75      1.0000 0.67200  0.53450  0.42510  Biso   1.000  N
  C777     1.0000 0.70900  0.59640  0.46470  Biso   1.000  C
  C778     1.0000 0.69940  0.55120  0.46530  Biso   1.000  C
  C779     1.0000 0.71640  0.75580  0.64950  Biso   1.000  C
  C780     1.0000 0.70890  0.75240  0.69840  Biso   1.000  C
  C781     1.0000 0.90240  0.70530  0.53540  Biso   1.000  C
  C782     1.0000 0.94950  0.70330  0.53600  Biso   1.000  C
  C783     1.0000 0.74460  0.59390  0.46000  Biso   1.000  C
  C784     1.0000 0.73770  0.54480  0.46200  Biso   1.000  C
  C785     1.0000 0.75700  0.71650  0.64720  Biso   1.000  C
  C786     1.0000 0.73160  0.78710  0.69780  Biso   1.000  C
  C787     1.0000 0.90860  0.74430  0.53910  Biso   1.000  C
  C788     1.0000 0.95750  0.74230  0.52970  Biso   1.000  C
  O257     1.0000 0.67570  0.55150  0.38480  Biso   1.000  O
  O258     1.0000 0.73710  0.18499  0.03772  Biso   1.000  O
  O259     1.0000 0.81490  0.23620  0.03967  Biso   1.000  O
  N76      1.0000 0.67200  0.03450  0.92510  Biso   1.000  N
  C789     1.0000 0.70900  0.09640  0.96470  Biso   1.000  C
  C790     1.0000 0.69940  0.05120  0.96530  Biso   1.000  C
  C791     1.0000 0.71640  0.25580  0.14950  Biso   1.000  C
  C792     1.0000 0.70890  0.25240  0.19840  Biso   1.000  C
  C793     1.0000 0.90240  0.20530  0.03540  Biso   1.000  C
  C794     1.0000 0.94950  0.20330  0.03600  Biso   1.000  C
  C795     1.0000 0.74460  0.09390  0.96000  Biso   1.000  C
  C796     1.0000 0.73770  0.04480  0.96200  Biso   1.000  C
  C797     1.0000 0.75700  0.21650  0.14720  Biso   1.000  C
  C798     1.0000 0.73160  0.28710  0.19780  Biso   1.000  C
  C799     1.0000 0.90860  0.24430  0.03910  Biso   1.000  C
  C800     1.0000 0.95750  0.24230  0.02970  Biso   1.000  C
  O260     1.0000 0.67570  0.05150  0.88480  Biso   1.000  O
  O261     1.0000 0.76290  0.31501  0.03772  Biso   1.000  O
  O262     1.0000 0.68510  0.26380  0.03967  Biso   1.000  O
  N77      1.0000 0.82800  0.46550  0.92510  Biso   1.000  N
  C801     1.0000 0.79100  0.40360  0.96470  Biso   1.000  C
  C802     1.0000 0.80060  0.44880  0.96530  Biso   1.000  C
  C803     1.0000 0.78360  0.24420  0.14950  Biso   1.000  C
  C804     1.0000 0.79110  0.24760  0.19840  Biso   1.000  C
  C805     1.0000 0.59760  0.29470  0.03540  Biso   1.000  C
  C806     1.0000 0.55050  0.29670  0.03600  Biso   1.000  C
  C807     1.0000 0.75540  0.40610  0.96000  Biso   1.000  C
  C808     1.0000 0.76230  0.45520  0.96200  Biso   1.000  C
  C809     1.0000 0.74300  0.28350  0.14720  Biso   1.000  C
  C810     1.0000 0.76840  0.21290  0.19780  Biso   1.000  C
  C811     1.0000 0.59140  0.25570  0.03910  Biso   1.000  C
  C812     1.0000 0.54250  0.25770  0.02970  Biso   1.000  C
  O263     1.0000 0.82430  0.44850  0.88480  Biso   1.000  O
  O264     1.0000 0.76290  0.81501  0.53772  Biso   1.000  O
  O265     1.0000 0.68510  0.76380  0.53967  Biso   1.000  O
  N78      1.0000 0.82800  0.96550  0.42510  Biso   1.000  N
  C813     1.0000 0.79100  0.90360  0.46470  Biso   1.000  C
  C814     1.0000 0.80060  0.94880  0.46530  Biso   1.000  C
  C815     1.0000 0.78360  0.74420  0.64950  Biso   1.000  C
  C816     1.0000 0.79110  0.74760  0.69840  Biso   1.000  C
  C817     1.0000 0.59760  0.79470  0.53540  Biso   1.000  C
  C818     1.0000 0.55050  0.79670  0.53600  Biso   1.000  C
  C819     1.0000 0.75540  0.90610  0.46000  Biso   1.000  C
  C820     1.0000 0.76230  0.95520  0.46200  Biso   1.000  C
  C821     1.0000 0.74300  0.78350  0.64720  Biso   1.000  C
  C822     1.0000 0.76840  0.71290  0.69780  Biso   1.000  C
  C823     1.0000 0.59140  0.75570  0.53910  Biso   1.000  C
  C824     1.0000 0.54250  0.75770  0.52970  Biso   1.000  C
  O266     1.0000 0.82430  0.94850  0.38480  Biso   1.000  O
  O267     1.0000 0.26290  0.31501  0.53772  Biso   1.000  O
  O268     1.0000 0.18510  0.26380  0.53967  Biso   1.000  O
  N79      1.0000 0.32800  0.46550  0.42510  Biso   1.000  N
  C825     1.0000 0.29100  0.40360  0.46470  Biso   1.000  C
  C826     1.0000 0.30060  0.44880  0.46530  Biso   1.000  C
  C827     1.0000 0.28360  0.24420  0.64950  Biso   1.000  C
  C828     1.0000 0.29110  0.24760  0.69840  Biso   1.000  C
  C829     1.0000 0.09760  0.29470  0.53540  Biso   1.000  C
  C830     1.0000 0.05050  0.29670  0.53600  Biso   1.000  C
  C831     1.0000 0.25540  0.40610  0.46000  Biso   1.000  C
  C832     1.0000 0.26230  0.45520  0.46200  Biso   1.000  C
  C833     1.0000 0.24300  0.28350  0.64720  Biso   1.000  C
  C834     1.0000 0.26840  0.21290  0.69780  Biso   1.000  C
  C835     1.0000 0.09140  0.25570  0.53910  Biso   1.000  C
  C836     1.0000 0.04250  0.25770  0.52970  Biso   1.000  C
  O269     1.0000 0.32430  0.44850  0.38480  Biso   1.000  O
  O270     1.0000 0.26290  0.81501  0.03772  Biso   1.000  O
  O271     1.0000 0.18510  0.76380  0.03967  Biso   1.000  O
  N80      1.0000 0.32800  0.96550  0.92510  Biso   1.000  N
  C837     1.0000 0.29100  0.90360  0.96470  Biso   1.000  C
  C838     1.0000 0.30060  0.94880  0.96530  Biso   1.000  C
  C839     1.0000 0.28360  0.74420  0.14950  Biso   1.000  C
  C840     1.0000 0.29110  0.74760  0.19840  Biso   1.000  C
  C841     1.0000 0.09760  0.79470  0.03540  Biso   1.000  C
  C842     1.0000 0.05050  0.79670  0.03600  Biso   1.000  C
  C843     1.0000 0.25540  0.90610  0.96000  Biso   1.000  C
  C844     1.0000 0.26230  0.95520  0.96200  Biso   1.000  C
  C845     1.0000 0.24300  0.78350  0.14720  Biso   1.000  C
  C846     1.0000 0.26840  0.71290  0.19780  Biso   1.000  C
  C847     1.0000 0.09140  0.75570  0.03910  Biso   1.000  C
  C848     1.0000 0.04250  0.75770  0.02970  Biso   1.000  C
  O272     1.0000 0.32430  0.94850  0.88480  Biso   1.000  O
  N81      1.0000 0.25000  0.25000  0.12530  Biso   1.000  N
  C849     1.0000 0.25000  0.25000  0.22230  Biso   1.000  C
  Zn17     1.0000 0.25000  0.25000  0.05223  Biso   1.000  Zn
  N82      1.0000 0.25000  0.75000  0.62530  Biso   1.000  N
  C850     1.0000 0.25000  0.75000  0.72230  Biso   1.000  C
  Zn18     1.0000 0.25000  0.75000  0.55223  Biso   1.000  Zn
  N83      1.0000 0.75000  0.75000  0.12530  Biso   1.000  N
  C851     1.0000 0.75000  0.75000  0.22230  Biso   1.000  C
  Zn19     1.0000 0.75000  0.75000  0.05223  Biso   1.000  Zn
  N84      1.0000 0.75000  0.25000  0.62530  Biso   1.000  N
  C852     1.0000 0.75000  0.25000  0.72230  Biso   1.000  C
  Zn20     1.0000 0.75000  0.25000  0.55223  Biso   1.000  Zn
  N85      1.0000 0.75000  0.25000  0.87470  Biso   1.000  N
  C853     1.0000 0.75000  0.25000  0.77770  Biso   1.000  C
  Zn21     1.0000 0.75000  0.25000  0.94777  Biso   1.000  Zn
  N86      1.0000 0.75000  0.75000  0.37470  Biso   1.000  N
  C854     1.0000 0.75000  0.75000  0.27770  Biso   1.000  C
  Zn22     1.0000 0.75000  0.75000  0.44777  Biso   1.000  Zn
  N87      1.0000 0.25000  0.25000  0.37470  Biso   1.000  N
  C855     1.0000 0.25000  0.25000  0.27770  Biso   1.000  C
  Zn23     1.0000 0.25000  0.25000  0.44777  Biso   1.000  Zn
  N88      1.0000 0.25000  0.75000  0.87470  Biso   1.000  N
  C856     1.0000 0.25000  0.75000  0.77770  Biso   1.000  C
  Zn24     1.0000 0.25000  0.75000  0.94777  Biso   1.000  Zn
  N89      1.0000 0.75000  0.75000  0.87470  Biso   1.000  N
  C857     1.0000 0.75000  0.75000  0.77770  Biso   1.000  C
  Zn25     1.0000 0.75000  0.75000  0.94777  Biso   1.000  Zn
  N90      1.0000 0.75000  0.25000  0.37470  Biso   1.000  N
  C858     1.0000 0.75000  0.25000  0.27770  Biso   1.000  C
  Zn26     1.0000 0.75000  0.25000  0.44777  Biso   1.000  Zn
  N91      1.0000 0.25000  0.25000  0.87470  Biso   1.000  N
  C859     1.0000 0.25000  0.25000  0.77770  Biso   1.000  C
  Zn27     1.0000 0.25000  0.25000  0.94777  Biso   1.000  Zn
  N92      1.0000 0.25000  0.75000  0.37470  Biso   1.000  N
  C860     1.0000 0.25000  0.75000  0.27770  Biso   1.000  C
  Zn28     1.0000 0.25000  0.75000  0.44777  Biso   1.000  Zn
  N93      1.0000 0.25000  0.75000  0.12530  Biso   1.000  N
  C861     1.0000 0.25000  0.75000  0.22230  Biso   1.000  C
  Zn29     1.0000 0.25000  0.75000  0.05223  Biso   1.000  Zn
  N94      1.0000 0.25000  0.25000  0.62530  Biso   1.000  N
  C862     1.0000 0.25000  0.25000  0.72230  Biso   1.000  C
  Zn30     1.0000 0.25000  0.25000  0.55223  Biso   1.000  Zn
  N95      1.0000 0.75000  0.25000  0.12530  Biso   1.000  N
  C863     1.0000 0.75000  0.25000  0.22230  Biso   1.000  C
  Zn31     1.0000 0.75000  0.25000  0.05223  Biso   1.000  Zn
  N96      1.0000 0.75000  0.75000  0.62530  Biso   1.000  N
  C864     1.0000 0.75000  0.75000  0.72230  Biso   1.000  C
  Zn32     1.0000 0.75000  0.75000  0.55223  Biso   1.000  Zn
  C865     1.0000 0.33300  0.26280  0.00000  Biso   1.000  C
  C866     1.0000 0.22850  0.38340  0.00000  Biso   1.000  C
  C867     1.0000 0.38490  0.26950  0.00000  Biso   1.000  C
  C868     1.0000 0.23580  0.33340  0.00000  Biso   1.000  C
  C869     1.0000 0.21610  0.47590  0.00000  Biso   1.000  C
  C870     1.0000 0.47490  0.27900  0.00000  Biso   1.000  C
  C871     1.0000 0.33300  0.76280  0.50000  Biso   1.000  C
  C872     1.0000 0.22850  0.88340  0.50000  Biso   1.000  C
  C873     1.0000 0.38490  0.76950  0.50000  Biso   1.000  C
  C874     1.0000 0.23580  0.83340  0.50000  Biso   1.000  C
  C875     1.0000 0.21610  0.97590  0.50000  Biso   1.000  C
  C876     1.0000 0.47490  0.77900  0.50000  Biso   1.000  C
  C877     1.0000 0.83300  0.26280  0.50000  Biso   1.000  C
  C878     1.0000 0.72850  0.38340  0.50000  Biso   1.000  C
  C879     1.0000 0.88490  0.26950  0.50000  Biso   1.000  C
  C880     1.0000 0.73580  0.33340  0.50000  Biso   1.000  C
  C881     1.0000 0.71610  0.47590  0.50000  Biso   1.000  C
  C882     1.0000 0.97490  0.27900  0.50000  Biso   1.000  C
  C883     1.0000 0.83300  0.76280  0.00000  Biso   1.000  C
  C884     1.0000 0.72850  0.88340  0.00000  Biso   1.000  C
  C885     1.0000 0.88490  0.76950  0.00000  Biso   1.000  C
  C886     1.0000 0.73580  0.83340  0.00000  Biso   1.000  C
  C887     1.0000 0.71610  0.97590  0.00000  Biso   1.000  C
  C888     1.0000 0.97490  0.77900  0.00000  Biso   1.000  C
  C889     1.0000 0.66700  0.73720  0.00000  Biso   1.000  C
  C890     1.0000 0.77150  0.61660  0.00000  Biso   1.000  C
  C891     1.0000 0.61510  0.73050  0.00000  Biso   1.000  C
  C892     1.0000 0.76420  0.66660  0.00000  Biso   1.000  C
  C893     1.0000 0.78390  0.52410  0.00000  Biso   1.000  C
  C894     1.0000 0.52510  0.72100  0.00000  Biso   1.000  C
  C895     1.0000 0.66700  0.23720  0.50000  Biso   1.000  C
  C896     1.0000 0.77150  0.11660  0.50000  Biso   1.000  C
  C897     1.0000 0.61510  0.23050  0.50000  Biso   1.000  C
  C898     1.0000 0.76420  0.16660  0.50000  Biso   1.000  C
  C899     1.0000 0.78390  0.02410  0.50000  Biso   1.000  C
  C900     1.0000 0.52510  0.22100  0.50000  Biso   1.000  C
  C901     1.0000 0.16700  0.73720  0.50000  Biso   1.000  C
  C902     1.0000 0.27150  0.61660  0.50000  Biso   1.000  C
  C903     1.0000 0.11510  0.73050  0.50000  Biso   1.000  C
  C904     1.0000 0.26420  0.66660  0.50000  Biso   1.000  C
  C905     1.0000 0.28390  0.52410  0.50000  Biso   1.000  C
  C906     1.0000 0.02510  0.72100  0.50000  Biso   1.000  C
  C907     1.0000 0.16700  0.23720  0.00000  Biso   1.000  C
  C908     1.0000 0.27150  0.11660  0.00000  Biso   1.000  C
  C909     1.0000 0.11510  0.23050  0.00000  Biso   1.000  C
  C910     1.0000 0.26420  0.16660  0.00000  Biso   1.000  C
  C911     1.0000 0.28390  0.02410  0.00000  Biso   1.000  C
  C912     1.0000 0.02510  0.22100  0.00000  Biso   1.000  C
  C913     1.0000 0.66700  0.26280  0.00000  Biso   1.000  C
  C914     1.0000 0.77150  0.38340  0.00000  Biso   1.000  C
  C915     1.0000 0.61510  0.26950  0.00000  Biso   1.000  C
  C916     1.0000 0.76420  0.33340  0.00000  Biso   1.000  C
  C917     1.0000 0.78390  0.47590  0.00000  Biso   1.000  C
  C918     1.0000 0.52510  0.27900  0.00000  Biso   1.000  C
  C919     1.0000 0.66700  0.76280  0.50000  Biso   1.000  C
  C920     1.0000 0.77150  0.88340  0.50000  Biso   1.000  C
  C921     1.0000 0.61510  0.76950  0.50000  Biso   1.000  C
  C922     1.0000 0.76420  0.83340  0.50000  Biso   1.000  C
  C923     1.0000 0.78390  0.97590  0.50000  Biso   1.000  C
  C924     1.0000 0.52510  0.77900  0.50000  Biso   1.000  C
  C925     1.0000 0.16700  0.26280  0.50000  Biso   1.000  C
  C926     1.0000 0.27150  0.38340  0.50000  Biso   1.000  C
  C927     1.0000 0.11510  0.26950  0.50000  Biso   1.000  C
  C928     1.0000 0.26420  0.33340  0.50000  Biso   1.000  C
  C929     1.0000 0.28390  0.47590  0.50000  Biso   1.000  C
  C930     1.0000 0.02510  0.27900  0.50000  Biso   1.000  C
  C931     1.0000 0.16700  0.76280  0.00000  Biso   1.000  C
  C932     1.0000 0.27150  0.88340  0.00000  Biso   1.000  C
  C933     1.0000 0.11510  0.76950  0.00000  Biso   1.000  C
  C934     1.0000 0.26420  0.83340  0.00000  Biso   1.000  C
  C935     1.0000 0.28390  0.97590  0.00000  Biso   1.000  C
  C936     1.0000 0.02510  0.77900  0.00000  Biso   1.000  C
  C937     1.0000 0.33300  0.73720  0.00000  Biso   1.000  C
  C938     1.0000 0.22850  0.61660  0.00000  Biso   1.000  C
  C939     1.0000 0.38490  0.73050  0.00000  Biso   1.000  C
  C940     1.0000 0.23580  0.66660  0.00000  Biso   1.000  C
  C941     1.0000 0.21610  0.52410  0.00000  Biso   1.000  C
  C942     1.0000 0.47490  0.72100  0.00000  Biso   1.000  C
  C943     1.0000 0.33300  0.23720  0.50000  Biso   1.000  C
  C944     1.0000 0.22850  0.11660  0.50000  Biso   1.000  C
  C945     1.0000 0.38490  0.23050  0.50000  Biso   1.000  C
  C946     1.0000 0.23580  0.16660  0.50000  Biso   1.000  C
  C947     1.0000 0.21610  0.02410  0.50000  Biso   1.000  C
  C948     1.0000 0.47490  0.22100  0.50000  Biso   1.000  C
  C949     1.0000 0.83300  0.73720  0.50000  Biso   1.000  C
  C950     1.0000 0.72850  0.61660  0.50000  Biso   1.000  C
  C951     1.0000 0.88490  0.73050  0.50000  Biso   1.000  C
  C952     1.0000 0.73580  0.66660  0.50000  Biso   1.000  C
  C953     1.0000 0.71610  0.52410  0.50000  Biso   1.000  C
  C954     1.0000 0.97490  0.72100  0.50000  Biso   1.000  C
  C955     1.0000 0.83300  0.23720  0.00000  Biso   1.000  C
  C956     1.0000 0.72850  0.11660  0.00000  Biso   1.000  C
  C957     1.0000 0.88490  0.23050  0.00000  Biso   1.000  C
  C958     1.0000 0.73580  0.16660  0.00000  Biso   1.000  C
  C959     1.0000 0.71610  0.02410  0.00000  Biso   1.000  C
  C960     1.0000 0.97490  0.22100  0.00000  Biso   1.000  C
  O273     1.0000 0.14960  0.50000  0.93340  Biso   1.000  O
  O274     1.0000 0.14960  0.00000  0.43340  Biso   1.000  O
  O275     1.0000 0.64960  0.50000  0.43340  Biso   1.000  O
  O276     1.0000 0.64960  0.00000  0.93340  Biso   1.000  O
  O277     1.0000 0.85040  0.50000  0.93340  Biso   1.000  O
  O278     1.0000 0.85040  0.00000  0.43340  Biso   1.000  O
  O279     1.0000 0.35040  0.50000  0.43340  Biso   1.000  O
  O280     1.0000 0.35040  0.00000  0.93340  Biso   1.000  O
  O281     1.0000 0.85040  0.50000  0.06660  Biso   1.000  O
  O282     1.0000 0.85040  0.00000  0.56660  Biso   1.000  O
  O283     1.0000 0.35040  0.50000  0.56660  Biso   1.000  O
  O284     1.0000 0.35040  0.00000  0.06660  Biso   1.000  O
  O285     1.0000 0.14960  0.50000  0.06660  Biso   1.000  O
  O286     1.0000 0.14960  0.00000  0.56660  Biso   1.000  O
  O287     1.0000 0.64960  0.50000  0.56660  Biso   1.000  O
  O288     1.0000 0.64960  0.00000  0.06660  Biso   1.000  O
