data_image0
_cell_length_a       25.7369
_cell_length_b       25.7369
_cell_length_c       61.601
_cell_angle_alpha    90
_cell_angle_beta     90
_cell_angle_gamma    120

_symmetry_space_group_name_H-M    "P 1"
_symmetry_int_tables_number       1

loop_
  _symmetry_equiv_pos_as_xyz
  'x, y, z'

loop_
  _atom_site_label
  _atom_site_occupancy
  _atom_site_fract_x
  _atom_site_fract_y
  _atom_site_fract_z
  _atom_site_thermal_displace_type
  _atom_site_B_iso_or_equiv
  _atom_site_type_symbol
  Cd1      1.0000 0.24407  0.59597  0.94355  Biso   1.000  Cd
  Cd2      1.0000 0.26759  0.56816  0.88828  Biso   1.000  Cd
  O1       1.0000 0.65665  0.39475  0.85217  Biso   1.000  O
  O2       1.0000 0.60403  0.37125  0.88211  Biso   1.000  O
  O3       1.0000 0.61467  0.36530  0.63600  Biso   1.000  O
  O4       1.0000 0.52297  0.29781  0.62402  Biso   1.000  O
  O5       1.0000 0.86833  0.86585  0.71969  Biso   1.000  O
  O6       1.0000 0.87941  0.94171  0.74003  Biso   1.000  O
  O7       1.0000 0.72052  0.31296  0.80026  Biso   1.000  O
  O8       1.0000 0.69021  0.25909  0.76982  Biso   1.000  O
  O9       1.0000 0.16618  0.49611  0.94281  Biso   1.000  O
  O10      1.0000 0.24477  0.51937  0.92203  Biso   1.000  O
  O11      1.0000 0.64300  0.16060  0.03938  Biso   1.000  O
  O12      1.0000 0.66640  0.23490  0.01751  Biso   1.000  O
  O13      1.0000 0.56945  0.48936  0.80322  Biso   1.000  O
  O14      1.0000 0.66717  0.69533  0.74759  Biso   1.000  O
  O15      1.0000 0.56115  0.45348  0.69899  Biso   1.000  O
  O16      1.0000 0.79174  0.20298  0.84903  Biso   1.000  O
  O17      1.0000 0.74640  0.18565  0.95146  Biso   1.000  O
  O18      1.0000 0.00142  0.30196  0.90689  Biso   1.000  O
  C1       1.0000 0.61526  0.39364  0.86363  Biso   1.000  C
  C2       1.0000 0.58231  0.42239  0.85460  Biso   1.000  C
  C3       1.0000 0.54330  0.43240  0.86745  Biso   1.000  C
  H1       1.0000 0.53570  0.41890  0.88210  Biso   1.000  H
  C4       1.0000 0.51540  0.46250  0.85857  Biso   1.000  C
  H2       1.0000 0.48960  0.47020  0.86740  Biso   1.000  H
  C5       1.0000 0.52470  0.48070  0.83758  Biso   1.000  C
  H3       1.0000 0.50610  0.50160  0.83180  Biso   1.000  H
  C6       1.0000 0.56230  0.46860  0.82431  Biso   1.000  C
  C7       1.0000 0.59137  0.44100  0.83313  Biso   1.000  C
  H4       1.0000 0.61810  0.43470  0.82440  Biso   1.000  H
  C8       1.0000 0.61030  0.47990  0.78944  Biso   1.000  C
  H5       1.0000 0.59500  0.43650  0.78730  Biso   1.000  H
  H6       1.0000 0.65060  0.49810  0.79610  Biso   1.000  H
  C9       1.0000 0.61283  0.50994  0.76787  Biso   1.000  C
  C10      1.0000 0.57310  0.47750  0.75159  Biso   1.000  C
  C11      1.0000 0.57489  0.50630  0.73195  Biso   1.000  C
  C12      1.0000 0.61770  0.56700  0.72898  Biso   1.000  C
  C13      1.0000 0.65712  0.59890  0.74577  Biso   1.000  C
  C14      1.0000 0.65471  0.57220  0.76591  Biso   1.000  C
  C15      1.0000 0.69420  0.60790  0.78442  Biso   1.000  C
  H7       1.0000 0.73360  0.61100  0.78290  Biso   1.000  H
  H8       1.0000 0.67590  0.58790  0.79810  Biso   1.000  H
  H9       1.0000 0.69900  0.64810  0.78430  Biso   1.000  H
  C16      1.0000 0.52840  0.41130  0.75461  Biso   1.000  C
  H10      1.0000 0.54450  0.38740  0.74820  Biso   1.000  H
  H11      1.0000 0.49050  0.40150  0.74740  Biso   1.000  H
  H12      1.0000 0.52120  0.40230  0.77010  Biso   1.000  H
  C17      1.0000 0.62230  0.59760  0.70702  Biso   1.000  C
  H13      1.0000 0.65060  0.59330  0.69760  Biso   1.000  H
  H14      1.0000 0.63650  0.64030  0.70940  Biso   1.000  H
  H15      1.0000 0.58280  0.57870  0.70010  Biso   1.000  H
  C18      1.0000 0.70070  0.66650  0.74289  Biso   1.000  C
  H16      1.0000 0.73500  0.68040  0.75300  Biso   1.000  H
  H17      1.0000 0.71620  0.67540  0.72780  Biso   1.000  H
  C19      1.0000 0.69720  0.75600  0.74576  Biso   1.000  C
  C20      1.0000 0.66380  0.78440  0.75096  Biso   1.000  C
  H18      1.0000 0.62250  0.76090  0.75470  Biso   1.000  H
  C21      1.0000 0.69120  0.84600  0.75062  Biso   1.000  C
  H19      1.0000 0.66890  0.86480  0.75450  Biso   1.000  H
  C22      1.0000 0.75090  0.88110  0.74465  Biso   1.000  C
  H20      1.0000 0.76940  0.92360  0.74480  Biso   1.000  H
  C23      1.0000 0.78369  0.85360  0.73846  Biso   1.000  C
  C24      1.0000 0.75615  0.79069  0.73909  Biso   1.000  C
  H21      1.0000 0.77830  0.77180  0.73490  Biso   1.000  H
  C25      1.0000 0.53140  0.47270  0.71365  Biso   1.000  C
  H22      1.0000 0.49480  0.43770  0.71950  Biso   1.000  H
  H23      1.0000 0.51970  0.49930  0.70610  Biso   1.000  H
  C26      1.0000 0.53030  0.42550  0.68036  Biso   1.000  C
  C27      1.0000 0.47410  0.41540  0.67529  Biso   1.000  C
  H24      1.0000 0.45440  0.42930  0.68470  Biso   1.000  H
  C28      1.0000 0.44640  0.38500  0.65649  Biso   1.000  C
  H25      1.0000 0.40850  0.38010  0.65260  Biso   1.000  H
  C29      1.0000 0.47310  0.36170  0.64329  Biso   1.000  C
  H26      1.0000 0.45280  0.33920  0.63070  Biso   1.000  H
  C30      1.0000 0.52920  0.37130  0.64842  Biso   1.000  C
  C31      1.0000 0.55940  0.40430  0.66653  Biso   1.000  C
  H27      1.0000 0.59900  0.41270  0.66960  Biso   1.000  H
  C32      1.0000 0.55720  0.34290  0.63512  Biso   1.000  C
  C33      1.0000 0.71312  0.26860  0.78884  Biso   1.000  C
  C34      1.0000 0.73400  0.22780  0.79762  Biso   1.000  C
  C35      1.0000 0.75216  0.23576  0.81944  Biso   1.000  C
  H28      1.0000 0.75130  0.26580  0.82810  Biso   1.000  H
  C36      1.0000 0.77170  0.19790  0.82811  Biso   1.000  C
  C37      1.0000 0.77580  0.15570  0.81517  Biso   1.000  C
  H29      1.0000 0.79080  0.13160  0.82100  Biso   1.000  H
  C38      1.0000 0.75720  0.14930  0.79346  Biso   1.000  C
  H30      1.0000 0.75940  0.12020  0.78460  Biso   1.000  H
  C39      1.0000 0.73560  0.18470  0.78458  Biso   1.000  C
  H31      1.0000 0.72240  0.17940  0.76990  Biso   1.000  H
  C40      1.0000 0.79140  0.24960  0.86220  Biso   1.000  C
  H32      1.0000 0.74990  0.24150  0.86420  Biso   1.000  H
  H33      1.0000 0.81530  0.28920  0.85510  Biso   1.000  H
  C41      1.0000 0.81864  0.24872  0.88364  Biso   1.000  C
  C42      1.0000 0.78098  0.20660  0.89993  Biso   1.000  C
  C43      1.0000 0.80640  0.20490  0.91999  Biso   1.000  C
  C44      1.0000 0.86720  0.24600  0.92454  Biso   1.000  C
  C45      1.0000 0.90330  0.28730  0.90866  Biso   1.000  C
  C46      1.0000 0.88010  0.28665  0.88797  Biso   1.000  C
  C47      1.0000 0.92020  0.32590  0.86968  Biso   1.000  C
  H34      1.0000 0.92510  0.36610  0.87090  Biso   1.000  H
  H35      1.0000 0.90170  0.30820  0.85570  Biso   1.000  H
  H36      1.0000 0.95950  0.32880  0.87070  Biso   1.000  H
  C48      1.0000 0.71550  0.16560  0.89477  Biso   1.000  C
  H37      1.0000 0.70230  0.12570  0.90080  Biso   1.000  H
  H38      1.0000 0.70990  0.16250  0.87900  Biso   1.000  H
  H39      1.0000 0.69170  0.18190  0.90110  Biso   1.000  H
  C49      1.0000 0.89220  0.24860  0.94705  Biso   1.000  C
  H40      1.0000 0.93330  0.25590  0.94590  Biso   1.000  H
  H41      1.0000 0.86710  0.21040  0.95450  Biso   1.000  H
  H42      1.0000 0.89230  0.28120  0.95530  Biso   1.000  H
  C50      1.0000 0.76860  0.15790  0.93654  Biso   1.000  C
  H43      1.0000 0.73470  0.12300  0.92930  Biso   1.000  H
  H44      1.0000 0.79290  0.14400  0.94440  Biso   1.000  H
  C51      1.0000 0.71770  0.15250  0.96970  Biso   1.000  C
  C52      1.0000 0.70300  0.18210  0.98505  Biso   1.000  C
  H45      1.0000 0.71120  0.22190  0.98250  Biso   1.000  H
  C53      1.0000 0.67540  0.15180  0.00466  Biso   1.000  C
  C54      1.0000 0.66110  0.09480  0.00778  Biso   1.000  C
  H46      1.0000 0.63950  0.07420  0.02040  Biso   1.000  H
  C55      1.0000 0.67710  0.06630  0.99324  Biso   1.000  C
  H47      1.0000 0.67200  0.02800  0.99670  Biso   1.000  H
  C56      1.0000 0.70140  0.09250  0.97290  Biso   1.000  C
  H48      1.0000 0.70640  0.07000  0.96170  Biso   1.000  H
  C57      1.0000 0.66120  0.18480  0.02141  Biso   1.000  C
  C58      1.0000 0.96810  0.33110  0.91338  Biso   1.000  C
  H49      1.0000 0.98170  0.36860  0.90500  Biso   1.000  H
  H50      1.0000 0.97400  0.34100  0.92900  Biso   1.000  H
  C59      1.0000 0.06310  0.33660  0.90770  Biso   1.000  C
  C60      1.0000 0.09420  0.39103  0.91856  Biso   1.000  C
  H51      1.0000 0.07340  0.40680  0.92640  Biso   1.000  H
  C61      1.0000 0.15740  0.42230  0.91773  Biso   1.000  C
  C62      1.0000 0.18700  0.39830  0.90642  Biso   1.000  C
  H52      1.0000 0.22960  0.42000  0.90550  Biso   1.000  H
  C63      1.0000 0.15560  0.34370  0.89657  Biso   1.000  C
  H53      1.0000 0.17650  0.32680  0.88950  Biso   1.000  H
  C64      1.0000 0.09340  0.31280  0.89683  Biso   1.000  C
  H54      1.0000 0.07160  0.27540  0.88950  Biso   1.000  H
  C65      1.0000 0.19100  0.48220  0.92854  Biso   1.000  C
  C66      1.0000 0.84820  0.88990  0.73231  Biso   1.000  C
  O19      1.0000 0.67970  0.32950  0.91880  Biso   1.000  O
  C67      1.0000 0.72090  0.37490  0.92750  Biso   1.000  C
  H55      1.0000 0.71450  0.40690  0.93160  Biso   1.000  H
  N1       1.0000 0.78000  0.37980  0.93142  Biso   1.000  N
  C68      1.0000 0.78570  0.32600  0.93100  Biso   1.000  C
  H56      1.0000 0.75600  0.29580  0.94090  Biso   1.000  H
  H57      1.0000 0.82610  0.33630  0.93580  Biso   1.000  H
  H58      1.0000 0.77880  0.30980  0.91630  Biso   1.000  H
  C69      1.0000 0.83190  0.43870  0.93550  Biso   1.000  C
  H59      1.0000 0.85960  0.43460  0.94540  Biso   1.000  H
  H60      1.0000 0.81880  0.46480  0.94220  Biso   1.000  H
  H61      1.0000 0.85240  0.45640  0.92180  Biso   1.000  H
  Cd3      1.0000 0.91074  0.92930  0.27689  Biso   1.000  Cd
  Cd4      1.0000 0.93425  0.90149  0.22161  Biso   1.000  Cd
  O20      1.0000 0.32332  0.72808  0.18550  Biso   1.000  O
  O21      1.0000 0.27070  0.70458  0.21544  Biso   1.000  O
  O22      1.0000 0.28134  0.69863  0.96933  Biso   1.000  O
  O23      1.0000 0.18964  0.63114  0.95735  Biso   1.000  O
  O24      1.0000 0.53500  0.19918  0.05302  Biso   1.000  O
  O25      1.0000 0.54608  0.27504  0.07336  Biso   1.000  O
  O26      1.0000 0.38719  0.64629  0.13359  Biso   1.000  O
  O27      1.0000 0.35688  0.59242  0.10315  Biso   1.000  O
  O28      1.0000 0.83285  0.82944  0.27614  Biso   1.000  O
  O29      1.0000 0.91144  0.85270  0.25536  Biso   1.000  O
  O30      1.0000 0.30967  0.49393  0.37271  Biso   1.000  O
  O31      1.0000 0.33307  0.56823  0.35084  Biso   1.000  O
  O32      1.0000 0.23612  0.82269  0.13655  Biso   1.000  O
  O33      1.0000 0.33384  0.02866  0.08092  Biso   1.000  O
  O34      1.0000 0.22782  0.78681  0.03232  Biso   1.000  O
  O35      1.0000 0.45841  0.53631  0.18236  Biso   1.000  O
  O36      1.0000 0.41307  0.51898  0.28479  Biso   1.000  O
  O37      1.0000 0.66809  0.63529  0.24022  Biso   1.000  O
  C70      1.0000 0.28193  0.72697  0.19696  Biso   1.000  C
  C71      1.0000 0.24898  0.75572  0.18793  Biso   1.000  C
  C72      1.0000 0.20997  0.76573  0.20078  Biso   1.000  C
  H62      1.0000 0.20237  0.75223  0.21543  Biso   1.000  H
  C73      1.0000 0.18207  0.79583  0.19190  Biso   1.000  C
  H63      1.0000 0.15627  0.80353  0.20073  Biso   1.000  H
  C74      1.0000 0.19137  0.81403  0.17091  Biso   1.000  C
  H64      1.0000 0.17277  0.83493  0.16513  Biso   1.000  H
  C75      1.0000 0.22897  0.80193  0.15764  Biso   1.000  C
  C76      1.0000 0.25804  0.77433  0.16646  Biso   1.000  C
  H65      1.0000 0.28477  0.76803  0.15773  Biso   1.000  H
  C77      1.0000 0.27697  0.81323  0.12277  Biso   1.000  C
  H66      1.0000 0.26167  0.76983  0.12063  Biso   1.000  H
  H67      1.0000 0.31727  0.83143  0.12943  Biso   1.000  H
  C78      1.0000 0.27950  0.84327  0.10120  Biso   1.000  C
  C79      1.0000 0.23977  0.81083  0.08492  Biso   1.000  C
  C80      1.0000 0.24156  0.83963  0.06528  Biso   1.000  C
  C81      1.0000 0.28437  0.90033  0.06231  Biso   1.000  C
  C82      1.0000 0.32379  0.93223  0.07910  Biso   1.000  C
  C83      1.0000 0.32138  0.90553  0.09924  Biso   1.000  C
  C84      1.0000 0.36087  0.94123  0.11775  Biso   1.000  C
  H68      1.0000 0.40027  0.94433  0.11623  Biso   1.000  H
  H69      1.0000 0.34257  0.92123  0.13143  Biso   1.000  H
  H70      1.0000 0.36567  0.98143  0.11763  Biso   1.000  H
  C85      1.0000 0.19507  0.74463  0.08794  Biso   1.000  C
  H71      1.0000 0.21117  0.72073  0.08153  Biso   1.000  H
  H72      1.0000 0.15717  0.73483  0.08073  Biso   1.000  H
  H73      1.0000 0.18787  0.73563  0.10343  Biso   1.000  H
  C86      1.0000 0.28897  0.93093  0.04035  Biso   1.000  C
  H74      1.0000 0.31727  0.92663  0.03093  Biso   1.000  H
  H75      1.0000 0.30317  0.97363  0.04273  Biso   1.000  H
  H76      1.0000 0.24947  0.91203  0.03343  Biso   1.000  H
  C87      1.0000 0.36737  0.99983  0.07622  Biso   1.000  C
  H77      1.0000 0.40167  0.01373  0.08633  Biso   1.000  H
  H78      1.0000 0.38287  0.00873  0.06113  Biso   1.000  H
  C88      1.0000 0.36387  0.08933  0.07909  Biso   1.000  C
  C89      1.0000 0.33047  0.11773  0.08429  Biso   1.000  C
  H79      1.0000 0.28917  0.09423  0.08803  Biso   1.000  H
  C90      1.0000 0.35787  0.17933  0.08395  Biso   1.000  C
  H80      1.0000 0.33557  0.19813  0.08783  Biso   1.000  H
  C91      1.0000 0.41757  0.21443  0.07798  Biso   1.000  C
  H81      1.0000 0.43607  0.25693  0.07813  Biso   1.000  H
  C92      1.0000 0.45036  0.18693  0.07179  Biso   1.000  C
  C93      1.0000 0.42282  0.12402  0.07242  Biso   1.000  C
  H82      1.0000 0.44497  0.10513  0.06823  Biso   1.000  H
  C94      1.0000 0.19807  0.80603  0.04698  Biso   1.000  C
  H83      1.0000 0.16147  0.77103  0.05283  Biso   1.000  H
  H84      1.0000 0.18637  0.83263  0.03943  Biso   1.000  H
  C95      1.0000 0.19697  0.75883  0.01369  Biso   1.000  C
  C96      1.0000 0.14077  0.74873  0.00862  Biso   1.000  C
  H85      1.0000 0.12107  0.76263  0.01803  Biso   1.000  H
  C97      1.0000 0.11307  0.71833  0.98982  Biso   1.000  C
  H86      1.0000 0.07517  0.71343  0.98593  Biso   1.000  H
  C98      1.0000 0.13977  0.69503  0.97662  Biso   1.000  C
  H87      1.0000 0.11947  0.67253  0.96403  Biso   1.000  H
  C99      1.0000 0.19587  0.70463  0.98175  Biso   1.000  C
  C100     1.0000 0.22607  0.73763  0.99986  Biso   1.000  C
  H88      1.0000 0.26567  0.74603  0.00293  Biso   1.000  H
  C101     1.0000 0.22387  0.67623  0.96845  Biso   1.000  C
  C102     1.0000 0.37979  0.60193  0.12217  Biso   1.000  C
  C103     1.0000 0.40067  0.56113  0.13095  Biso   1.000  C
  C104     1.0000 0.41883  0.56909  0.15277  Biso   1.000  C
  H89      1.0000 0.41797  0.59913  0.16143  Biso   1.000  H
  C105     1.0000 0.43837  0.53123  0.16144  Biso   1.000  C
  C106     1.0000 0.44247  0.48903  0.14850  Biso   1.000  C
  H90      1.0000 0.45747  0.46493  0.15433  Biso   1.000  H
  C107     1.0000 0.42387  0.48263  0.12679  Biso   1.000  C
  H91      1.0000 0.42607  0.45353  0.11793  Biso   1.000  H
  C108     1.0000 0.40227  0.51803  0.11791  Biso   1.000  C
  H92      1.0000 0.38907  0.51273  0.10323  Biso   1.000  H
  C109     1.0000 0.45807  0.58293  0.19553  Biso   1.000  C
  H93      1.0000 0.41657  0.57483  0.19753  Biso   1.000  H
  H94      1.0000 0.48197  0.62253  0.18843  Biso   1.000  H
  C110     1.0000 0.48531  0.58205  0.21697  Biso   1.000  C
  C111     1.0000 0.44765  0.53993  0.23326  Biso   1.000  C
  C112     1.0000 0.47307  0.53823  0.25332  Biso   1.000  C
  C113     1.0000 0.53387  0.57933  0.25787  Biso   1.000  C
  C114     1.0000 0.56997  0.62063  0.24199  Biso   1.000  C
  C115     1.0000 0.54677  0.61998  0.22130  Biso   1.000  C
  C116     1.0000 0.58687  0.65923  0.20301  Biso   1.000  C
  H95      1.0000 0.59177  0.69943  0.20423  Biso   1.000  H
  H96      1.0000 0.56837  0.64153  0.18903  Biso   1.000  H
  H97      1.0000 0.62617  0.66213  0.20403  Biso   1.000  H
  C117     1.0000 0.38217  0.49893  0.22810  Biso   1.000  C
  H98      1.0000 0.36897  0.45903  0.23413  Biso   1.000  H
  H99      1.0000 0.37657  0.49583  0.21233  Biso   1.000  H
  H100     1.0000 0.35837  0.51523  0.23443  Biso   1.000  H
  C118     1.0000 0.55887  0.58193  0.28038  Biso   1.000  C
  H101     1.0000 0.59997  0.58923  0.27923  Biso   1.000  H
  H102     1.0000 0.53377  0.54373  0.28783  Biso   1.000  H
  H103     1.0000 0.55897  0.61453  0.28863  Biso   1.000  H
  C119     1.0000 0.43527  0.49123  0.26987  Biso   1.000  C
  H104     1.0000 0.40137  0.45633  0.26263  Biso   1.000  H
  H105     1.0000 0.45957  0.47733  0.27773  Biso   1.000  H
  C120     1.0000 0.38437  0.48583  0.30303  Biso   1.000  C
  C121     1.0000 0.36967  0.51543  0.31838  Biso   1.000  C
  H106     1.0000 0.37787  0.55523  0.31583  Biso   1.000  H
  C122     1.0000 0.34207  0.48513  0.33799  Biso   1.000  C
  C123     1.0000 0.32777  0.42813  0.34111  Biso   1.000  C
  H107     1.0000 0.30617  0.40753  0.35373  Biso   1.000  H
  C124     1.0000 0.34377  0.39963  0.32657  Biso   1.000  C
  H108     1.0000 0.33867  0.36133  0.33003  Biso   1.000  H
  C125     1.0000 0.36807  0.42583  0.30623  Biso   1.000  C
  H109     1.0000 0.37307  0.40333  0.29503  Biso   1.000  H
  C126     1.0000 0.32787  0.51813  0.35474  Biso   1.000  C
  C127     1.0000 0.63477  0.66443  0.24671  Biso   1.000  C
  H110     1.0000 0.64837  0.70193  0.23833  Biso   1.000  H
  H111     1.0000 0.64067  0.67433  0.26233  Biso   1.000  H
  C128     1.0000 0.72977  0.66993  0.24103  Biso   1.000  C
  C129     1.0000 0.76087  0.72436  0.25189  Biso   1.000  C
  H112     1.0000 0.74007  0.74013  0.25973  Biso   1.000  H
  C130     1.0000 0.82407  0.75563  0.25106  Biso   1.000  C
  C131     1.0000 0.85367  0.73163  0.23975  Biso   1.000  C
  H113     1.0000 0.89627  0.75333  0.23883  Biso   1.000  H
  C132     1.0000 0.82227  0.67703  0.22990  Biso   1.000  C
  H114     1.0000 0.84317  0.66013  0.22283  Biso   1.000  H
  C133     1.0000 0.76007  0.64613  0.23016  Biso   1.000  C
  H115     1.0000 0.73827  0.60873  0.22283  Biso   1.000  H
  C134     1.0000 0.85767  0.81553  0.26187  Biso   1.000  C
  C135     1.0000 0.51487  0.22323  0.06564  Biso   1.000  C
  O38      1.0000 0.34637  0.66283  0.25213  Biso   1.000  O
  C136     1.0000 0.38757  0.70823  0.26083  Biso   1.000  C
  H116     1.0000 0.38117  0.74023  0.26493  Biso   1.000  H
  N2       1.0000 0.44667  0.71313  0.26475  Biso   1.000  N
  C137     1.0000 0.45237  0.65933  0.26433  Biso   1.000  C
  H117     1.0000 0.42267  0.62913  0.27423  Biso   1.000  H
  H118     1.0000 0.49277  0.66963  0.26913  Biso   1.000  H
  H119     1.0000 0.44547  0.64313  0.24963  Biso   1.000  H
  C138     1.0000 0.49857  0.77203  0.26883  Biso   1.000  C
  H120     1.0000 0.52627  0.76793  0.27873  Biso   1.000  H
  H121     1.0000 0.48547  0.79813  0.27553  Biso   1.000  H
  H122     1.0000 0.51907  0.78973  0.25513  Biso   1.000  H
  Cd5      1.0000 0.57741  0.26264  0.61022  Biso   1.000  Cd
  Cd6      1.0000 0.60092  0.23482  0.55494  Biso   1.000  Cd
  O39      1.0000 0.98998  0.06142  0.51884  Biso   1.000  O
  O40      1.0000 0.93736  0.03792  0.54878  Biso   1.000  O
  O41      1.0000 0.94800  0.03197  0.30267  Biso   1.000  O
  O42      1.0000 0.85630  0.96448  0.29069  Biso   1.000  O
  O43      1.0000 0.20166  0.53252  0.38636  Biso   1.000  O
  O44      1.0000 0.21274  0.60838  0.40670  Biso   1.000  O
  O45      1.0000 0.05385  0.97963  0.46693  Biso   1.000  O
  O46      1.0000 0.02354  0.92576  0.43649  Biso   1.000  O
  O47      1.0000 0.49951  0.16278  0.60948  Biso   1.000  O
  O48      1.0000 0.57810  0.18604  0.58870  Biso   1.000  O
  O49      1.0000 0.97633  0.82727  0.70605  Biso   1.000  O
  O50      1.0000 0.99973  0.90157  0.68418  Biso   1.000  O
  O51      1.0000 0.90278  0.15603  0.46989  Biso   1.000  O
  O52      1.0000 0.00050  0.36200  0.41426  Biso   1.000  O
  O53      1.0000 0.89448  0.12015  0.36566  Biso   1.000  O
  O54      1.0000 0.12507  0.86965  0.51570  Biso   1.000  O
  O55      1.0000 0.07973  0.85232  0.61813  Biso   1.000  O
  O56      1.0000 0.33475  0.96863  0.57356  Biso   1.000  O
  C139     1.0000 0.94859  0.06031  0.53030  Biso   1.000  C
  C140     1.0000 0.91564  0.08906  0.52127  Biso   1.000  C
  C141     1.0000 0.87663  0.09907  0.53412  Biso   1.000  C
  H123     1.0000 0.86903  0.08557  0.54877  Biso   1.000  H
  C142     1.0000 0.84873  0.12917  0.52524  Biso   1.000  C
  H124     1.0000 0.82293  0.13687  0.53407  Biso   1.000  H
  C143     1.0000 0.85803  0.14737  0.50425  Biso   1.000  C
  H125     1.0000 0.83943  0.16827  0.49847  Biso   1.000  H
  C144     1.0000 0.89563  0.13527  0.49098  Biso   1.000  C
  C145     1.0000 0.92470  0.10767  0.49980  Biso   1.000  C
  H126     1.0000 0.95143  0.10137  0.49107  Biso   1.000  H
  C146     1.0000 0.94363  0.14657  0.45611  Biso   1.000  C
  H127     1.0000 0.92833  0.10317  0.45397  Biso   1.000  H
  H128     1.0000 0.98393  0.16477  0.46277  Biso   1.000  H
  C147     1.0000 0.94616  0.17661  0.43454  Biso   1.000  C
  C148     1.0000 0.90643  0.14417  0.41826  Biso   1.000  C
  C149     1.0000 0.90822  0.17297  0.39862  Biso   1.000  C
  C150     1.0000 0.95103  0.23367  0.39565  Biso   1.000  C
  C151     1.0000 0.99045  0.26557  0.41244  Biso   1.000  C
  C152     1.0000 0.98804  0.23887  0.43258  Biso   1.000  C
  C153     1.0000 0.02753  0.27457  0.45109  Biso   1.000  C
  H129     1.0000 0.06693  0.27767  0.44957  Biso   1.000  H
  H130     1.0000 0.00923  0.25457  0.46477  Biso   1.000  H
  H131     1.0000 0.03233  0.31477  0.45097  Biso   1.000  H
  C154     1.0000 0.86173  0.07797  0.42128  Biso   1.000  C
  H132     1.0000 0.87783  0.05407  0.41487  Biso   1.000  H
  H133     1.0000 0.82383  0.06817  0.41407  Biso   1.000  H
  H134     1.0000 0.85453  0.06897  0.43677  Biso   1.000  H
  C155     1.0000 0.95563  0.26427  0.37369  Biso   1.000  C
  H135     1.0000 0.98393  0.25997  0.36427  Biso   1.000  H
  H136     1.0000 0.96983  0.30697  0.37607  Biso   1.000  H
  H137     1.0000 0.91613  0.24537  0.36677  Biso   1.000  H
  C156     1.0000 0.03403  0.33317  0.40956  Biso   1.000  C
  H138     1.0000 0.06833  0.34707  0.41967  Biso   1.000  H
  H139     1.0000 0.04953  0.34207  0.39447  Biso   1.000  H
  C157     1.0000 0.03053  0.42267  0.41243  Biso   1.000  C
  C158     1.0000 0.99713  0.45107  0.41763  Biso   1.000  C
  H140     1.0000 0.95583  0.42757  0.42137  Biso   1.000  H
  C159     1.0000 0.02453  0.51267  0.41729  Biso   1.000  C
  H141     1.0000 0.00223  0.53147  0.42117  Biso   1.000  H
  C160     1.0000 0.08423  0.54777  0.41132  Biso   1.000  C
  H142     1.0000 0.10273  0.59027  0.41147  Biso   1.000  H
  C161     1.0000 0.11702  0.52027  0.40513  Biso   1.000  C
  C162     1.0000 0.08948  0.45736  0.40576  Biso   1.000  C
  H143     1.0000 0.11163  0.43847  0.40157  Biso   1.000  H
  C163     1.0000 0.86473  0.13937  0.38032  Biso   1.000  C
  H144     1.0000 0.82813  0.10437  0.38617  Biso   1.000  H
  H145     1.0000 0.85303  0.16597  0.37277  Biso   1.000  H
  C164     1.0000 0.86363  0.09217  0.34703  Biso   1.000  C
  C165     1.0000 0.80743  0.08207  0.34196  Biso   1.000  C
  H146     1.0000 0.78773  0.09597  0.35137  Biso   1.000  H
  C166     1.0000 0.77973  0.05167  0.32316  Biso   1.000  C
  H147     1.0000 0.74183  0.04677  0.31927  Biso   1.000  H
  C167     1.0000 0.80643  0.02837  0.30996  Biso   1.000  C
  H148     1.0000 0.78613  0.00587  0.29737  Biso   1.000  H
  C168     1.0000 0.86253  0.03797  0.31509  Biso   1.000  C
  C169     1.0000 0.89273  0.07097  0.33320  Biso   1.000  C
  H149     1.0000 0.93233  0.07937  0.33627  Biso   1.000  H
  C170     1.0000 0.89053  0.00957  0.30179  Biso   1.000  C
  C171     1.0000 0.04645  0.93527  0.45551  Biso   1.000  C
  C172     1.0000 0.06733  0.89447  0.46429  Biso   1.000  C
  C173     1.0000 0.08549  0.90243  0.48611  Biso   1.000  C
  H150     1.0000 0.08463  0.93247  0.49477  Biso   1.000  H
  C174     1.0000 0.10503  0.86457  0.49478  Biso   1.000  C
  C175     1.0000 0.10913  0.82237  0.48184  Biso   1.000  C
  H151     1.0000 0.12413  0.79827  0.48767  Biso   1.000  H
  C176     1.0000 0.09053  0.81597  0.46013  Biso   1.000  C
  H152     1.0000 0.09273  0.78687  0.45127  Biso   1.000  H
  C177     1.0000 0.06893  0.85137  0.45125  Biso   1.000  C
  H153     1.0000 0.05573  0.84607  0.43657  Biso   1.000  H
  C178     1.0000 0.12473  0.91627  0.52887  Biso   1.000  C
  H154     1.0000 0.08323  0.90817  0.53087  Biso   1.000  H
  H155     1.0000 0.14863  0.95587  0.52177  Biso   1.000  H
  C179     1.0000 0.15197  0.91539  0.55031  Biso   1.000  C
  C180     1.0000 0.11431  0.87327  0.56660  Biso   1.000  C
  C181     1.0000 0.13973  0.87157  0.58666  Biso   1.000  C
  C182     1.0000 0.20053  0.91267  0.59121  Biso   1.000  C
  C183     1.0000 0.23663  0.95397  0.57533  Biso   1.000  C
  C184     1.0000 0.21343  0.95332  0.55464  Biso   1.000  C
  C185     1.0000 0.25353  0.99257  0.53635  Biso   1.000  C
  H156     1.0000 0.25843  0.03277  0.53757  Biso   1.000  H
  H157     1.0000 0.23503  0.97487  0.52237  Biso   1.000  H
  H158     1.0000 0.29283  0.99547  0.53737  Biso   1.000  H
  C186     1.0000 0.04883  0.83227  0.56144  Biso   1.000  C
  H159     1.0000 0.03563  0.79237  0.56747  Biso   1.000  H
  H160     1.0000 0.04323  0.82917  0.54567  Biso   1.000  H
  H161     1.0000 0.02503  0.84857  0.56777  Biso   1.000  H
  C187     1.0000 0.22553  0.91527  0.61372  Biso   1.000  C
  H162     1.0000 0.26663  0.92257  0.61257  Biso   1.000  H
  H163     1.0000 0.20043  0.87707  0.62117  Biso   1.000  H
  H164     1.0000 0.22563  0.94787  0.62197  Biso   1.000  H
  C188     1.0000 0.10193  0.82457  0.60321  Biso   1.000  C
  H165     1.0000 0.06803  0.78967  0.59597  Biso   1.000  H
  H166     1.0000 0.12623  0.81067  0.61107  Biso   1.000  H
  C189     1.0000 0.05103  0.81917  0.63637  Biso   1.000  C
  C190     1.0000 0.03633  0.84877  0.65172  Biso   1.000  C
  H167     1.0000 0.04453  0.88857  0.64917  Biso   1.000  H
  C191     1.0000 0.00873  0.81847  0.67133  Biso   1.000  C
  C192     1.0000 0.99443  0.76147  0.67445  Biso   1.000  C
  H168     1.0000 0.97283  0.74087  0.68707  Biso   1.000  H
  C193     1.0000 0.01043  0.73297  0.65991  Biso   1.000  C
  H169     1.0000 0.00533  0.69467  0.66337  Biso   1.000  H
  C194     1.0000 0.03473  0.75917  0.63957  Biso   1.000  C
  H170     1.0000 0.03973  0.73667  0.62837  Biso   1.000  H
  C195     1.0000 0.99453  0.85147  0.68808  Biso   1.000  C
  C196     1.0000 0.30143  0.99777  0.58005  Biso   1.000  C
  H171     1.0000 0.31503  0.03527  0.57167  Biso   1.000  H
  H172     1.0000 0.30733  0.00767  0.59567  Biso   1.000  H
  C197     1.0000 0.39643  0.00327  0.57437  Biso   1.000  C
  C198     1.0000 0.42753  0.05770  0.58523  Biso   1.000  C
  H173     1.0000 0.40673  0.07347  0.59307  Biso   1.000  H
  C199     1.0000 0.49073  0.08897  0.58440  Biso   1.000  C
  C200     1.0000 0.52033  0.06497  0.57309  Biso   1.000  C
  H174     1.0000 0.56293  0.08667  0.57217  Biso   1.000  H
  C201     1.0000 0.48893  0.01037  0.56324  Biso   1.000  C
  H175     1.0000 0.50983  0.99347  0.55617  Biso   1.000  H
  C202     1.0000 0.42673  0.97947  0.56350  Biso   1.000  C
  H176     1.0000 0.40493  0.94207  0.55617  Biso   1.000  H
  C203     1.0000 0.52433  0.14887  0.59521  Biso   1.000  C
  C204     1.0000 0.18153  0.55657  0.39898  Biso   1.000  C
  O57      1.0000 0.01303  0.99617  0.58547  Biso   1.000  O
  C205     1.0000 0.05423  0.04157  0.59417  Biso   1.000  C
  H177     1.0000 0.04783  0.07357  0.59827  Biso   1.000  H
  N3       1.0000 0.11333  0.04647  0.59809  Biso   1.000  N
  C206     1.0000 0.11903  0.99267  0.59767  Biso   1.000  C
  H178     1.0000 0.08933  0.96247  0.60757  Biso   1.000  H
  H179     1.0000 0.15943  0.00297  0.60247  Biso   1.000  H
  H180     1.0000 0.11213  0.97647  0.58297  Biso   1.000  H
  C207     1.0000 0.16523  0.10537  0.60217  Biso   1.000  C
  H181     1.0000 0.19293  0.10127  0.61207  Biso   1.000  H
  H182     1.0000 0.15213  0.13147  0.60887  Biso   1.000  H
  H183     1.0000 0.18573  0.12307  0.58847  Biso   1.000  H
  Cd7      1.0000 0.40403  0.64810  0.94355  Biso   1.000  Cd
  Cd8      1.0000 0.43184  0.69943  0.88828  Biso   1.000  Cd
  O58      1.0000 0.60525  0.26190  0.85217  Biso   1.000  O
  O59      1.0000 0.62875  0.23278  0.88211  Biso   1.000  O
  O60      1.0000 0.63470  0.24937  0.63600  Biso   1.000  O
  O61      1.0000 0.70219  0.22516  0.62402  Biso   1.000  O
  O62      1.0000 0.13415  0.00248  0.71969  Biso   1.000  O
  O63      1.0000 0.05829  0.93770  0.74003  Biso   1.000  O
  O64      1.0000 0.68704  0.40756  0.80026  Biso   1.000  O
  O65      1.0000 0.74091  0.43112  0.76982  Biso   1.000  O
  O66      1.0000 0.50389  0.67007  0.94281  Biso   1.000  O
  O67      1.0000 0.48063  0.72540  0.92203  Biso   1.000  O
  O68      1.0000 0.83940  0.48240  0.03938  Biso   1.000  O
  O69      1.0000 0.76510  0.43150  0.01751  Biso   1.000  O
  O70      1.0000 0.51064  0.08009  0.80322  Biso   1.000  O
  O71      1.0000 0.30467  0.97184  0.74759  Biso   1.000  O
  O72      1.0000 0.54652  0.10767  0.69899  Biso   1.000  O
  O73      1.0000 0.79702  0.58876  0.84903  Biso   1.000  O
  O74      1.0000 0.81435  0.56075  0.95146  Biso   1.000  O
  O75      1.0000 0.69804  0.69946  0.90689  Biso   1.000  O
  C208     1.0000 0.60636  0.22162  0.86363  Biso   1.000  C
  C209     1.0000 0.57761  0.15992  0.85460  Biso   1.000  C
  C210     1.0000 0.56760  0.11090  0.86745  Biso   1.000  C
  H184     1.0000 0.58110  0.11680  0.88210  Biso   1.000  H
  C211     1.0000 0.53750  0.05290  0.85857  Biso   1.000  C
  H185     1.0000 0.52980  0.01940  0.86740  Biso   1.000  H
  C212     1.0000 0.51930  0.04400  0.83758  Biso   1.000  C
  H186     1.0000 0.49840  0.00450  0.83180  Biso   1.000  H
  C213     1.0000 0.53140  0.09370  0.82431  Biso   1.000  C
  C214     1.0000 0.55900  0.15037  0.83313  Biso   1.000  C
  H187     1.0000 0.56530  0.18340  0.82440  Biso   1.000  H
  C215     1.0000 0.52010  0.13040  0.78944  Biso   1.000  C
  H188     1.0000 0.56350  0.15850  0.78730  Biso   1.000  H
  H189     1.0000 0.50190  0.15250  0.79610  Biso   1.000  H
  C216     1.0000 0.49006  0.10289  0.76787  Biso   1.000  C
  C217     1.0000 0.52250  0.09560  0.75159  Biso   1.000  C
  C218     1.0000 0.49370  0.06859  0.73195  Biso   1.000  C
  C219     1.0000 0.43300  0.05070  0.72898  Biso   1.000  C
  C220     1.0000 0.40110  0.05822  0.74577  Biso   1.000  C
  C221     1.0000 0.42780  0.08251  0.76591  Biso   1.000  C
  C222     1.0000 0.39210  0.08630  0.78442  Biso   1.000  C
  H190     1.0000 0.38900  0.12260  0.78290  Biso   1.000  H
  H191     1.0000 0.41210  0.08800  0.79810  Biso   1.000  H
  H192     1.0000 0.35190  0.05090  0.78430  Biso   1.000  H
  C223     1.0000 0.58870  0.11710  0.75461  Biso   1.000  C
  H193     1.0000 0.61260  0.15710  0.74820  Biso   1.000  H
  H194     1.0000 0.59850  0.08900  0.74740  Biso   1.000  H
  H195     1.0000 0.59770  0.11890  0.77010  Biso   1.000  H
  C224     1.0000 0.40240  0.02470  0.70702  Biso   1.000  C
  H196     1.0000 0.40670  0.05730  0.69760  Biso   1.000  H
  H197     1.0000 0.35970  0.99620  0.70940  Biso   1.000  H
  H198     1.0000 0.42130  0.00410  0.70010  Biso   1.000  H
  C225     1.0000 0.33350  0.03420  0.74289  Biso   1.000  C
  H199     1.0000 0.31960  0.05460  0.75300  Biso   1.000  H
  H200     1.0000 0.32460  0.04080  0.72780  Biso   1.000  H
  C226     1.0000 0.24400  0.94120  0.74576  Biso   1.000  C
  C227     1.0000 0.21560  0.87940  0.75096  Biso   1.000  C
  H201     1.0000 0.23910  0.86160  0.75470  Biso   1.000  H
  C228     1.0000 0.15400  0.84520  0.75062  Biso   1.000  C
  H202     1.0000 0.13520  0.80410  0.75450  Biso   1.000  H
  C229     1.0000 0.11890  0.86980  0.74465  Biso   1.000  C
  H203     1.0000 0.07640  0.84580  0.74480  Biso   1.000  H
  C230     1.0000 0.14640  0.93009  0.73846  Biso   1.000  C
  C231     1.0000 0.20931  0.96546  0.73909  Biso   1.000  C
  H204     1.0000 0.22820  0.00650  0.73490  Biso   1.000  H
  C232     1.0000 0.52730  0.05870  0.71365  Biso   1.000  C
  H205     1.0000 0.56230  0.05710  0.71950  Biso   1.000  H
  H206     1.0000 0.50070  0.02040  0.70610  Biso   1.000  H
  C233     1.0000 0.57450  0.10480  0.68036  Biso   1.000  C
  C234     1.0000 0.58460  0.05870  0.67529  Biso   1.000  C
  H207     1.0000 0.57070  0.02510  0.68470  Biso   1.000  H
  C235     1.0000 0.61500  0.06140  0.65649  Biso   1.000  C
  H208     1.0000 0.61990  0.02840  0.65260  Biso   1.000  H
  C236     1.0000 0.63830  0.11140  0.64329  Biso   1.000  C
  H209     1.0000 0.66080  0.11360  0.63070  Biso   1.000  H
  C237     1.0000 0.62870  0.15790  0.64842  Biso   1.000  C
  C238     1.0000 0.59570  0.15510  0.66653  Biso   1.000  C
  H210     1.0000 0.58730  0.18630  0.66960  Biso   1.000  H
  C239     1.0000 0.65710  0.21430  0.63512  Biso   1.000  C
  C240     1.0000 0.73140  0.44452  0.78884  Biso   1.000  C
  C241     1.0000 0.77220  0.50620  0.79762  Biso   1.000  C
  C242     1.0000 0.76424  0.51640  0.81944  Biso   1.000  C
  H211     1.0000 0.73420  0.48550  0.82810  Biso   1.000  H
  C243     1.0000 0.80210  0.57380  0.82811  Biso   1.000  C
  C244     1.0000 0.84430  0.62010  0.81517  Biso   1.000  C
  H212     1.0000 0.86840  0.65920  0.82100  Biso   1.000  H
  C245     1.0000 0.85070  0.60790  0.79346  Biso   1.000  C
  H213     1.0000 0.87980  0.63920  0.78460  Biso   1.000  H
  C246     1.0000 0.81530  0.55090  0.78458  Biso   1.000  C
  H214     1.0000 0.82060  0.54300  0.76990  Biso   1.000  H
  C247     1.0000 0.75040  0.54180  0.86220  Biso   1.000  C
  H215     1.0000 0.75850  0.50840  0.86420  Biso   1.000  H
  H216     1.0000 0.71080  0.52610  0.85510  Biso   1.000  H
  C248     1.0000 0.75128  0.56992  0.88364  Biso   1.000  C
  C249     1.0000 0.79340  0.57438  0.89993  Biso   1.000  C
  C250     1.0000 0.79510  0.60150  0.91999  Biso   1.000  C
  C251     1.0000 0.75400  0.62120  0.92454  Biso   1.000  C
  C252     1.0000 0.71270  0.61600  0.90866  Biso   1.000  C
  C253     1.0000 0.71335  0.59345  0.88797  Biso   1.000  C
  C254     1.0000 0.67410  0.59430  0.86968  Biso   1.000  C
  H217     1.0000 0.63390  0.55900  0.87090  Biso   1.000  H
  H218     1.0000 0.69180  0.59350  0.85570  Biso   1.000  H
  H219     1.0000 0.67120  0.63070  0.87070  Biso   1.000  H
  C255     1.0000 0.83440  0.54990  0.89477  Biso   1.000  C
  H220     1.0000 0.87430  0.57660  0.90080  Biso   1.000  H
  H221     1.0000 0.83750  0.54740  0.87900  Biso   1.000  H
  H222     1.0000 0.81810  0.50980  0.90110  Biso   1.000  H
  C256     1.0000 0.75140  0.64360  0.94705  Biso   1.000  C
  H223     1.0000 0.74410  0.67740  0.94590  Biso   1.000  H
  H224     1.0000 0.78960  0.65670  0.95450  Biso   1.000  H
  H225     1.0000 0.71880  0.61110  0.95530  Biso   1.000  H
  C257     1.0000 0.84210  0.61070  0.93654  Biso   1.000  C
  H226     1.0000 0.87700  0.61170  0.92930  Biso   1.000  H
  H227     1.0000 0.85600  0.64890  0.94440  Biso   1.000  H
  C258     1.0000 0.84750  0.56520  0.96970  Biso   1.000  C
  C259     1.0000 0.81790  0.52090  0.98505  Biso   1.000  C
  H228     1.0000 0.77810  0.48930  0.98250  Biso   1.000  H
  C260     1.0000 0.84820  0.52360  0.00466  Biso   1.000  C
  C261     1.0000 0.90520  0.56630  0.00778  Biso   1.000  C
  H229     1.0000 0.92580  0.56530  0.02040  Biso   1.000  H
  C262     1.0000 0.93370  0.61080  0.99324  Biso   1.000  C
  H230     1.0000 0.97200  0.64400  0.99670  Biso   1.000  H
  C263     1.0000 0.90750  0.60890  0.97290  Biso   1.000  C
  H231     1.0000 0.93000  0.63640  0.96170  Biso   1.000  H
  C264     1.0000 0.81520  0.47640  0.02141  Biso   1.000  C
  C265     1.0000 0.66890  0.63700  0.91338  Biso   1.000  C
  H232     1.0000 0.63140  0.61310  0.90500  Biso   1.000  H
  H233     1.0000 0.65900  0.63300  0.92900  Biso   1.000  H
  C266     1.0000 0.66340  0.72650  0.90770  Biso   1.000  C
  C267     1.0000 0.60897  0.70317  0.91856  Biso   1.000  C
  H234     1.0000 0.59320  0.66660  0.92640  Biso   1.000  H
  C268     1.0000 0.57770  0.73510  0.91773  Biso   1.000  C
  C269     1.0000 0.60170  0.78870  0.90642  Biso   1.000  C
  H235     1.0000 0.58000  0.80960  0.90550  Biso   1.000  H
  C270     1.0000 0.65630  0.81190  0.89657  Biso   1.000  C
  H236     1.0000 0.67320  0.84970  0.88950  Biso   1.000  H
  C271     1.0000 0.68720  0.78060  0.89683  Biso   1.000  C
  H237     1.0000 0.72460  0.79620  0.88950  Biso   1.000  H
  C272     1.0000 0.51780  0.70880  0.92854  Biso   1.000  C
  C273     1.0000 0.11010  0.95830  0.73231  Biso   1.000  C
  O76      1.0000 0.67050  0.35020  0.91880  Biso   1.000  O
  C274     1.0000 0.62510  0.34600  0.92750  Biso   1.000  C
  H238     1.0000 0.59310  0.30760  0.93160  Biso   1.000  H
  N4       1.0000 0.62020  0.40020  0.93142  Biso   1.000  N
  C275     1.0000 0.67400  0.45970  0.93100  Biso   1.000  C
  H239     1.0000 0.70420  0.46020  0.94090  Biso   1.000  H
  H240     1.0000 0.66370  0.48980  0.93580  Biso   1.000  H
  H241     1.0000 0.69020  0.46900  0.91630  Biso   1.000  H
  C276     1.0000 0.56130  0.39320  0.93550  Biso   1.000  C
  H242     1.0000 0.56540  0.42500  0.94540  Biso   1.000  H
  H243     1.0000 0.53520  0.35400  0.94220  Biso   1.000  H
  H244     1.0000 0.54360  0.39600  0.92180  Biso   1.000  H
  Cd9      1.0000 0.07070  0.98144  0.27689  Biso   1.000  Cd
  Cd10     1.0000 0.09851  0.03276  0.22161  Biso   1.000  Cd
  O77      1.0000 0.27192  0.59523  0.18550  Biso   1.000  O
  O78      1.0000 0.29542  0.56611  0.21544  Biso   1.000  O
  O79      1.0000 0.30137  0.58270  0.96933  Biso   1.000  O
  O80      1.0000 0.36886  0.55849  0.95735  Biso   1.000  O
  O81      1.0000 0.80082  0.33581  0.05302  Biso   1.000  O
  O82      1.0000 0.72496  0.27103  0.07336  Biso   1.000  O
  O83      1.0000 0.35371  0.74089  0.13359  Biso   1.000  O
  O84      1.0000 0.40758  0.76445  0.10315  Biso   1.000  O
  O85      1.0000 0.17056  0.00340  0.27614  Biso   1.000  O
  O86      1.0000 0.14730  0.05873  0.25536  Biso   1.000  O
  O87      1.0000 0.50607  0.81573  0.37271  Biso   1.000  O
  O88      1.0000 0.43177  0.76483  0.35084  Biso   1.000  O
  O89      1.0000 0.17731  0.41342  0.13655  Biso   1.000  O
  O90      1.0000 0.97134  0.30517  0.08092  Biso   1.000  O
  O91      1.0000 0.21319  0.44100  0.03232  Biso   1.000  O
  O92      1.0000 0.46369  0.92209  0.18236  Biso   1.000  O
  O93      1.0000 0.48102  0.89408  0.28479  Biso   1.000  O
  O94      1.0000 0.36471  0.03279  0.24022  Biso   1.000  O
  C277     1.0000 0.27303  0.55495  0.19696  Biso   1.000  C
  C278     1.0000 0.24428  0.49325  0.18793  Biso   1.000  C
  C279     1.0000 0.23427  0.44423  0.20078  Biso   1.000  C
  H245     1.0000 0.24777  0.45013  0.21543  Biso   1.000  H
  C280     1.0000 0.20417  0.38623  0.19190  Biso   1.000  C
  H246     1.0000 0.19647  0.35273  0.20073  Biso   1.000  H
  C281     1.0000 0.18597  0.37733  0.17091  Biso   1.000  C
  H247     1.0000 0.16507  0.33783  0.16513  Biso   1.000  H
  C282     1.0000 0.19807  0.42703  0.15764  Biso   1.000  C
  C283     1.0000 0.22567  0.48370  0.16646  Biso   1.000  C
  H248     1.0000 0.23197  0.51673  0.15773  Biso   1.000  H
  C284     1.0000 0.18677  0.46373  0.12277  Biso   1.000  C
  H249     1.0000 0.23017  0.49183  0.12063  Biso   1.000  H
  H250     1.0000 0.16857  0.48583  0.12943  Biso   1.000  H
  C285     1.0000 0.15673  0.43622  0.10120  Biso   1.000  C
  C286     1.0000 0.18917  0.42893  0.08492  Biso   1.000  C
  C287     1.0000 0.16037  0.40192  0.06528  Biso   1.000  C
  C288     1.0000 0.09967  0.38403  0.06231  Biso   1.000  C
  C289     1.0000 0.06777  0.39155  0.07910  Biso   1.000  C
  C290     1.0000 0.09447  0.41584  0.09924  Biso   1.000  C
  C291     1.0000 0.05877  0.41963  0.11775  Biso   1.000  C
  H251     1.0000 0.05567  0.45593  0.11623  Biso   1.000  H
  H252     1.0000 0.07877  0.42133  0.13143  Biso   1.000  H
  H253     1.0000 0.01857  0.38423  0.11763  Biso   1.000  H
  C292     1.0000 0.25537  0.45043  0.08794  Biso   1.000  C
  H254     1.0000 0.27927  0.49043  0.08153  Biso   1.000  H
  H255     1.0000 0.26517  0.42233  0.08073  Biso   1.000  H
  H256     1.0000 0.26437  0.45223  0.10343  Biso   1.000  H
  C293     1.0000 0.06907  0.35803  0.04035  Biso   1.000  C
  H257     1.0000 0.07337  0.39063  0.03093  Biso   1.000  H
  H258     1.0000 0.02637  0.32953  0.04273  Biso   1.000  H
  H259     1.0000 0.08797  0.33743  0.03343  Biso   1.000  H
  C294     1.0000 0.00017  0.36753  0.07622  Biso   1.000  C
  H260     1.0000 0.98627  0.38793  0.08633  Biso   1.000  H
  H261     1.0000 0.99127  0.37413  0.06113  Biso   1.000  H
  C295     1.0000 0.91067  0.27453  0.07909  Biso   1.000  C
  C296     1.0000 0.88227  0.21273  0.08429  Biso   1.000  C
  H262     1.0000 0.90577  0.19493  0.08803  Biso   1.000  H
  C297     1.0000 0.82067  0.17853  0.08395  Biso   1.000  C
  H263     1.0000 0.80187  0.13743  0.08783  Biso   1.000  H
  C298     1.0000 0.78557  0.20313  0.07798  Biso   1.000  C
  H264     1.0000 0.74307  0.17913  0.07813  Biso   1.000  H
  C299     1.0000 0.81307  0.26342  0.07179  Biso   1.000  C
  C300     1.0000 0.87598  0.29879  0.07242  Biso   1.000  C
  H265     1.0000 0.89487  0.33983  0.06823  Biso   1.000  H
  C301     1.0000 0.19397  0.39203  0.04698  Biso   1.000  C
  H266     1.0000 0.22897  0.39043  0.05283  Biso   1.000  H
  H267     1.0000 0.16737  0.35373  0.03943  Biso   1.000  H
  C302     1.0000 0.24117  0.43813  0.01369  Biso   1.000  C
  C303     1.0000 0.25127  0.39203  0.00862  Biso   1.000  C
  H268     1.0000 0.23737  0.35843  0.01803  Biso   1.000  H
  C304     1.0000 0.28167  0.39473  0.98982  Biso   1.000  C
  H269     1.0000 0.28657  0.36173  0.98593  Biso   1.000  H
  C305     1.0000 0.30497  0.44473  0.97662  Biso   1.000  C
  H270     1.0000 0.32747  0.44693  0.96403  Biso   1.000  H
  C306     1.0000 0.29537  0.49123  0.98175  Biso   1.000  C
  C307     1.0000 0.26237  0.48843  0.99986  Biso   1.000  C
  H271     1.0000 0.25397  0.51963  0.00293  Biso   1.000  H
  C308     1.0000 0.32377  0.54763  0.96845  Biso   1.000  C
  C309     1.0000 0.39807  0.77785  0.12217  Biso   1.000  C
  C310     1.0000 0.43887  0.83953  0.13095  Biso   1.000  C
  C311     1.0000 0.43091  0.84973  0.15277  Biso   1.000  C
  H272     1.0000 0.40087  0.81883  0.16143  Biso   1.000  H
  C312     1.0000 0.46877  0.90713  0.16144  Biso   1.000  C
  C313     1.0000 0.51097  0.95343  0.14850  Biso   1.000  C
  H273     1.0000 0.53507  0.99253  0.15433  Biso   1.000  H
  C314     1.0000 0.51737  0.94123  0.12679  Biso   1.000  C
  H274     1.0000 0.54647  0.97253  0.11793  Biso   1.000  H
  C315     1.0000 0.48197  0.88423  0.11791  Biso   1.000  C
  H275     1.0000 0.48727  0.87633  0.10323  Biso   1.000  H
  C316     1.0000 0.41707  0.87513  0.19553  Biso   1.000  C
  H276     1.0000 0.42517  0.84173  0.19753  Biso   1.000  H
  H277     1.0000 0.37747  0.85943  0.18843  Biso   1.000  H
  C317     1.0000 0.41795  0.90325  0.21697  Biso   1.000  C
  C318     1.0000 0.46007  0.90771  0.23326  Biso   1.000  C
  C319     1.0000 0.46177  0.93483  0.25332  Biso   1.000  C
  C320     1.0000 0.42067  0.95453  0.25787  Biso   1.000  C
  C321     1.0000 0.37937  0.94933  0.24199  Biso   1.000  C
  C322     1.0000 0.38002  0.92678  0.22130  Biso   1.000  C
  C323     1.0000 0.34077  0.92763  0.20301  Biso   1.000  C
  H278     1.0000 0.30057  0.89233  0.20423  Biso   1.000  H
  H279     1.0000 0.35847  0.92683  0.18903  Biso   1.000  H
  H280     1.0000 0.33787  0.96403  0.20403  Biso   1.000  H
  C324     1.0000 0.50107  0.88323  0.22810  Biso   1.000  C
  H281     1.0000 0.54097  0.90993  0.23413  Biso   1.000  H
  H282     1.0000 0.50417  0.88073  0.21233  Biso   1.000  H
  H283     1.0000 0.48477  0.84313  0.23443  Biso   1.000  H
  C325     1.0000 0.41807  0.97693  0.28038  Biso   1.000  C
  H284     1.0000 0.41077  0.01073  0.27923  Biso   1.000  H
  H285     1.0000 0.45627  0.99003  0.28783  Biso   1.000  H
  H286     1.0000 0.38547  0.94443  0.28863  Biso   1.000  H
  C326     1.0000 0.50877  0.94403  0.26987  Biso   1.000  C
  H287     1.0000 0.54367  0.94503  0.26263  Biso   1.000  H
  H288     1.0000 0.52267  0.98223  0.27773  Biso   1.000  H
  C327     1.0000 0.51417  0.89853  0.30303  Biso   1.000  C
  C328     1.0000 0.48457  0.85423  0.31838  Biso   1.000  C
  H289     1.0000 0.44477  0.82263  0.31583  Biso   1.000  H
  C329     1.0000 0.51487  0.85693  0.33799  Biso   1.000  C
  C330     1.0000 0.57187  0.89963  0.34111  Biso   1.000  C
  H290     1.0000 0.59247  0.89863  0.35373  Biso   1.000  H
  C331     1.0000 0.60037  0.94413  0.32657  Biso   1.000  C
  H291     1.0000 0.63867  0.97733  0.33003  Biso   1.000  H
  C332     1.0000 0.57417  0.94223  0.30623  Biso   1.000  C
  H292     1.0000 0.59667  0.96973  0.29503  Biso   1.000  H
  C333     1.0000 0.48187  0.80973  0.35474  Biso   1.000  C
  C334     1.0000 0.33557  0.97033  0.24671  Biso   1.000  C
  H293     1.0000 0.29807  0.94643  0.23833  Biso   1.000  H
  H294     1.0000 0.32567  0.96633  0.26233  Biso   1.000  H
  C335     1.0000 0.33007  0.05983  0.24103  Biso   1.000  C
  C336     1.0000 0.27564  0.03650  0.25189  Biso   1.000  C
  H295     1.0000 0.25987  0.99993  0.25973  Biso   1.000  H
  C337     1.0000 0.24437  0.06843  0.25106  Biso   1.000  C
  C338     1.0000 0.26837  0.12203  0.23975  Biso   1.000  C
  H296     1.0000 0.24667  0.14293  0.23883  Biso   1.000  H
  C339     1.0000 0.32297  0.14523  0.22990  Biso   1.000  C
  H297     1.0000 0.33987  0.18303  0.22283  Biso   1.000  H
  C340     1.0000 0.35387  0.11393  0.23016  Biso   1.000  C
  H298     1.0000 0.39127  0.12953  0.22283  Biso   1.000  H
  C341     1.0000 0.18447  0.04213  0.26187  Biso   1.000  C
  C342     1.0000 0.77677  0.29163  0.06564  Biso   1.000  C
  O95      1.0000 0.33717  0.68353  0.25213  Biso   1.000  O
  C343     1.0000 0.29177  0.67933  0.26083  Biso   1.000  C
  H299     1.0000 0.25977  0.64093  0.26493  Biso   1.000  H
  N5       1.0000 0.28687  0.73353  0.26475  Biso   1.000  N
  C344     1.0000 0.34067  0.79303  0.26433  Biso   1.000  C
  H300     1.0000 0.37087  0.79353  0.27423  Biso   1.000  H
  H301     1.0000 0.33037  0.82313  0.26913  Biso   1.000  H
  H302     1.0000 0.35687  0.80233  0.24963  Biso   1.000  H
  C345     1.0000 0.22797  0.72653  0.26883  Biso   1.000  C
  H303     1.0000 0.23207  0.75833  0.27873  Biso   1.000  H
  H304     1.0000 0.20187  0.68733  0.27553  Biso   1.000  H
  H305     1.0000 0.21027  0.72933  0.25513  Biso   1.000  H
  Cd11     1.0000 0.73736  0.31477  0.61022  Biso   1.000  Cd
  Cd12     1.0000 0.76518  0.36609  0.55494  Biso   1.000  Cd
  O96      1.0000 0.93858  0.92857  0.51884  Biso   1.000  O
  O97      1.0000 0.96208  0.89945  0.54878  Biso   1.000  O
  O98      1.0000 0.96803  0.91604  0.30267  Biso   1.000  O
  O99      1.0000 0.03552  0.89183  0.29069  Biso   1.000  O
  O100     1.0000 0.46748  0.66915  0.38636  Biso   1.000  O
  O101     1.0000 0.39162  0.60437  0.40670  Biso   1.000  O
  O102     1.0000 0.02037  0.07423  0.46693  Biso   1.000  O
  O103     1.0000 0.07424  0.09779  0.43649  Biso   1.000  O
  O104     1.0000 0.83722  0.33674  0.60948  Biso   1.000  O
  O105     1.0000 0.81396  0.39207  0.58870  Biso   1.000  O
  O106     1.0000 0.17273  0.14907  0.70605  Biso   1.000  O
  O107     1.0000 0.09843  0.09817  0.68418  Biso   1.000  O
  O108     1.0000 0.84397  0.74676  0.46989  Biso   1.000  O
  O109     1.0000 0.63800  0.63851  0.41426  Biso   1.000  O
  O110     1.0000 0.87985  0.77434  0.36566  Biso   1.000  O
  O111     1.0000 0.13035  0.25543  0.51570  Biso   1.000  O
  O112     1.0000 0.14768  0.22742  0.61813  Biso   1.000  O
  O113     1.0000 0.03137  0.36613  0.57356  Biso   1.000  O
  C346     1.0000 0.93969  0.88829  0.53030  Biso   1.000  C
  C347     1.0000 0.91094  0.82659  0.52127  Biso   1.000  C
  C348     1.0000 0.90093  0.77757  0.53412  Biso   1.000  C
  H306     1.0000 0.91443  0.78347  0.54877  Biso   1.000  H
  C349     1.0000 0.87083  0.71957  0.52524  Biso   1.000  C
  H307     1.0000 0.86313  0.68607  0.53407  Biso   1.000  H
  C350     1.0000 0.85263  0.71067  0.50425  Biso   1.000  C
  H308     1.0000 0.83173  0.67117  0.49847  Biso   1.000  H
  C351     1.0000 0.86473  0.76037  0.49098  Biso   1.000  C
  C352     1.0000 0.89233  0.81704  0.49980  Biso   1.000  C
  H309     1.0000 0.89863  0.85007  0.49107  Biso   1.000  H
  C353     1.0000 0.85343  0.79707  0.45611  Biso   1.000  C
  H310     1.0000 0.89683  0.82517  0.45397  Biso   1.000  H
  H311     1.0000 0.83523  0.81917  0.46277  Biso   1.000  H
  C354     1.0000 0.82339  0.76956  0.43454  Biso   1.000  C
  C355     1.0000 0.85583  0.76227  0.41826  Biso   1.000  C
  C356     1.0000 0.82703  0.73526  0.39862  Biso   1.000  C
  C357     1.0000 0.76633  0.71737  0.39565  Biso   1.000  C
  C358     1.0000 0.73443  0.72489  0.41244  Biso   1.000  C
  C359     1.0000 0.76113  0.74918  0.43258  Biso   1.000  C
  C360     1.0000 0.72543  0.75297  0.45109  Biso   1.000  C
  H312     1.0000 0.72233  0.78927  0.44957  Biso   1.000  H
  H313     1.0000 0.74543  0.75467  0.46477  Biso   1.000  H
  H314     1.0000 0.68523  0.71757  0.45097  Biso   1.000  H
  C361     1.0000 0.92203  0.78377  0.42128  Biso   1.000  C
  H315     1.0000 0.94593  0.82377  0.41487  Biso   1.000  H
  H316     1.0000 0.93183  0.75567  0.41407  Biso   1.000  H
  H317     1.0000 0.93103  0.78557  0.43677  Biso   1.000  H
  C362     1.0000 0.73573  0.69137  0.37369  Biso   1.000  C
  H318     1.0000 0.74003  0.72397  0.36427  Biso   1.000  H
  H319     1.0000 0.69303  0.66287  0.37607  Biso   1.000  H
  H320     1.0000 0.75463  0.67077  0.36677  Biso   1.000  H
  C363     1.0000 0.66683  0.70087  0.40956  Biso   1.000  C
  H321     1.0000 0.65293  0.72127  0.41967  Biso   1.000  H
  H322     1.0000 0.65793  0.70747  0.39447  Biso   1.000  H
  C364     1.0000 0.57733  0.60787  0.41243  Biso   1.000  C
  C365     1.0000 0.54893  0.54607  0.41763  Biso   1.000  C
  H323     1.0000 0.57243  0.52827  0.42137  Biso   1.000  H
  C366     1.0000 0.48733  0.51187  0.41729  Biso   1.000  C
  H324     1.0000 0.46853  0.47077  0.42117  Biso   1.000  H
  C367     1.0000 0.45223  0.53647  0.41132  Biso   1.000  C
  H325     1.0000 0.40973  0.51247  0.41147  Biso   1.000  H
  C368     1.0000 0.47973  0.59676  0.40513  Biso   1.000  C
  C369     1.0000 0.54264  0.63213  0.40576  Biso   1.000  C
  H326     1.0000 0.56153  0.67317  0.40157  Biso   1.000  H
  C370     1.0000 0.86063  0.72537  0.38032  Biso   1.000  C
  H327     1.0000 0.89563  0.72377  0.38617  Biso   1.000  H
  H328     1.0000 0.83403  0.68707  0.37277  Biso   1.000  H
  C371     1.0000 0.90783  0.77147  0.34703  Biso   1.000  C
  C372     1.0000 0.91793  0.72537  0.34196  Biso   1.000  C
  H329     1.0000 0.90403  0.69177  0.35137  Biso   1.000  H
  C373     1.0000 0.94833  0.72807  0.32316  Biso   1.000  C
  H330     1.0000 0.95323  0.69507  0.31927  Biso   1.000  H
  C374     1.0000 0.97163  0.77807  0.30996  Biso   1.000  C
  H331     1.0000 0.99413  0.78027  0.29737  Biso   1.000  H
  C375     1.0000 0.96203  0.82457  0.31509  Biso   1.000  C
  C376     1.0000 0.92903  0.82177  0.33320  Biso   1.000  C
  H332     1.0000 0.92063  0.85297  0.33627  Biso   1.000  H
  C377     1.0000 0.99043  0.88097  0.30179  Biso   1.000  C
  C378     1.0000 0.06473  0.11119  0.45551  Biso   1.000  C
  C379     1.0000 0.10553  0.17287  0.46429  Biso   1.000  C
  C380     1.0000 0.09757  0.18307  0.48611  Biso   1.000  C
  H333     1.0000 0.06753  0.15217  0.49477  Biso   1.000  H
  C381     1.0000 0.13543  0.24047  0.49478  Biso   1.000  C
  C382     1.0000 0.17763  0.28677  0.48184  Biso   1.000  C
  H334     1.0000 0.20173  0.32587  0.48767  Biso   1.000  H
  C383     1.0000 0.18403  0.27457  0.46013  Biso   1.000  C
  H335     1.0000 0.21313  0.30587  0.45127  Biso   1.000  H
  C384     1.0000 0.14863  0.21757  0.45125  Biso   1.000  C
  H336     1.0000 0.15393  0.20967  0.43657  Biso   1.000  H
  C385     1.0000 0.08373  0.20847  0.52887  Biso   1.000  C
  H337     1.0000 0.09183  0.17507  0.53087  Biso   1.000  H
  H338     1.0000 0.04413  0.19277  0.52177  Biso   1.000  H
  C386     1.0000 0.08461  0.23659  0.55031  Biso   1.000  C
  C387     1.0000 0.12673  0.24105  0.56660  Biso   1.000  C
  C388     1.0000 0.12843  0.26817  0.58666  Biso   1.000  C
  C389     1.0000 0.08733  0.28787  0.59121  Biso   1.000  C
  C390     1.0000 0.04603  0.28267  0.57533  Biso   1.000  C
  C391     1.0000 0.04668  0.26012  0.55464  Biso   1.000  C
  C392     1.0000 0.00743  0.26097  0.53635  Biso   1.000  C
  H339     1.0000 0.96723  0.22567  0.53757  Biso   1.000  H
  H340     1.0000 0.02513  0.26017  0.52237  Biso   1.000  H
  H341     1.0000 0.00453  0.29737  0.53737  Biso   1.000  H
  C393     1.0000 0.16773  0.21657  0.56144  Biso   1.000  C
  H342     1.0000 0.20763  0.24327  0.56747  Biso   1.000  H
  H343     1.0000 0.17083  0.21407  0.54567  Biso   1.000  H
  H344     1.0000 0.15143  0.17647  0.56777  Biso   1.000  H
  C394     1.0000 0.08473  0.31027  0.61372  Biso   1.000  C
  H345     1.0000 0.07743  0.34407  0.61257  Biso   1.000  H
  H346     1.0000 0.12293  0.32337  0.62117  Biso   1.000  H
  H347     1.0000 0.05213  0.27777  0.62197  Biso   1.000  H
  C395     1.0000 0.17543  0.27737  0.60321  Biso   1.000  C
  H348     1.0000 0.21033  0.27837  0.59597  Biso   1.000  H
  H349     1.0000 0.18933  0.31557  0.61107  Biso   1.000  H
  C396     1.0000 0.18083  0.23187  0.63637  Biso   1.000  C
  C397     1.0000 0.15123  0.18757  0.65172  Biso   1.000  C
  H350     1.0000 0.11143  0.15597  0.64917  Biso   1.000  H
  C398     1.0000 0.18153  0.19027  0.67133  Biso   1.000  C
  C399     1.0000 0.23853  0.23297  0.67445  Biso   1.000  C
  H351     1.0000 0.25913  0.23197  0.68707  Biso   1.000  H
  C400     1.0000 0.26703  0.27747  0.65991  Biso   1.000  C
  H352     1.0000 0.30533  0.31067  0.66337  Biso   1.000  H
  C401     1.0000 0.24083  0.27557  0.63957  Biso   1.000  C
  H353     1.0000 0.26333  0.30307  0.62837  Biso   1.000  H
  C402     1.0000 0.14853  0.14307  0.68808  Biso   1.000  C
  C403     1.0000 0.00223  0.30367  0.58005  Biso   1.000  C
  H354     1.0000 0.96473  0.27977  0.57167  Biso   1.000  H
  H355     1.0000 0.99233  0.29967  0.59567  Biso   1.000  H
  C404     1.0000 0.99673  0.39317  0.57437  Biso   1.000  C
  C405     1.0000 0.94230  0.36984  0.58523  Biso   1.000  C
  H356     1.0000 0.92653  0.33327  0.59307  Biso   1.000  H
  C406     1.0000 0.91103  0.40177  0.58440  Biso   1.000  C
  C407     1.0000 0.93503  0.45537  0.57309  Biso   1.000  C
  H357     1.0000 0.91333  0.47627  0.57217  Biso   1.000  H
  C408     1.0000 0.98963  0.47857  0.56324  Biso   1.000  C
  H358     1.0000 0.00653  0.51637  0.55617  Biso   1.000  H
  C409     1.0000 0.02053  0.44727  0.56350  Biso   1.000  C
  H359     1.0000 0.05793  0.46287  0.55617  Biso   1.000  H
  C410     1.0000 0.85113  0.37547  0.59521  Biso   1.000  C
  C411     1.0000 0.44343  0.62497  0.39898  Biso   1.000  C
  O114     1.0000 0.00383  0.01687  0.58547  Biso   1.000  O
  C412     1.0000 0.95843  0.01267  0.59417  Biso   1.000  C
  H360     1.0000 0.92643  0.97427  0.59827  Biso   1.000  H
  N6       1.0000 0.95353  0.06687  0.59809  Biso   1.000  N
  C413     1.0000 0.00733  0.12637  0.59767  Biso   1.000  C
  H361     1.0000 0.03753  0.12687  0.60757  Biso   1.000  H
  H362     1.0000 0.99703  0.15647  0.60247  Biso   1.000  H
  H363     1.0000 0.02353  0.13567  0.58297  Biso   1.000  H
  C414     1.0000 0.89463  0.05987  0.60217  Biso   1.000  C
  H364     1.0000 0.89873  0.09167  0.61207  Biso   1.000  H
  H365     1.0000 0.86853  0.02067  0.60887  Biso   1.000  H
  H366     1.0000 0.87693  0.06267  0.58847  Biso   1.000  H
  Cd13     1.0000 0.35190  0.75593  0.94355  Biso   1.000  Cd
  Cd14     1.0000 0.30057  0.73241  0.88828  Biso   1.000  Cd
  O115     1.0000 0.73810  0.34335  0.85217  Biso   1.000  O
  O116     1.0000 0.76722  0.39597  0.88211  Biso   1.000  O
  O117     1.0000 0.75063  0.38533  0.63600  Biso   1.000  O
  O118     1.0000 0.77484  0.47703  0.62402  Biso   1.000  O
  O119     1.0000 0.99752  0.13167  0.71969  Biso   1.000  O
  O120     1.0000 0.06230  0.12059  0.74003  Biso   1.000  O
  O121     1.0000 0.59244  0.27948  0.80026  Biso   1.000  O
  O122     1.0000 0.56888  0.30979  0.76982  Biso   1.000  O
  O123     1.0000 0.32993  0.83382  0.94281  Biso   1.000  O
  O124     1.0000 0.27460  0.75523  0.92203  Biso   1.000  O
  O125     1.0000 0.51760  0.35700  0.03938  Biso   1.000  O
  O126     1.0000 0.56850  0.33360  0.01751  Biso   1.000  O
  O127     1.0000 0.91991  0.43055  0.80322  Biso   1.000  O
  O128     1.0000 0.02816  0.33283  0.74759  Biso   1.000  O
  O129     1.0000 0.89233  0.43885  0.69899  Biso   1.000  O
  O130     1.0000 0.41124  0.20826  0.84903  Biso   1.000  O
  O131     1.0000 0.43925  0.25360  0.95146  Biso   1.000  O
  O132     1.0000 0.30054  0.99858  0.90689  Biso   1.000  O
  C415     1.0000 0.77838  0.38474  0.86363  Biso   1.000  C
  C416     1.0000 0.84008  0.41769  0.85460  Biso   1.000  C
  C417     1.0000 0.88910  0.45670  0.86745  Biso   1.000  C
  H367     1.0000 0.88320  0.46430  0.88210  Biso   1.000  H
  C418     1.0000 0.94710  0.48460  0.85857  Biso   1.000  C
  H368     1.0000 0.98060  0.51040  0.86740  Biso   1.000  H
  C419     1.0000 0.95600  0.47530  0.83758  Biso   1.000  C
  H369     1.0000 0.99550  0.49390  0.83180  Biso   1.000  H
  C420     1.0000 0.90630  0.43770  0.82431  Biso   1.000  C
  C421     1.0000 0.84963  0.40863  0.83313  Biso   1.000  C
  H370     1.0000 0.81660  0.38190  0.82440  Biso   1.000  H
  C422     1.0000 0.86960  0.38970  0.78944  Biso   1.000  C
  H371     1.0000 0.84150  0.40500  0.78730  Biso   1.000  H
  H372     1.0000 0.84750  0.34940  0.79610  Biso   1.000  H
  C423     1.0000 0.89711  0.38717  0.76787  Biso   1.000  C
  C424     1.0000 0.90440  0.42690  0.75159  Biso   1.000  C
  C425     1.0000 0.93141  0.42511  0.73195  Biso   1.000  C
  C426     1.0000 0.94930  0.38230  0.72898  Biso   1.000  C
  C427     1.0000 0.94178  0.34288  0.74577  Biso   1.000  C
  C428     1.0000 0.91749  0.34529  0.76591  Biso   1.000  C
  C429     1.0000 0.91370  0.30580  0.78442  Biso   1.000  C
  H373     1.0000 0.87740  0.26640  0.78290  Biso   1.000  H
  H374     1.0000 0.91200  0.32410  0.79810  Biso   1.000  H
  H375     1.0000 0.94910  0.30100  0.78430  Biso   1.000  H
  C430     1.0000 0.88290  0.47160  0.75461  Biso   1.000  C
  H376     1.0000 0.84290  0.45550  0.74820  Biso   1.000  H
  H377     1.0000 0.91100  0.50950  0.74740  Biso   1.000  H
  H378     1.0000 0.88110  0.47880  0.77010  Biso   1.000  H
  C431     1.0000 0.97530  0.37770  0.70702  Biso   1.000  C
  H379     1.0000 0.94270  0.34940  0.69760  Biso   1.000  H
  H380     1.0000 0.00380  0.36350  0.70940  Biso   1.000  H
  H381     1.0000 0.99590  0.41720  0.70010  Biso   1.000  H
  C432     1.0000 0.96580  0.29930  0.74289  Biso   1.000  C
  H382     1.0000 0.94540  0.26500  0.75300  Biso   1.000  H
  H383     1.0000 0.95920  0.28380  0.72780  Biso   1.000  H
  C433     1.0000 0.05880  0.30280  0.74576  Biso   1.000  C
  C434     1.0000 0.12060  0.33620  0.75096  Biso   1.000  C
  H384     1.0000 0.13840  0.37750  0.75470  Biso   1.000  H
  C435     1.0000 0.15480  0.30880  0.75062  Biso   1.000  C
  H385     1.0000 0.19590  0.33110  0.75450  Biso   1.000  H
  C436     1.0000 0.13020  0.24910  0.74465  Biso   1.000  C
  H386     1.0000 0.15420  0.23060  0.74480  Biso   1.000  H
  C437     1.0000 0.06991  0.21631  0.73846  Biso   1.000  C
  C438     1.0000 0.03454  0.24385  0.73909  Biso   1.000  C
  H387     1.0000 0.99350  0.22170  0.73490  Biso   1.000  H
  C439     1.0000 0.94130  0.46860  0.71365  Biso   1.000  C
  H388     1.0000 0.94290  0.50520  0.71950  Biso   1.000  H
  H389     1.0000 0.97960  0.48030  0.70610  Biso   1.000  H
  C440     1.0000 0.89520  0.46970  0.68036  Biso   1.000  C
  C441     1.0000 0.94130  0.52590  0.67529  Biso   1.000  C
  H390     1.0000 0.97490  0.54560  0.68470  Biso   1.000  H
  C442     1.0000 0.93860  0.55360  0.65649  Biso   1.000  C
  H391     1.0000 0.97160  0.59150  0.65260  Biso   1.000  H
  C443     1.0000 0.88860  0.52690  0.64329  Biso   1.000  C
  H392     1.0000 0.88640  0.54720  0.63070  Biso   1.000  H
  C444     1.0000 0.84210  0.47080  0.64842  Biso   1.000  C
  C445     1.0000 0.84490  0.44060  0.66653  Biso   1.000  C
  H393     1.0000 0.81370  0.40100  0.66960  Biso   1.000  H
  C446     1.0000 0.78570  0.44280  0.63512  Biso   1.000  C
  C447     1.0000 0.55548  0.28688  0.78884  Biso   1.000  C
  C448     1.0000 0.49380  0.26600  0.79762  Biso   1.000  C
  C449     1.0000 0.48360  0.24784  0.81944  Biso   1.000  C
  H394     1.0000 0.51450  0.24870  0.82810  Biso   1.000  H
  C450     1.0000 0.42620  0.22830  0.82811  Biso   1.000  C
  C451     1.0000 0.37990  0.22420  0.81517  Biso   1.000  C
  H395     1.0000 0.34080  0.20920  0.82100  Biso   1.000  H
  C452     1.0000 0.39210  0.24280  0.79346  Biso   1.000  C
  H396     1.0000 0.36080  0.24060  0.78460  Biso   1.000  H
  C453     1.0000 0.44910  0.26440  0.78458  Biso   1.000  C
  H397     1.0000 0.45700  0.27760  0.76990  Biso   1.000  H
  C454     1.0000 0.45820  0.20860  0.86220  Biso   1.000  C
  H398     1.0000 0.49160  0.25010  0.86420  Biso   1.000  H
  H399     1.0000 0.47390  0.18470  0.85510  Biso   1.000  H
  C455     1.0000 0.43008  0.18136  0.88364  Biso   1.000  C
  C456     1.0000 0.42562  0.21902  0.89993  Biso   1.000  C
  C457     1.0000 0.39850  0.19360  0.91999  Biso   1.000  C
  C458     1.0000 0.37880  0.13280  0.92454  Biso   1.000  C
  C459     1.0000 0.38400  0.09670  0.90866  Biso   1.000  C
  C460     1.0000 0.40655  0.11990  0.88797  Biso   1.000  C
  C461     1.0000 0.40570  0.07980  0.86968  Biso   1.000  C
  H400     1.0000 0.44100  0.07490  0.87090  Biso   1.000  H
  H401     1.0000 0.40650  0.09830  0.85570  Biso   1.000  H
  H402     1.0000 0.36930  0.04050  0.87070  Biso   1.000  H
  C462     1.0000 0.45010  0.28450  0.89477  Biso   1.000  C
  H403     1.0000 0.42340  0.29770  0.90080  Biso   1.000  H
  H404     1.0000 0.45260  0.29010  0.87900  Biso   1.000  H
  H405     1.0000 0.49020  0.30830  0.90110  Biso   1.000  H
  C463     1.0000 0.35640  0.10780  0.94705  Biso   1.000  C
  H406     1.0000 0.32260  0.06670  0.94590  Biso   1.000  H
  H407     1.0000 0.34330  0.13290  0.95450  Biso   1.000  H
  H408     1.0000 0.38890  0.10770  0.95530  Biso   1.000  H
  C464     1.0000 0.38930  0.23140  0.93654  Biso   1.000  C
  H409     1.0000 0.38830  0.26530  0.92930  Biso   1.000  H
  H410     1.0000 0.35110  0.20710  0.94440  Biso   1.000  H
  C465     1.0000 0.43480  0.28230  0.96970  Biso   1.000  C
  C466     1.0000 0.47910  0.29700  0.98505  Biso   1.000  C
  H411     1.0000 0.51070  0.28880  0.98250  Biso   1.000  H
  C467     1.0000 0.47640  0.32460  0.00466  Biso   1.000  C
  C468     1.0000 0.43370  0.33890  0.00778  Biso   1.000  C
  H412     1.0000 0.43470  0.36050  0.02040  Biso   1.000  H
  C469     1.0000 0.38920  0.32290  0.99324  Biso   1.000  C
  H413     1.0000 0.35600  0.32800  0.99670  Biso   1.000  H
  C470     1.0000 0.39110  0.29860  0.97290  Biso   1.000  C
  H414     1.0000 0.36360  0.29360  0.96170  Biso   1.000  H
  C471     1.0000 0.52360  0.33880  0.02141  Biso   1.000  C
  C472     1.0000 0.36300  0.03190  0.91338  Biso   1.000  C
  H415     1.0000 0.38690  0.01830  0.90500  Biso   1.000  H
  H416     1.0000 0.36700  0.02600  0.92900  Biso   1.000  H
  C473     1.0000 0.27350  0.93690  0.90770  Biso   1.000  C
  C474     1.0000 0.29683  0.90580  0.91856  Biso   1.000  C
  H417     1.0000 0.33340  0.92660  0.92640  Biso   1.000  H
  C475     1.0000 0.26490  0.84260  0.91773  Biso   1.000  C
  C476     1.0000 0.21130  0.81300  0.90642  Biso   1.000  C
  H418     1.0000 0.19040  0.77040  0.90550  Biso   1.000  H
  C477     1.0000 0.18810  0.84440  0.89657  Biso   1.000  C
  H419     1.0000 0.15030  0.82350  0.88950  Biso   1.000  H
  C478     1.0000 0.21940  0.90660  0.89683  Biso   1.000  C
  H420     1.0000 0.20380  0.92840  0.88950  Biso   1.000  H
  C479     1.0000 0.29120  0.80900  0.92854  Biso   1.000  C
  C480     1.0000 0.04170  0.15180  0.73231  Biso   1.000  C
  O133     1.0000 0.64980  0.32030  0.91880  Biso   1.000  O
  C481     1.0000 0.65400  0.27910  0.92750  Biso   1.000  C
  H421     1.0000 0.69240  0.28550  0.93160  Biso   1.000  H
  N7       1.0000 0.59980  0.22000  0.93142  Biso   1.000  N
  C482     1.0000 0.54030  0.21430  0.93100  Biso   1.000  C
  H422     1.0000 0.53980  0.24400  0.94090  Biso   1.000  H
  H423     1.0000 0.51020  0.17390  0.93580  Biso   1.000  H
  H424     1.0000 0.53100  0.22120  0.91630  Biso   1.000  H
  C483     1.0000 0.60680  0.16810  0.93550  Biso   1.000  C
  H425     1.0000 0.57500  0.14040  0.94540  Biso   1.000  H
  H426     1.0000 0.64600  0.18120  0.94220  Biso   1.000  H
  H427     1.0000 0.60400  0.14760  0.92180  Biso   1.000  H
  Cd15     1.0000 0.01856  0.08926  0.27689  Biso   1.000  Cd
  Cd16     1.0000 0.96724  0.06575  0.22161  Biso   1.000  Cd
  O134     1.0000 0.40477  0.67668  0.18550  Biso   1.000  O
  O135     1.0000 0.43389  0.72930  0.21544  Biso   1.000  O
  O136     1.0000 0.41730  0.71866  0.96933  Biso   1.000  O
  O137     1.0000 0.44151  0.81036  0.95735  Biso   1.000  O
  O138     1.0000 0.66419  0.46500  0.05302  Biso   1.000  O
  O139     1.0000 0.72897  0.45392  0.07336  Biso   1.000  O
  O140     1.0000 0.25911  0.61281  0.13359  Biso   1.000  O
  O141     1.0000 0.23555  0.64312  0.10315  Biso   1.000  O
  O142     1.0000 0.99660  0.16715  0.27614  Biso   1.000  O
  O143     1.0000 0.94127  0.08856  0.25536  Biso   1.000  O
  O144     1.0000 0.18427  0.69033  0.37271  Biso   1.000  O
  O145     1.0000 0.23517  0.66693  0.35084  Biso   1.000  O
  O146     1.0000 0.58658  0.76388  0.13655  Biso   1.000  O
  O147     1.0000 0.69483  0.66616  0.08092  Biso   1.000  O
  O148     1.0000 0.55900  0.77218  0.03232  Biso   1.000  O
  O149     1.0000 0.07791  0.54159  0.18236  Biso   1.000  O
  O150     1.0000 0.10592  0.58693  0.28479  Biso   1.000  O
  O151     1.0000 0.96721  0.33191  0.24022  Biso   1.000  O
  C484     1.0000 0.44505  0.71807  0.19696  Biso   1.000  C
  C485     1.0000 0.50675  0.75102  0.18793  Biso   1.000  C
  C486     1.0000 0.55577  0.79003  0.20078  Biso   1.000  C
  H428     1.0000 0.54987  0.79763  0.21543  Biso   1.000  H
  C487     1.0000 0.61377  0.81793  0.19190  Biso   1.000  C
  H429     1.0000 0.64727  0.84373  0.20073  Biso   1.000  H
  C488     1.0000 0.62267  0.80863  0.17091  Biso   1.000  C
  H430     1.0000 0.66217  0.82723  0.16513  Biso   1.000  H
  C489     1.0000 0.57297  0.77103  0.15764  Biso   1.000  C
  C490     1.0000 0.51630  0.74196  0.16646  Biso   1.000  C
  H431     1.0000 0.48327  0.71523  0.15773  Biso   1.000  H
  C491     1.0000 0.53627  0.72303  0.12277  Biso   1.000  C
  H432     1.0000 0.50817  0.73833  0.12063  Biso   1.000  H
  H433     1.0000 0.51417  0.68273  0.12943  Biso   1.000  H
  C492     1.0000 0.56378  0.72050  0.10120  Biso   1.000  C
  C493     1.0000 0.57107  0.76023  0.08492  Biso   1.000  C
  C494     1.0000 0.59808  0.75844  0.06528  Biso   1.000  C
  C495     1.0000 0.61597  0.71563  0.06231  Biso   1.000  C
  C496     1.0000 0.60845  0.67621  0.07910  Biso   1.000  C
  C497     1.0000 0.58416  0.67862  0.09924  Biso   1.000  C
  C498     1.0000 0.58037  0.63913  0.11775  Biso   1.000  C
  H434     1.0000 0.54407  0.59973  0.11623  Biso   1.000  H
  H435     1.0000 0.57867  0.65743  0.13143  Biso   1.000  H
  H436     1.0000 0.61577  0.63433  0.11763  Biso   1.000  H
  C499     1.0000 0.54957  0.80493  0.08794  Biso   1.000  C
  H437     1.0000 0.50957  0.78883  0.08153  Biso   1.000  H
  H438     1.0000 0.57767  0.84283  0.08073  Biso   1.000  H
  H439     1.0000 0.54777  0.81213  0.10343  Biso   1.000  H
  C500     1.0000 0.64197  0.71103  0.04035  Biso   1.000  C
  H440     1.0000 0.60937  0.68273  0.03093  Biso   1.000  H
  H441     1.0000 0.67047  0.69683  0.04273  Biso   1.000  H
  H442     1.0000 0.66257  0.75053  0.03343  Biso   1.000  H
  C501     1.0000 0.63247  0.63263  0.07622  Biso   1.000  C
  H443     1.0000 0.61207  0.59833  0.08633  Biso   1.000  H
  H444     1.0000 0.62587  0.61713  0.06113  Biso   1.000  H
  C502     1.0000 0.72547  0.63613  0.07909  Biso   1.000  C
  C503     1.0000 0.78727  0.66953  0.08429  Biso   1.000  C
  H445     1.0000 0.80507  0.71083  0.08803  Biso   1.000  H
  C504     1.0000 0.82147  0.64213  0.08395  Biso   1.000  C
  H446     1.0000 0.86257  0.66443  0.08783  Biso   1.000  H
  C505     1.0000 0.79687  0.58243  0.07798  Biso   1.000  C
  H447     1.0000 0.82087  0.56393  0.07813  Biso   1.000  H
  C506     1.0000 0.73658  0.54964  0.07179  Biso   1.000  C
  C507     1.0000 0.70121  0.57718  0.07242  Biso   1.000  C
  H448     1.0000 0.66017  0.55503  0.06823  Biso   1.000  H
  C508     1.0000 0.60797  0.80193  0.04698  Biso   1.000  C
  H449     1.0000 0.60957  0.83853  0.05283  Biso   1.000  H
  H450     1.0000 0.64627  0.81363  0.03943  Biso   1.000  H
  C509     1.0000 0.56187  0.80303  0.01369  Biso   1.000  C
  C510     1.0000 0.60797  0.85923  0.00862  Biso   1.000  C
  H451     1.0000 0.64157  0.87893  0.01803  Biso   1.000  H
  C511     1.0000 0.60527  0.88693  0.98982  Biso   1.000  C
  H452     1.0000 0.63827  0.92483  0.98593  Biso   1.000  H
  C512     1.0000 0.55527  0.86023  0.97662  Biso   1.000  C
  H453     1.0000 0.55307  0.88053  0.96403  Biso   1.000  H
  C513     1.0000 0.50877  0.80413  0.98175  Biso   1.000  C
  C514     1.0000 0.51157  0.77393  0.99986  Biso   1.000  C
  H454     1.0000 0.48037  0.73433  0.00293  Biso   1.000  H
  C515     1.0000 0.45237  0.77613  0.96845  Biso   1.000  C
  C516     1.0000 0.22215  0.62021  0.12217  Biso   1.000  C
  C517     1.0000 0.16047  0.59933  0.13095  Biso   1.000  C
  C518     1.0000 0.15027  0.58117  0.15277  Biso   1.000  C
  H455     1.0000 0.18117  0.58203  0.16143  Biso   1.000  H
  C519     1.0000 0.09287  0.56163  0.16144  Biso   1.000  C
  C520     1.0000 0.04657  0.55753  0.14850  Biso   1.000  C
  H456     1.0000 0.00747  0.54253  0.15433  Biso   1.000  H
  C521     1.0000 0.05877  0.57613  0.12679  Biso   1.000  C
  H457     1.0000 0.02747  0.57393  0.11793  Biso   1.000  H
  C522     1.0000 0.11577  0.59773  0.11791  Biso   1.000  C
  H458     1.0000 0.12367  0.61093  0.10323  Biso   1.000  H
  C523     1.0000 0.12487  0.54193  0.19553  Biso   1.000  C
  H459     1.0000 0.15827  0.58343  0.19753  Biso   1.000  H
  H460     1.0000 0.14057  0.51803  0.18843  Biso   1.000  H
  C524     1.0000 0.09675  0.51469  0.21697  Biso   1.000  C
  C525     1.0000 0.09229  0.55235  0.23326  Biso   1.000  C
  C526     1.0000 0.06517  0.52693  0.25332  Biso   1.000  C
  C527     1.0000 0.04547  0.46613  0.25787  Biso   1.000  C
  C528     1.0000 0.05067  0.43003  0.24199  Biso   1.000  C
  C529     1.0000 0.07322  0.45323  0.22130  Biso   1.000  C
  C530     1.0000 0.07237  0.41313  0.20301  Biso   1.000  C
  H461     1.0000 0.10767  0.40823  0.20423  Biso   1.000  H
  H462     1.0000 0.07317  0.43163  0.18903  Biso   1.000  H
  H463     1.0000 0.03597  0.37383  0.20403  Biso   1.000  H
  C531     1.0000 0.11677  0.61783  0.22810  Biso   1.000  C
  H464     1.0000 0.09007  0.63103  0.23413  Biso   1.000  H
  H465     1.0000 0.11927  0.62343  0.21233  Biso   1.000  H
  H466     1.0000 0.15687  0.64163  0.23443  Biso   1.000  H
  C532     1.0000 0.02307  0.44113  0.28038  Biso   1.000  C
  H467     1.0000 0.98927  0.40003  0.27923  Biso   1.000  H
  H468     1.0000 0.00997  0.46623  0.28783  Biso   1.000  H
  H469     1.0000 0.05557  0.44103  0.28863  Biso   1.000  H
  C533     1.0000 0.05597  0.56473  0.26987  Biso   1.000  C
  H470     1.0000 0.05497  0.59863  0.26263  Biso   1.000  H
  H471     1.0000 0.01777  0.54043  0.27773  Biso   1.000  H
  C534     1.0000 0.10147  0.61563  0.30303  Biso   1.000  C
  C535     1.0000 0.14577  0.63033  0.31838  Biso   1.000  C
  H472     1.0000 0.17737  0.62213  0.31583  Biso   1.000  H
  C536     1.0000 0.14307  0.65793  0.33799  Biso   1.000  C
  C537     1.0000 0.10037  0.67223  0.34111  Biso   1.000  C
  H473     1.0000 0.10137  0.69383  0.35373  Biso   1.000  H
  C538     1.0000 0.05587  0.65623  0.32657  Biso   1.000  C
  H474     1.0000 0.02267  0.66133  0.33003  Biso   1.000  H
  C539     1.0000 0.05777  0.63193  0.30623  Biso   1.000  C
  H475     1.0000 0.03027  0.62693  0.29503  Biso   1.000  H
  C540     1.0000 0.19027  0.67213  0.35474  Biso   1.000  C
  C541     1.0000 0.02967  0.36523  0.24671  Biso   1.000  C
  H476     1.0000 0.05357  0.35163  0.23833  Biso   1.000  H
  H477     1.0000 0.03367  0.35933  0.26233  Biso   1.000  H
  C542     1.0000 0.94017  0.27023  0.24103  Biso   1.000  C
  C543     1.0000 0.96350  0.23913  0.25189  Biso   1.000  C
  H478     1.0000 0.00007  0.25993  0.25973  Biso   1.000  H
  C544     1.0000 0.93157  0.17593  0.25106  Biso   1.000  C
  C545     1.0000 0.87797  0.14633  0.23975  Biso   1.000  C
  H479     1.0000 0.85707  0.10373  0.23883  Biso   1.000  H
  C546     1.0000 0.85477  0.17773  0.22990  Biso   1.000  C
  H480     1.0000 0.81697  0.15683  0.22283  Biso   1.000  H
  C547     1.0000 0.88607  0.23993  0.23016  Biso   1.000  C
  H481     1.0000 0.87047  0.26173  0.22283  Biso   1.000  H
  C548     1.0000 0.95787  0.14233  0.26187  Biso   1.000  C
  C549     1.0000 0.70837  0.48513  0.06564  Biso   1.000  C
  O152     1.0000 0.31647  0.65363  0.25213  Biso   1.000  O
  C550     1.0000 0.32067  0.61243  0.26083  Biso   1.000  C
  H482     1.0000 0.35907  0.61883  0.26493  Biso   1.000  H
  N8       1.0000 0.26647  0.55333  0.26475  Biso   1.000  N
  C551     1.0000 0.20697  0.54763  0.26433  Biso   1.000  C
  H483     1.0000 0.20647  0.57733  0.27423  Biso   1.000  H
  H484     1.0000 0.17687  0.50723  0.26913  Biso   1.000  H
  H485     1.0000 0.19767  0.55453  0.24963  Biso   1.000  H
  C552     1.0000 0.27347  0.50143  0.26883  Biso   1.000  C
  H486     1.0000 0.24167  0.47373  0.27873  Biso   1.000  H
  H487     1.0000 0.31267  0.51453  0.27553  Biso   1.000  H
  H488     1.0000 0.27067  0.48093  0.25513  Biso   1.000  H
  Cd17     1.0000 0.68523  0.42259  0.61022  Biso   1.000  Cd
  Cd18     1.0000 0.63391  0.39908  0.55494  Biso   1.000  Cd
  O153     1.0000 0.07143  0.01002  0.51884  Biso   1.000  O
  O154     1.0000 0.10055  0.06264  0.54878  Biso   1.000  O
  O155     1.0000 0.08396  0.05200  0.30267  Biso   1.000  O
  O156     1.0000 0.10817  0.14370  0.29069  Biso   1.000  O
  O157     1.0000 0.33085  0.79834  0.38636  Biso   1.000  O
  O158     1.0000 0.39563  0.78726  0.40670  Biso   1.000  O
  O159     1.0000 0.92577  0.94615  0.46693  Biso   1.000  O
  O160     1.0000 0.90221  0.97646  0.43649  Biso   1.000  O
  O161     1.0000 0.66326  0.50049  0.60948  Biso   1.000  O
  O162     1.0000 0.60793  0.42190  0.58870  Biso   1.000  O
  O163     1.0000 0.85093  0.02367  0.70605  Biso   1.000  O
  O164     1.0000 0.90183  0.00027  0.68418  Biso   1.000  O
  O165     1.0000 0.25324  0.09722  0.46989  Biso   1.000  O
  O166     1.0000 0.36149  0.99950  0.41426  Biso   1.000  O
  O167     1.0000 0.22566  0.10552  0.36566  Biso   1.000  O
  O168     1.0000 0.74457  0.87493  0.51570  Biso   1.000  O
  O169     1.0000 0.77258  0.92027  0.61813  Biso   1.000  O
  O170     1.0000 0.63387  0.66525  0.57356  Biso   1.000  O
  C553     1.0000 0.11171  0.05141  0.53030  Biso   1.000  C
  C554     1.0000 0.17341  0.08436  0.52127  Biso   1.000  C
  C555     1.0000 0.22243  0.12337  0.53412  Biso   1.000  C
  H489     1.0000 0.21653  0.13097  0.54877  Biso   1.000  H
  C556     1.0000 0.28043  0.15127  0.52524  Biso   1.000  C
  H490     1.0000 0.31393  0.17707  0.53407  Biso   1.000  H
  C557     1.0000 0.28933  0.14197  0.50425  Biso   1.000  C
  H491     1.0000 0.32883  0.16057  0.49847  Biso   1.000  H
  C558     1.0000 0.23963  0.10437  0.49098  Biso   1.000  C
  C559     1.0000 0.18296  0.07530  0.49980  Biso   1.000  C
  H492     1.0000 0.14993  0.04857  0.49107  Biso   1.000  H
  C560     1.0000 0.20293  0.05637  0.45611  Biso   1.000  C
  H493     1.0000 0.17483  0.07167  0.45397  Biso   1.000  H
  H494     1.0000 0.18083  0.01607  0.46277  Biso   1.000  H
  C561     1.0000 0.23044  0.05384  0.43454  Biso   1.000  C
  C562     1.0000 0.23773  0.09357  0.41826  Biso   1.000  C
  C563     1.0000 0.26474  0.09178  0.39862  Biso   1.000  C
  C564     1.0000 0.28263  0.04897  0.39565  Biso   1.000  C
  C565     1.0000 0.27511  0.00955  0.41244  Biso   1.000  C
  C566     1.0000 0.25082  0.01196  0.43258  Biso   1.000  C
  C567     1.0000 0.24703  0.97247  0.45109  Biso   1.000  C
  H495     1.0000 0.21073  0.93307  0.44957  Biso   1.000  H
  H496     1.0000 0.24533  0.99077  0.46477  Biso   1.000  H
  H497     1.0000 0.28243  0.96767  0.45097  Biso   1.000  H
  C568     1.0000 0.21623  0.13827  0.42128  Biso   1.000  C
  H498     1.0000 0.17623  0.12217  0.41487  Biso   1.000  H
  H499     1.0000 0.24433  0.17617  0.41407  Biso   1.000  H
  H500     1.0000 0.21443  0.14547  0.43677  Biso   1.000  H
  C569     1.0000 0.30863  0.04437  0.37369  Biso   1.000  C
  H501     1.0000 0.27603  0.01607  0.36427  Biso   1.000  H
  H502     1.0000 0.33713  0.03017  0.37607  Biso   1.000  H
  H503     1.0000 0.32923  0.08387  0.36677  Biso   1.000  H
  C570     1.0000 0.29913  0.96597  0.40956  Biso   1.000  C
  H504     1.0000 0.27873  0.93167  0.41967  Biso   1.000  H
  H505     1.0000 0.29253  0.95047  0.39447  Biso   1.000  H
  C571     1.0000 0.39213  0.96947  0.41243  Biso   1.000  C
  C572     1.0000 0.45393  0.00287  0.41763  Biso   1.000  C
  H506     1.0000 0.47173  0.04417  0.42137  Biso   1.000  H
  C573     1.0000 0.48813  0.97547  0.41729  Biso   1.000  C
  H507     1.0000 0.52923  0.99777  0.42117  Biso   1.000  H
  C574     1.0000 0.46353  0.91577  0.41132  Biso   1.000  C
  H508     1.0000 0.48753  0.89727  0.41147  Biso   1.000  H
  C575     1.0000 0.40324  0.88298  0.40513  Biso   1.000  C
  C576     1.0000 0.36787  0.91052  0.40576  Biso   1.000  C
  H509     1.0000 0.32683  0.88837  0.40157  Biso   1.000  H
  C577     1.0000 0.27463  0.13527  0.38032  Biso   1.000  C
  H510     1.0000 0.27623  0.17187  0.38617  Biso   1.000  H
  H511     1.0000 0.31293  0.14697  0.37277  Biso   1.000  H
  C578     1.0000 0.22853  0.13637  0.34703  Biso   1.000  C
  C579     1.0000 0.27463  0.19257  0.34196  Biso   1.000  C
  H512     1.0000 0.30823  0.21227  0.35137  Biso   1.000  H
  C580     1.0000 0.27193  0.22027  0.32316  Biso   1.000  C
  H513     1.0000 0.30493  0.25817  0.31927  Biso   1.000  H
  C581     1.0000 0.22193  0.19357  0.30996  Biso   1.000  C
  H514     1.0000 0.21973  0.21387  0.29737  Biso   1.000  H
  C582     1.0000 0.17543  0.13747  0.31509  Biso   1.000  C
  C583     1.0000 0.17823  0.10727  0.33320  Biso   1.000  C
  H515     1.0000 0.14703  0.06767  0.33627  Biso   1.000  H
  C584     1.0000 0.11903  0.10947  0.30179  Biso   1.000  C
  C585     1.0000 0.88881  0.95355  0.45551  Biso   1.000  C
  C586     1.0000 0.82713  0.93267  0.46429  Biso   1.000  C
  C587     1.0000 0.81693  0.91451  0.48611  Biso   1.000  C
  H516     1.0000 0.84783  0.91537  0.49477  Biso   1.000  H
  C588     1.0000 0.75953  0.89497  0.49478  Biso   1.000  C
  C589     1.0000 0.71323  0.89087  0.48184  Biso   1.000  C
  H517     1.0000 0.67413  0.87587  0.48767  Biso   1.000  H
  C590     1.0000 0.72543  0.90947  0.46013  Biso   1.000  C
  H518     1.0000 0.69413  0.90727  0.45127  Biso   1.000  H
  C591     1.0000 0.78243  0.93107  0.45125  Biso   1.000  C
  H519     1.0000 0.79033  0.94427  0.43657  Biso   1.000  H
  C592     1.0000 0.79153  0.87527  0.52887  Biso   1.000  C
  H520     1.0000 0.82493  0.91677  0.53087  Biso   1.000  H
  H521     1.0000 0.80723  0.85137  0.52177  Biso   1.000  H
  C593     1.0000 0.76341  0.84803  0.55031  Biso   1.000  C
  C594     1.0000 0.75895  0.88569  0.56660  Biso   1.000  C
  C595     1.0000 0.73183  0.86027  0.58666  Biso   1.000  C
  C596     1.0000 0.71213  0.79947  0.59121  Biso   1.000  C
  C597     1.0000 0.71733  0.76337  0.57533  Biso   1.000  C
  C598     1.0000 0.73988  0.78657  0.55464  Biso   1.000  C
  C599     1.0000 0.73903  0.74647  0.53635  Biso   1.000  C
  H522     1.0000 0.77433  0.74157  0.53757  Biso   1.000  H
  H523     1.0000 0.73983  0.76497  0.52237  Biso   1.000  H
  H524     1.0000 0.70263  0.70717  0.53737  Biso   1.000  H
  C600     1.0000 0.78343  0.95117  0.56144  Biso   1.000  C
  H525     1.0000 0.75673  0.96437  0.56747  Biso   1.000  H
  H526     1.0000 0.78593  0.95677  0.54567  Biso   1.000  H
  H527     1.0000 0.82353  0.97497  0.56777  Biso   1.000  H
  C601     1.0000 0.68973  0.77447  0.61372  Biso   1.000  C
  H528     1.0000 0.65593  0.73337  0.61257  Biso   1.000  H
  H529     1.0000 0.67663  0.79957  0.62117  Biso   1.000  H
  H530     1.0000 0.72223  0.77437  0.62197  Biso   1.000  H
  C602     1.0000 0.72263  0.89807  0.60321  Biso   1.000  C
  H531     1.0000 0.72163  0.93197  0.59597  Biso   1.000  H
  H532     1.0000 0.68443  0.87377  0.61107  Biso   1.000  H
  C603     1.0000 0.76813  0.94897  0.63637  Biso   1.000  C
  C604     1.0000 0.81243  0.96367  0.65172  Biso   1.000  C
  H533     1.0000 0.84403  0.95547  0.64917  Biso   1.000  H
  C605     1.0000 0.80973  0.99127  0.67133  Biso   1.000  C
  C606     1.0000 0.76703  0.00557  0.67445  Biso   1.000  C
  H534     1.0000 0.76803  0.02717  0.68707  Biso   1.000  H
  C607     1.0000 0.72253  0.98957  0.65991  Biso   1.000  C
  H535     1.0000 0.68933  0.99467  0.66337  Biso   1.000  H
  C608     1.0000 0.72443  0.96527  0.63957  Biso   1.000  C
  H536     1.0000 0.69693  0.96027  0.62837  Biso   1.000  H
  C609     1.0000 0.85693  0.00547  0.68808  Biso   1.000  C
  C610     1.0000 0.69633  0.69857  0.58005  Biso   1.000  C
  H537     1.0000 0.72023  0.68497  0.57167  Biso   1.000  H
  H538     1.0000 0.70033  0.69267  0.59567  Biso   1.000  H
  C611     1.0000 0.60683  0.60357  0.57437  Biso   1.000  C
  C612     1.0000 0.63016  0.57247  0.58523  Biso   1.000  C
  H539     1.0000 0.66673  0.59327  0.59307  Biso   1.000  H
  C613     1.0000 0.59823  0.50927  0.58440  Biso   1.000  C
  C614     1.0000 0.54463  0.47967  0.57309  Biso   1.000  C
  H540     1.0000 0.52373  0.43707  0.57217  Biso   1.000  H
  C615     1.0000 0.52143  0.51107  0.56324  Biso   1.000  C
  H541     1.0000 0.48363  0.49017  0.55617  Biso   1.000  H
  C616     1.0000 0.55273  0.57327  0.56350  Biso   1.000  C
  H542     1.0000 0.53713  0.59507  0.55617  Biso   1.000  H
  C617     1.0000 0.62453  0.47567  0.59521  Biso   1.000  C
  C618     1.0000 0.37503  0.81847  0.39898  Biso   1.000  C
  O171     1.0000 0.98313  0.98697  0.58547  Biso   1.000  O
  C619     1.0000 0.98733  0.94577  0.59417  Biso   1.000  C
  H543     1.0000 0.02573  0.95217  0.59827  Biso   1.000  H
  N9       1.0000 0.93313  0.88667  0.59809  Biso   1.000  N
  C620     1.0000 0.87363  0.88097  0.59767  Biso   1.000  C
  H544     1.0000 0.87313  0.91067  0.60757  Biso   1.000  H
  H545     1.0000 0.84353  0.84057  0.60247  Biso   1.000  H
  H546     1.0000 0.86433  0.88787  0.58297  Biso   1.000  H
  C621     1.0000 0.94013  0.83477  0.60217  Biso   1.000  C
  H547     1.0000 0.90833  0.80707  0.61207  Biso   1.000  H
  H548     1.0000 0.97933  0.84787  0.60887  Biso   1.000  H
  H549     1.0000 0.93733  0.81427  0.58847  Biso   1.000  H
  Cd19     1.0000 0.40403  0.75593  0.44355  Biso   1.000  Cd
  Cd20     1.0000 0.43184  0.73241  0.38828  Biso   1.000  Cd
  O172     1.0000 0.60525  0.34335  0.35217  Biso   1.000  O
  O173     1.0000 0.62875  0.39597  0.38211  Biso   1.000  O
  O174     1.0000 0.63470  0.38533  0.13600  Biso   1.000  O
  O175     1.0000 0.70219  0.47703  0.12402  Biso   1.000  O
  O176     1.0000 0.13415  0.13167  0.21969  Biso   1.000  O
  O177     1.0000 0.05829  0.12059  0.24003  Biso   1.000  O
  O178     1.0000 0.68704  0.27948  0.30026  Biso   1.000  O
  O179     1.0000 0.74091  0.30979  0.26982  Biso   1.000  O
  O180     1.0000 0.50389  0.83382  0.44281  Biso   1.000  O
  O181     1.0000 0.48063  0.75523  0.42203  Biso   1.000  O
  O182     1.0000 0.83940  0.35700  0.53938  Biso   1.000  O
  O183     1.0000 0.76510  0.33360  0.51751  Biso   1.000  O
  O184     1.0000 0.51064  0.43055  0.30322  Biso   1.000  O
  O185     1.0000 0.30467  0.33283  0.24759  Biso   1.000  O
  O186     1.0000 0.54652  0.43885  0.19899  Biso   1.000  O
  O187     1.0000 0.79702  0.20826  0.34903  Biso   1.000  O
  O188     1.0000 0.81435  0.25360  0.45146  Biso   1.000  O
  O189     1.0000 0.69804  0.99858  0.40689  Biso   1.000  O
  C622     1.0000 0.60636  0.38474  0.36363  Biso   1.000  C
  C623     1.0000 0.57761  0.41769  0.35460  Biso   1.000  C
  C624     1.0000 0.56760  0.45670  0.36745  Biso   1.000  C
  H550     1.0000 0.58110  0.46430  0.38210  Biso   1.000  H
  C625     1.0000 0.53750  0.48460  0.35857  Biso   1.000  C
  H551     1.0000 0.52980  0.51040  0.36740  Biso   1.000  H
  C626     1.0000 0.51930  0.47530  0.33758  Biso   1.000  C
  H552     1.0000 0.49840  0.49390  0.33180  Biso   1.000  H
  C627     1.0000 0.53140  0.43770  0.32431  Biso   1.000  C
  C628     1.0000 0.55900  0.40863  0.33313  Biso   1.000  C
  H553     1.0000 0.56530  0.38190  0.32440  Biso   1.000  H
  C629     1.0000 0.52010  0.38970  0.28944  Biso   1.000  C
  H554     1.0000 0.56350  0.40500  0.28730  Biso   1.000  H
  H555     1.0000 0.50190  0.34940  0.29610  Biso   1.000  H
  C630     1.0000 0.49006  0.38717  0.26787  Biso   1.000  C
  C631     1.0000 0.52250  0.42690  0.25159  Biso   1.000  C
  C632     1.0000 0.49370  0.42511  0.23195  Biso   1.000  C
  C633     1.0000 0.43300  0.38230  0.22898  Biso   1.000  C
  C634     1.0000 0.40110  0.34288  0.24577  Biso   1.000  C
  C635     1.0000 0.42780  0.34529  0.26591  Biso   1.000  C
  C636     1.0000 0.39210  0.30580  0.28442  Biso   1.000  C
  H556     1.0000 0.38900  0.26640  0.28290  Biso   1.000  H
  H557     1.0000 0.41210  0.32410  0.29810  Biso   1.000  H
  H558     1.0000 0.35190  0.30100  0.28430  Biso   1.000  H
  C637     1.0000 0.58870  0.47160  0.25461  Biso   1.000  C
  H559     1.0000 0.61260  0.45550  0.24820  Biso   1.000  H
  H560     1.0000 0.59850  0.50950  0.24740  Biso   1.000  H
  H561     1.0000 0.59770  0.47880  0.27010  Biso   1.000  H
  C638     1.0000 0.40240  0.37770  0.20702  Biso   1.000  C
  H562     1.0000 0.40670  0.34940  0.19760  Biso   1.000  H
  H563     1.0000 0.35970  0.36350  0.20940  Biso   1.000  H
  H564     1.0000 0.42130  0.41720  0.20010  Biso   1.000  H
  C639     1.0000 0.33350  0.29930  0.24289  Biso   1.000  C
  H565     1.0000 0.31960  0.26500  0.25300  Biso   1.000  H
  H566     1.0000 0.32460  0.28380  0.22780  Biso   1.000  H
  C640     1.0000 0.24400  0.30280  0.24576  Biso   1.000  C
  C641     1.0000 0.21560  0.33620  0.25096  Biso   1.000  C
  H567     1.0000 0.23910  0.37750  0.25470  Biso   1.000  H
  C642     1.0000 0.15400  0.30880  0.25062  Biso   1.000  C
  H568     1.0000 0.13520  0.33110  0.25450  Biso   1.000  H
  C643     1.0000 0.11890  0.24910  0.24465  Biso   1.000  C
  H569     1.0000 0.07640  0.23060  0.24480  Biso   1.000  H
  C644     1.0000 0.14640  0.21631  0.23846  Biso   1.000  C
  C645     1.0000 0.20931  0.24385  0.23909  Biso   1.000  C
  H570     1.0000 0.22820  0.22170  0.23490  Biso   1.000  H
  C646     1.0000 0.52730  0.46860  0.21365  Biso   1.000  C
  H571     1.0000 0.56230  0.50520  0.21950  Biso   1.000  H
  H572     1.0000 0.50070  0.48030  0.20610  Biso   1.000  H
  C647     1.0000 0.57450  0.46970  0.18036  Biso   1.000  C
  C648     1.0000 0.58460  0.52590  0.17529  Biso   1.000  C
  H573     1.0000 0.57070  0.54560  0.18470  Biso   1.000  H
  C649     1.0000 0.61500  0.55360  0.15649  Biso   1.000  C
  H574     1.0000 0.61990  0.59150  0.15260  Biso   1.000  H
  C650     1.0000 0.63830  0.52690  0.14329  Biso   1.000  C
  H575     1.0000 0.66080  0.54720  0.13070  Biso   1.000  H
  C651     1.0000 0.62870  0.47080  0.14842  Biso   1.000  C
  C652     1.0000 0.59570  0.44060  0.16653  Biso   1.000  C
  H576     1.0000 0.58730  0.40100  0.16960  Biso   1.000  H
  C653     1.0000 0.65710  0.44280  0.13512  Biso   1.000  C
  C654     1.0000 0.73140  0.28688  0.28884  Biso   1.000  C
  C655     1.0000 0.77220  0.26600  0.29762  Biso   1.000  C
  C656     1.0000 0.76424  0.24784  0.31944  Biso   1.000  C
  H577     1.0000 0.73420  0.24870  0.32810  Biso   1.000  H
  C657     1.0000 0.80210  0.22830  0.32811  Biso   1.000  C
  C658     1.0000 0.84430  0.22420  0.31517  Biso   1.000  C
  H578     1.0000 0.86840  0.20920  0.32100  Biso   1.000  H
  C659     1.0000 0.85070  0.24280  0.29346  Biso   1.000  C
  H579     1.0000 0.87980  0.24060  0.28460  Biso   1.000  H
  C660     1.0000 0.81530  0.26440  0.28458  Biso   1.000  C
  H580     1.0000 0.82060  0.27760  0.26990  Biso   1.000  H
  C661     1.0000 0.75040  0.20860  0.36220  Biso   1.000  C
  H581     1.0000 0.75850  0.25010  0.36420  Biso   1.000  H
  H582     1.0000 0.71080  0.18470  0.35510  Biso   1.000  H
  C662     1.0000 0.75128  0.18136  0.38364  Biso   1.000  C
  C663     1.0000 0.79340  0.21902  0.39993  Biso   1.000  C
  C664     1.0000 0.79510  0.19360  0.41999  Biso   1.000  C
  C665     1.0000 0.75400  0.13280  0.42454  Biso   1.000  C
  C666     1.0000 0.71270  0.09670  0.40866  Biso   1.000  C
  C667     1.0000 0.71335  0.11990  0.38797  Biso   1.000  C
  C668     1.0000 0.67410  0.07980  0.36968  Biso   1.000  C
  H583     1.0000 0.63390  0.07490  0.37090  Biso   1.000  H
  H584     1.0000 0.69180  0.09830  0.35570  Biso   1.000  H
  H585     1.0000 0.67120  0.04050  0.37070  Biso   1.000  H
  C669     1.0000 0.83440  0.28450  0.39477  Biso   1.000  C
  H586     1.0000 0.87430  0.29770  0.40080  Biso   1.000  H
  H587     1.0000 0.83750  0.29010  0.37900  Biso   1.000  H
  H588     1.0000 0.81810  0.30830  0.40110  Biso   1.000  H
  C670     1.0000 0.75140  0.10780  0.44705  Biso   1.000  C
  H589     1.0000 0.74410  0.06670  0.44590  Biso   1.000  H
  H590     1.0000 0.78960  0.13290  0.45450  Biso   1.000  H
  H591     1.0000 0.71880  0.10770  0.45530  Biso   1.000  H
  C671     1.0000 0.84210  0.23140  0.43654  Biso   1.000  C
  H592     1.0000 0.87700  0.26530  0.42930  Biso   1.000  H
  H593     1.0000 0.85600  0.20710  0.44440  Biso   1.000  H
  C672     1.0000 0.84750  0.28230  0.46970  Biso   1.000  C
  C673     1.0000 0.81790  0.29700  0.48505  Biso   1.000  C
  H594     1.0000 0.77810  0.28880  0.48250  Biso   1.000  H
  C674     1.0000 0.84820  0.32460  0.50466  Biso   1.000  C
  C675     1.0000 0.90520  0.33890  0.50778  Biso   1.000  C
  H595     1.0000 0.92580  0.36050  0.52040  Biso   1.000  H
  C676     1.0000 0.93370  0.32290  0.49324  Biso   1.000  C
  H596     1.0000 0.97200  0.32800  0.49670  Biso   1.000  H
  C677     1.0000 0.90750  0.29860  0.47290  Biso   1.000  C
  H597     1.0000 0.93000  0.29360  0.46170  Biso   1.000  H
  C678     1.0000 0.81520  0.33880  0.52141  Biso   1.000  C
  C679     1.0000 0.66890  0.03190  0.41338  Biso   1.000  C
  H598     1.0000 0.63140  0.01830  0.40500  Biso   1.000  H
  H599     1.0000 0.65900  0.02600  0.42900  Biso   1.000  H
  C680     1.0000 0.66340  0.93690  0.40770  Biso   1.000  C
  C681     1.0000 0.60897  0.90580  0.41856  Biso   1.000  C
  H600     1.0000 0.59320  0.92660  0.42640  Biso   1.000  H
  C682     1.0000 0.57770  0.84260  0.41773  Biso   1.000  C
  C683     1.0000 0.60170  0.81300  0.40642  Biso   1.000  C
  H601     1.0000 0.58000  0.77040  0.40550  Biso   1.000  H
  C684     1.0000 0.65630  0.84440  0.39657  Biso   1.000  C
  H602     1.0000 0.67320  0.82350  0.38950  Biso   1.000  H
  C685     1.0000 0.68720  0.90660  0.39683  Biso   1.000  C
  H603     1.0000 0.72460  0.92840  0.38950  Biso   1.000  H
  C686     1.0000 0.51780  0.80900  0.42854  Biso   1.000  C
  C687     1.0000 0.11010  0.15180  0.23231  Biso   1.000  C
  O190     1.0000 0.67050  0.32030  0.41880  Biso   1.000  O
  C688     1.0000 0.62510  0.27910  0.42750  Biso   1.000  C
  H604     1.0000 0.59310  0.28550  0.43160  Biso   1.000  H
  N10      1.0000 0.62020  0.22000  0.43142  Biso   1.000  N
  C689     1.0000 0.67400  0.21430  0.43100  Biso   1.000  C
  H605     1.0000 0.70420  0.24400  0.44090  Biso   1.000  H
  H606     1.0000 0.66370  0.17390  0.43580  Biso   1.000  H
  H607     1.0000 0.69020  0.22120  0.41630  Biso   1.000  H
  C690     1.0000 0.56130  0.16810  0.43550  Biso   1.000  C
  H608     1.0000 0.56540  0.14040  0.44540  Biso   1.000  H
  H609     1.0000 0.53520  0.18120  0.44220  Biso   1.000  H
  H610     1.0000 0.54360  0.14760  0.42180  Biso   1.000  H
  Cd21     1.0000 0.07070  0.08926  0.77689  Biso   1.000  Cd
  Cd22     1.0000 0.09851  0.06575  0.72161  Biso   1.000  Cd
  O191     1.0000 0.27192  0.67668  0.68550  Biso   1.000  O
  O192     1.0000 0.29542  0.72930  0.71544  Biso   1.000  O
  O193     1.0000 0.30137  0.71866  0.46933  Biso   1.000  O
  O194     1.0000 0.36886  0.81036  0.45735  Biso   1.000  O
  O195     1.0000 0.80082  0.46500  0.55302  Biso   1.000  O
  O196     1.0000 0.72496  0.45392  0.57336  Biso   1.000  O
  O197     1.0000 0.35371  0.61281  0.63359  Biso   1.000  O
  O198     1.0000 0.40758  0.64312  0.60315  Biso   1.000  O
  O199     1.0000 0.17056  0.16715  0.77614  Biso   1.000  O
  O200     1.0000 0.14730  0.08856  0.75536  Biso   1.000  O
  O201     1.0000 0.50607  0.69033  0.87271  Biso   1.000  O
  O202     1.0000 0.43177  0.66693  0.85084  Biso   1.000  O
  O203     1.0000 0.17731  0.76388  0.63655  Biso   1.000  O
  O204     1.0000 0.97134  0.66616  0.58092  Biso   1.000  O
  O205     1.0000 0.21319  0.77218  0.53232  Biso   1.000  O
  O206     1.0000 0.46369  0.54159  0.68236  Biso   1.000  O
  O207     1.0000 0.48102  0.58693  0.78479  Biso   1.000  O
  O208     1.0000 0.36471  0.33191  0.74022  Biso   1.000  O
  C691     1.0000 0.27303  0.71807  0.69696  Biso   1.000  C
  C692     1.0000 0.24428  0.75102  0.68793  Biso   1.000  C
  C693     1.0000 0.23427  0.79003  0.70078  Biso   1.000  C
  H611     1.0000 0.24777  0.79763  0.71543  Biso   1.000  H
  C694     1.0000 0.20417  0.81793  0.69190  Biso   1.000  C
  H612     1.0000 0.19647  0.84373  0.70073  Biso   1.000  H
  C695     1.0000 0.18597  0.80863  0.67091  Biso   1.000  C
  H613     1.0000 0.16507  0.82723  0.66513  Biso   1.000  H
  C696     1.0000 0.19807  0.77103  0.65764  Biso   1.000  C
  C697     1.0000 0.22567  0.74196  0.66646  Biso   1.000  C
  H614     1.0000 0.23197  0.71523  0.65773  Biso   1.000  H
  C698     1.0000 0.18677  0.72303  0.62277  Biso   1.000  C
  H615     1.0000 0.23017  0.73833  0.62063  Biso   1.000  H
  H616     1.0000 0.16857  0.68273  0.62943  Biso   1.000  H
  C699     1.0000 0.15673  0.72050  0.60120  Biso   1.000  C
  C700     1.0000 0.18917  0.76023  0.58492  Biso   1.000  C
  C701     1.0000 0.16037  0.75844  0.56528  Biso   1.000  C
  C702     1.0000 0.09967  0.71563  0.56231  Biso   1.000  C
  C703     1.0000 0.06777  0.67621  0.57910  Biso   1.000  C
  C704     1.0000 0.09447  0.67862  0.59924  Biso   1.000  C
  C705     1.0000 0.05877  0.63913  0.61775  Biso   1.000  C
  H617     1.0000 0.05567  0.59973  0.61623  Biso   1.000  H
  H618     1.0000 0.07877  0.65743  0.63143  Biso   1.000  H
  H619     1.0000 0.01857  0.63433  0.61763  Biso   1.000  H
  C706     1.0000 0.25537  0.80493  0.58794  Biso   1.000  C
  H620     1.0000 0.27927  0.78883  0.58153  Biso   1.000  H
  H621     1.0000 0.26517  0.84283  0.58073  Biso   1.000  H
  H622     1.0000 0.26437  0.81213  0.60343  Biso   1.000  H
  C707     1.0000 0.06907  0.71103  0.54035  Biso   1.000  C
  H623     1.0000 0.07337  0.68273  0.53093  Biso   1.000  H
  H624     1.0000 0.02637  0.69683  0.54273  Biso   1.000  H
  H625     1.0000 0.08797  0.75053  0.53343  Biso   1.000  H
  C708     1.0000 0.00017  0.63263  0.57622  Biso   1.000  C
  H626     1.0000 0.98627  0.59833  0.58633  Biso   1.000  H
  H627     1.0000 0.99127  0.61713  0.56113  Biso   1.000  H
  C709     1.0000 0.91067  0.63613  0.57909  Biso   1.000  C
  C710     1.0000 0.88227  0.66953  0.58429  Biso   1.000  C
  H628     1.0000 0.90577  0.71083  0.58803  Biso   1.000  H
  C711     1.0000 0.82067  0.64213  0.58395  Biso   1.000  C
  H629     1.0000 0.80187  0.66443  0.58783  Biso   1.000  H
  C712     1.0000 0.78557  0.58243  0.57798  Biso   1.000  C
  H630     1.0000 0.74307  0.56393  0.57813  Biso   1.000  H
  C713     1.0000 0.81307  0.54964  0.57179  Biso   1.000  C
  C714     1.0000 0.87598  0.57718  0.57242  Biso   1.000  C
  H631     1.0000 0.89487  0.55503  0.56823  Biso   1.000  H
  C715     1.0000 0.19397  0.80193  0.54698  Biso   1.000  C
  H632     1.0000 0.22897  0.83853  0.55283  Biso   1.000  H
  H633     1.0000 0.16737  0.81363  0.53943  Biso   1.000  H
  C716     1.0000 0.24117  0.80303  0.51369  Biso   1.000  C
  C717     1.0000 0.25127  0.85923  0.50862  Biso   1.000  C
  H634     1.0000 0.23737  0.87893  0.51803  Biso   1.000  H
  C718     1.0000 0.28167  0.88693  0.48982  Biso   1.000  C
  H635     1.0000 0.28657  0.92483  0.48593  Biso   1.000  H
  C719     1.0000 0.30497  0.86023  0.47662  Biso   1.000  C
  H636     1.0000 0.32747  0.88053  0.46403  Biso   1.000  H
  C720     1.0000 0.29537  0.80413  0.48175  Biso   1.000  C
  C721     1.0000 0.26237  0.77393  0.49986  Biso   1.000  C
  H637     1.0000 0.25397  0.73433  0.50293  Biso   1.000  H
  C722     1.0000 0.32377  0.77613  0.46845  Biso   1.000  C
  C723     1.0000 0.39807  0.62021  0.62217  Biso   1.000  C
  C724     1.0000 0.43887  0.59933  0.63095  Biso   1.000  C
  C725     1.0000 0.43091  0.58117  0.65277  Biso   1.000  C
  H638     1.0000 0.40087  0.58203  0.66143  Biso   1.000  H
  C726     1.0000 0.46877  0.56163  0.66144  Biso   1.000  C
  C727     1.0000 0.51097  0.55753  0.64850  Biso   1.000  C
  H639     1.0000 0.53507  0.54253  0.65433  Biso   1.000  H
  C728     1.0000 0.51737  0.57613  0.62679  Biso   1.000  C
  H640     1.0000 0.54647  0.57393  0.61793  Biso   1.000  H
  C729     1.0000 0.48197  0.59773  0.61791  Biso   1.000  C
  H641     1.0000 0.48727  0.61093  0.60323  Biso   1.000  H
  C730     1.0000 0.41707  0.54193  0.69553  Biso   1.000  C
  H642     1.0000 0.42517  0.58343  0.69753  Biso   1.000  H
  H643     1.0000 0.37747  0.51803  0.68843  Biso   1.000  H
  C731     1.0000 0.41795  0.51469  0.71697  Biso   1.000  C
  C732     1.0000 0.46007  0.55235  0.73326  Biso   1.000  C
  C733     1.0000 0.46177  0.52693  0.75332  Biso   1.000  C
  C734     1.0000 0.42067  0.46613  0.75787  Biso   1.000  C
  C735     1.0000 0.37937  0.43003  0.74199  Biso   1.000  C
  C736     1.0000 0.38002  0.45323  0.72130  Biso   1.000  C
  C737     1.0000 0.34077  0.41313  0.70301  Biso   1.000  C
  H644     1.0000 0.30057  0.40823  0.70423  Biso   1.000  H
  H645     1.0000 0.35847  0.43163  0.68903  Biso   1.000  H
  H646     1.0000 0.33787  0.37383  0.70403  Biso   1.000  H
  C738     1.0000 0.50107  0.61783  0.72810  Biso   1.000  C
  H647     1.0000 0.54097  0.63103  0.73413  Biso   1.000  H
  H648     1.0000 0.50417  0.62343  0.71233  Biso   1.000  H
  H649     1.0000 0.48477  0.64163  0.73443  Biso   1.000  H
  C739     1.0000 0.41807  0.44113  0.78038  Biso   1.000  C
  H650     1.0000 0.41077  0.40003  0.77923  Biso   1.000  H
  H651     1.0000 0.45627  0.46623  0.78783  Biso   1.000  H
  H652     1.0000 0.38547  0.44103  0.78863  Biso   1.000  H
  C740     1.0000 0.50877  0.56473  0.76987  Biso   1.000  C
  H653     1.0000 0.54367  0.59863  0.76263  Biso   1.000  H
  H654     1.0000 0.52267  0.54043  0.77773  Biso   1.000  H
  C741     1.0000 0.51417  0.61563  0.80303  Biso   1.000  C
  C742     1.0000 0.48457  0.63033  0.81838  Biso   1.000  C
  H655     1.0000 0.44477  0.62213  0.81583  Biso   1.000  H
  C743     1.0000 0.51487  0.65793  0.83799  Biso   1.000  C
  C744     1.0000 0.57187  0.67223  0.84111  Biso   1.000  C
  H656     1.0000 0.59247  0.69383  0.85373  Biso   1.000  H
  C745     1.0000 0.60037  0.65623  0.82657  Biso   1.000  C
  H657     1.0000 0.63867  0.66133  0.83003  Biso   1.000  H
  C746     1.0000 0.57417  0.63193  0.80623  Biso   1.000  C
  H658     1.0000 0.59667  0.62693  0.79503  Biso   1.000  H
  C747     1.0000 0.48187  0.67213  0.85474  Biso   1.000  C
  C748     1.0000 0.33557  0.36523  0.74671  Biso   1.000  C
  H659     1.0000 0.29807  0.35163  0.73833  Biso   1.000  H
  H660     1.0000 0.32567  0.35933  0.76233  Biso   1.000  H
  C749     1.0000 0.33007  0.27023  0.74103  Biso   1.000  C
  C750     1.0000 0.27564  0.23913  0.75189  Biso   1.000  C
  H661     1.0000 0.25987  0.25993  0.75973  Biso   1.000  H
  C751     1.0000 0.24437  0.17593  0.75106  Biso   1.000  C
  C752     1.0000 0.26837  0.14633  0.73975  Biso   1.000  C
  H662     1.0000 0.24667  0.10373  0.73883  Biso   1.000  H
  C753     1.0000 0.32297  0.17773  0.72990  Biso   1.000  C
  H663     1.0000 0.33987  0.15683  0.72283  Biso   1.000  H
  C754     1.0000 0.35387  0.23993  0.73016  Biso   1.000  C
  H664     1.0000 0.39127  0.26173  0.72283  Biso   1.000  H
  C755     1.0000 0.18447  0.14233  0.76187  Biso   1.000  C
  C756     1.0000 0.77677  0.48513  0.56564  Biso   1.000  C
  O209     1.0000 0.33717  0.65363  0.75213  Biso   1.000  O
  C757     1.0000 0.29177  0.61243  0.76083  Biso   1.000  C
  H665     1.0000 0.25977  0.61883  0.76493  Biso   1.000  H
  N11      1.0000 0.28687  0.55333  0.76475  Biso   1.000  N
  C758     1.0000 0.34067  0.54763  0.76433  Biso   1.000  C
  H666     1.0000 0.37087  0.57733  0.77423  Biso   1.000  H
  H667     1.0000 0.33037  0.50723  0.76913  Biso   1.000  H
  H668     1.0000 0.35687  0.55453  0.74963  Biso   1.000  H
  C759     1.0000 0.22797  0.50143  0.76883  Biso   1.000  C
  H669     1.0000 0.23207  0.47373  0.77873  Biso   1.000  H
  H670     1.0000 0.20187  0.51453  0.77553  Biso   1.000  H
  H671     1.0000 0.21027  0.48093  0.75513  Biso   1.000  H
  Cd23     1.0000 0.73736  0.42259  0.11022  Biso   1.000  Cd
  Cd24     1.0000 0.76518  0.39908  0.05494  Biso   1.000  Cd
  O210     1.0000 0.93858  0.01002  0.01884  Biso   1.000  O
  O211     1.0000 0.96208  0.06264  0.04878  Biso   1.000  O
  O212     1.0000 0.96803  0.05200  0.80267  Biso   1.000  O
  O213     1.0000 0.03552  0.14370  0.79069  Biso   1.000  O
  O214     1.0000 0.46748  0.79834  0.88636  Biso   1.000  O
  O215     1.0000 0.39162  0.78726  0.90670  Biso   1.000  O
  O216     1.0000 0.02037  0.94615  0.96693  Biso   1.000  O
  O217     1.0000 0.07424  0.97646  0.93649  Biso   1.000  O
  O218     1.0000 0.83722  0.50049  0.10948  Biso   1.000  O
  O219     1.0000 0.81396  0.42190  0.08870  Biso   1.000  O
  O220     1.0000 0.17273  0.02367  0.20605  Biso   1.000  O
  O221     1.0000 0.09843  0.00027  0.18418  Biso   1.000  O
  O222     1.0000 0.84397  0.09722  0.96989  Biso   1.000  O
  O223     1.0000 0.63800  0.99950  0.91426  Biso   1.000  O
  O224     1.0000 0.87985  0.10552  0.86566  Biso   1.000  O
  O225     1.0000 0.13035  0.87493  0.01570  Biso   1.000  O
  O226     1.0000 0.14768  0.92027  0.11813  Biso   1.000  O
  O227     1.0000 0.03137  0.66525  0.07356  Biso   1.000  O
  C760     1.0000 0.93969  0.05141  0.03030  Biso   1.000  C
  C761     1.0000 0.91094  0.08436  0.02127  Biso   1.000  C
  C762     1.0000 0.90093  0.12337  0.03412  Biso   1.000  C
  H672     1.0000 0.91443  0.13097  0.04877  Biso   1.000  H
  C763     1.0000 0.87083  0.15127  0.02524  Biso   1.000  C
  H673     1.0000 0.86313  0.17707  0.03407  Biso   1.000  H
  C764     1.0000 0.85263  0.14197  0.00425  Biso   1.000  C
  H674     1.0000 0.83173  0.16057  0.99847  Biso   1.000  H
  C765     1.0000 0.86473  0.10437  0.99098  Biso   1.000  C
  C766     1.0000 0.89233  0.07530  0.99980  Biso   1.000  C
  H675     1.0000 0.89863  0.04857  0.99107  Biso   1.000  H
  C767     1.0000 0.85343  0.05637  0.95611  Biso   1.000  C
  H676     1.0000 0.89683  0.07167  0.95397  Biso   1.000  H
  H677     1.0000 0.83523  0.01607  0.96277  Biso   1.000  H
  C768     1.0000 0.82339  0.05384  0.93454  Biso   1.000  C
  C769     1.0000 0.85583  0.09357  0.91826  Biso   1.000  C
  C770     1.0000 0.82703  0.09178  0.89862  Biso   1.000  C
  C771     1.0000 0.76633  0.04897  0.89565  Biso   1.000  C
  C772     1.0000 0.73443  0.00955  0.91244  Biso   1.000  C
  C773     1.0000 0.76113  0.01196  0.93258  Biso   1.000  C
  C774     1.0000 0.72543  0.97247  0.95109  Biso   1.000  C
  H678     1.0000 0.72233  0.93307  0.94957  Biso   1.000  H
  H679     1.0000 0.74543  0.99077  0.96477  Biso   1.000  H
  H680     1.0000 0.68523  0.96767  0.95097  Biso   1.000  H
  C775     1.0000 0.92203  0.13827  0.92128  Biso   1.000  C
  H681     1.0000 0.94593  0.12217  0.91487  Biso   1.000  H
  H682     1.0000 0.93183  0.17617  0.91407  Biso   1.000  H
  H683     1.0000 0.93103  0.14547  0.93677  Biso   1.000  H
  C776     1.0000 0.73573  0.04437  0.87369  Biso   1.000  C
  H684     1.0000 0.74003  0.01607  0.86427  Biso   1.000  H
  H685     1.0000 0.69303  0.03017  0.87607  Biso   1.000  H
  H686     1.0000 0.75463  0.08387  0.86677  Biso   1.000  H
  C777     1.0000 0.66683  0.96597  0.90956  Biso   1.000  C
  H687     1.0000 0.65293  0.93167  0.91967  Biso   1.000  H
  H688     1.0000 0.65793  0.95047  0.89447  Biso   1.000  H
  C778     1.0000 0.57733  0.96947  0.91243  Biso   1.000  C
  C779     1.0000 0.54893  0.00287  0.91763  Biso   1.000  C
  H689     1.0000 0.57243  0.04417  0.92137  Biso   1.000  H
  C780     1.0000 0.48733  0.97547  0.91729  Biso   1.000  C
  H690     1.0000 0.46853  0.99777  0.92117  Biso   1.000  H
  C781     1.0000 0.45223  0.91577  0.91132  Biso   1.000  C
  H691     1.0000 0.40973  0.89727  0.91147  Biso   1.000  H
  C782     1.0000 0.47973  0.88298  0.90513  Biso   1.000  C
  C783     1.0000 0.54264  0.91052  0.90576  Biso   1.000  C
  H692     1.0000 0.56153  0.88837  0.90157  Biso   1.000  H
  C784     1.0000 0.86063  0.13527  0.88032  Biso   1.000  C
  H693     1.0000 0.89563  0.17187  0.88617  Biso   1.000  H
  H694     1.0000 0.83403  0.14697  0.87277  Biso   1.000  H
  C785     1.0000 0.90783  0.13637  0.84703  Biso   1.000  C
  C786     1.0000 0.91793  0.19257  0.84196  Biso   1.000  C
  H695     1.0000 0.90403  0.21227  0.85137  Biso   1.000  H
  C787     1.0000 0.94833  0.22027  0.82316  Biso   1.000  C
  H696     1.0000 0.95323  0.25817  0.81927  Biso   1.000  H
  C788     1.0000 0.97163  0.19357  0.80996  Biso   1.000  C
  H697     1.0000 0.99413  0.21387  0.79737  Biso   1.000  H
  C789     1.0000 0.96203  0.13747  0.81509  Biso   1.000  C
  C790     1.0000 0.92903  0.10727  0.83320  Biso   1.000  C
  H698     1.0000 0.92063  0.06767  0.83627  Biso   1.000  H
  C791     1.0000 0.99043  0.10947  0.80179  Biso   1.000  C
  C792     1.0000 0.06473  0.95355  0.95551  Biso   1.000  C
  C793     1.0000 0.10553  0.93267  0.96429  Biso   1.000  C
  C794     1.0000 0.09757  0.91451  0.98611  Biso   1.000  C
  H699     1.0000 0.06753  0.91537  0.99477  Biso   1.000  H
  C795     1.0000 0.13543  0.89497  0.99478  Biso   1.000  C
  C796     1.0000 0.17763  0.89087  0.98184  Biso   1.000  C
  H700     1.0000 0.20173  0.87587  0.98767  Biso   1.000  H
  C797     1.0000 0.18403  0.90947  0.96013  Biso   1.000  C
  H701     1.0000 0.21313  0.90727  0.95127  Biso   1.000  H
  C798     1.0000 0.14863  0.93107  0.95125  Biso   1.000  C
  H702     1.0000 0.15393  0.94427  0.93657  Biso   1.000  H
  C799     1.0000 0.08373  0.87527  0.02887  Biso   1.000  C
  H703     1.0000 0.09183  0.91677  0.03087  Biso   1.000  H
  H704     1.0000 0.04413  0.85137  0.02177  Biso   1.000  H
  C800     1.0000 0.08461  0.84803  0.05031  Biso   1.000  C
  C801     1.0000 0.12673  0.88569  0.06660  Biso   1.000  C
  C802     1.0000 0.12843  0.86027  0.08666  Biso   1.000  C
  C803     1.0000 0.08733  0.79947  0.09121  Biso   1.000  C
  C804     1.0000 0.04603  0.76337  0.07533  Biso   1.000  C
  C805     1.0000 0.04668  0.78657  0.05464  Biso   1.000  C
  C806     1.0000 0.00743  0.74647  0.03635  Biso   1.000  C
  H705     1.0000 0.96723  0.74157  0.03757  Biso   1.000  H
  H706     1.0000 0.02513  0.76497  0.02237  Biso   1.000  H
  H707     1.0000 0.00453  0.70717  0.03737  Biso   1.000  H
  C807     1.0000 0.16773  0.95117  0.06144  Biso   1.000  C
  H708     1.0000 0.20763  0.96437  0.06747  Biso   1.000  H
  H709     1.0000 0.17083  0.95677  0.04567  Biso   1.000  H
  H710     1.0000 0.15143  0.97497  0.06777  Biso   1.000  H
  C808     1.0000 0.08473  0.77447  0.11372  Biso   1.000  C
  H711     1.0000 0.07743  0.73337  0.11257  Biso   1.000  H
  H712     1.0000 0.12293  0.79957  0.12117  Biso   1.000  H
  H713     1.0000 0.05213  0.77437  0.12197  Biso   1.000  H
  C809     1.0000 0.17543  0.89807  0.10321  Biso   1.000  C
  H714     1.0000 0.21033  0.93197  0.09597  Biso   1.000  H
  H715     1.0000 0.18933  0.87377  0.11107  Biso   1.000  H
  C810     1.0000 0.18083  0.94897  0.13637  Biso   1.000  C
  C811     1.0000 0.15123  0.96367  0.15172  Biso   1.000  C
  H716     1.0000 0.11143  0.95547  0.14917  Biso   1.000  H
  C812     1.0000 0.18153  0.99127  0.17133  Biso   1.000  C
  C813     1.0000 0.23853  0.00557  0.17445  Biso   1.000  C
  H717     1.0000 0.25913  0.02717  0.18707  Biso   1.000  H
  C814     1.0000 0.26703  0.98957  0.15991  Biso   1.000  C
  H718     1.0000 0.30533  0.99467  0.16337  Biso   1.000  H
  C815     1.0000 0.24083  0.96527  0.13957  Biso   1.000  C
  H719     1.0000 0.26333  0.96027  0.12837  Biso   1.000  H
  C816     1.0000 0.14853  0.00547  0.18808  Biso   1.000  C
  C817     1.0000 0.00223  0.69857  0.08005  Biso   1.000  C
  H720     1.0000 0.96473  0.68497  0.07167  Biso   1.000  H
  H721     1.0000 0.99233  0.69267  0.09567  Biso   1.000  H
  C818     1.0000 0.99673  0.60357  0.07437  Biso   1.000  C
  C819     1.0000 0.94230  0.57247  0.08523  Biso   1.000  C
  H722     1.0000 0.92653  0.59327  0.09307  Biso   1.000  H
  C820     1.0000 0.91103  0.50927  0.08440  Biso   1.000  C
  C821     1.0000 0.93503  0.47967  0.07309  Biso   1.000  C
  H723     1.0000 0.91333  0.43707  0.07217  Biso   1.000  H
  C822     1.0000 0.98963  0.51107  0.06324  Biso   1.000  C
  H724     1.0000 0.00653  0.49017  0.05617  Biso   1.000  H
  C823     1.0000 0.02053  0.57327  0.06350  Biso   1.000  C
  H725     1.0000 0.05793  0.59507  0.05617  Biso   1.000  H
  C824     1.0000 0.85113  0.47567  0.09521  Biso   1.000  C
  C825     1.0000 0.44343  0.81847  0.89898  Biso   1.000  C
  O228     1.0000 0.00383  0.98697  0.08547  Biso   1.000  O
  C826     1.0000 0.95843  0.94577  0.09417  Biso   1.000  C
  H726     1.0000 0.92643  0.95217  0.09827  Biso   1.000  H
  N12      1.0000 0.95353  0.88667  0.09809  Biso   1.000  N
  C827     1.0000 0.00733  0.88097  0.09767  Biso   1.000  C
  H727     1.0000 0.03753  0.91067  0.10757  Biso   1.000  H
  H728     1.0000 0.99703  0.84057  0.10247  Biso   1.000  H
  H729     1.0000 0.02353  0.88787  0.08297  Biso   1.000  H
  C828     1.0000 0.89463  0.83477  0.10217  Biso   1.000  C
  H730     1.0000 0.89873  0.80707  0.11207  Biso   1.000  H
  H731     1.0000 0.86853  0.84787  0.10887  Biso   1.000  H
  H732     1.0000 0.87693  0.81427  0.08847  Biso   1.000  H
  Cd25     1.0000 0.35190  0.59597  0.44355  Biso   1.000  Cd
  Cd26     1.0000 0.30057  0.56816  0.38828  Biso   1.000  Cd
  O229     1.0000 0.73810  0.39475  0.35217  Biso   1.000  O
  O230     1.0000 0.76722  0.37125  0.38211  Biso   1.000  O
  O231     1.0000 0.75063  0.36530  0.13600  Biso   1.000  O
  O232     1.0000 0.77484  0.29781  0.12402  Biso   1.000  O
  O233     1.0000 0.99752  0.86585  0.21969  Biso   1.000  O
  O234     1.0000 0.06230  0.94171  0.24003  Biso   1.000  O
  O235     1.0000 0.59244  0.31296  0.30026  Biso   1.000  O
  O236     1.0000 0.56888  0.25909  0.26982  Biso   1.000  O
  O237     1.0000 0.32993  0.49611  0.44281  Biso   1.000  O
  O238     1.0000 0.27460  0.51937  0.42203  Biso   1.000  O
  O239     1.0000 0.51760  0.16060  0.53938  Biso   1.000  O
  O240     1.0000 0.56850  0.23490  0.51751  Biso   1.000  O
  O241     1.0000 0.91991  0.48936  0.30322  Biso   1.000  O
  O242     1.0000 0.02816  0.69533  0.24759  Biso   1.000  O
  O243     1.0000 0.89233  0.45348  0.19899  Biso   1.000  O
  O244     1.0000 0.41124  0.20298  0.34903  Biso   1.000  O
  O245     1.0000 0.43925  0.18565  0.45146  Biso   1.000  O
  O246     1.0000 0.30054  0.30196  0.40689  Biso   1.000  O
  C829     1.0000 0.77838  0.39364  0.36363  Biso   1.000  C
  C830     1.0000 0.84008  0.42239  0.35460  Biso   1.000  C
  C831     1.0000 0.88910  0.43240  0.36745  Biso   1.000  C
  H733     1.0000 0.88320  0.41890  0.38210  Biso   1.000  H
  C832     1.0000 0.94710  0.46250  0.35857  Biso   1.000  C
  H734     1.0000 0.98060  0.47020  0.36740  Biso   1.000  H
  C833     1.0000 0.95600  0.48070  0.33758  Biso   1.000  C
  H735     1.0000 0.99550  0.50160  0.33180  Biso   1.000  H
  C834     1.0000 0.90630  0.46860  0.32431  Biso   1.000  C
  C835     1.0000 0.84963  0.44100  0.33313  Biso   1.000  C
  H736     1.0000 0.81660  0.43470  0.32440  Biso   1.000  H
  C836     1.0000 0.86960  0.47990  0.28944  Biso   1.000  C
  H737     1.0000 0.84150  0.43650  0.28730  Biso   1.000  H
  H738     1.0000 0.84750  0.49810  0.29610  Biso   1.000  H
  C837     1.0000 0.89711  0.50994  0.26787  Biso   1.000  C
  C838     1.0000 0.90440  0.47750  0.25159  Biso   1.000  C
  C839     1.0000 0.93141  0.50630  0.23195  Biso   1.000  C
  C840     1.0000 0.94930  0.56700  0.22898  Biso   1.000  C
  C841     1.0000 0.94178  0.59890  0.24577  Biso   1.000  C
  C842     1.0000 0.91749  0.57220  0.26591  Biso   1.000  C
  C843     1.0000 0.91370  0.60790  0.28442  Biso   1.000  C
  H739     1.0000 0.87740  0.61100  0.28290  Biso   1.000  H
  H740     1.0000 0.91200  0.58790  0.29810  Biso   1.000  H
  H741     1.0000 0.94910  0.64810  0.28430  Biso   1.000  H
  C844     1.0000 0.88290  0.41130  0.25461  Biso   1.000  C
  H742     1.0000 0.84290  0.38740  0.24820  Biso   1.000  H
  H743     1.0000 0.91100  0.40150  0.24740  Biso   1.000  H
  H744     1.0000 0.88110  0.40230  0.27010  Biso   1.000  H
  C845     1.0000 0.97530  0.59760  0.20702  Biso   1.000  C
  H745     1.0000 0.94270  0.59330  0.19760  Biso   1.000  H
  H746     1.0000 0.00380  0.64030  0.20940  Biso   1.000  H
  H747     1.0000 0.99590  0.57870  0.20010  Biso   1.000  H
  C846     1.0000 0.96580  0.66650  0.24289  Biso   1.000  C
  H748     1.0000 0.94540  0.68040  0.25300  Biso   1.000  H
  H749     1.0000 0.95920  0.67540  0.22780  Biso   1.000  H
  C847     1.0000 0.05880  0.75600  0.24576  Biso   1.000  C
  C848     1.0000 0.12060  0.78440  0.25096  Biso   1.000  C
  H750     1.0000 0.13840  0.76090  0.25470  Biso   1.000  H
  C849     1.0000 0.15480  0.84600  0.25062  Biso   1.000  C
  H751     1.0000 0.19590  0.86480  0.25450  Biso   1.000  H
  C850     1.0000 0.13020  0.88110  0.24465  Biso   1.000  C
  H752     1.0000 0.15420  0.92360  0.24480  Biso   1.000  H
  C851     1.0000 0.06991  0.85360  0.23846  Biso   1.000  C
  C852     1.0000 0.03454  0.79069  0.23909  Biso   1.000  C
  H753     1.0000 0.99350  0.77180  0.23490  Biso   1.000  H
  C853     1.0000 0.94130  0.47270  0.21365  Biso   1.000  C
  H754     1.0000 0.94290  0.43770  0.21950  Biso   1.000  H
  H755     1.0000 0.97960  0.49930  0.20610  Biso   1.000  H
  C854     1.0000 0.89520  0.42550  0.18036  Biso   1.000  C
  C855     1.0000 0.94130  0.41540  0.17529  Biso   1.000  C
  H756     1.0000 0.97490  0.42930  0.18470  Biso   1.000  H
  C856     1.0000 0.93860  0.38500  0.15649  Biso   1.000  C
  H757     1.0000 0.97160  0.38010  0.15260  Biso   1.000  H
  C857     1.0000 0.88860  0.36170  0.14329  Biso   1.000  C
  H758     1.0000 0.88640  0.33920  0.13070  Biso   1.000  H
  C858     1.0000 0.84210  0.37130  0.14842  Biso   1.000  C
  C859     1.0000 0.84490  0.40430  0.16653  Biso   1.000  C
  H759     1.0000 0.81370  0.41270  0.16960  Biso   1.000  H
  C860     1.0000 0.78570  0.34290  0.13512  Biso   1.000  C
  C861     1.0000 0.55548  0.26860  0.28884  Biso   1.000  C
  C862     1.0000 0.49380  0.22780  0.29762  Biso   1.000  C
  C863     1.0000 0.48360  0.23576  0.31944  Biso   1.000  C
  H760     1.0000 0.51450  0.26580  0.32810  Biso   1.000  H
  C864     1.0000 0.42620  0.19790  0.32811  Biso   1.000  C
  C865     1.0000 0.37990  0.15570  0.31517  Biso   1.000  C
  H761     1.0000 0.34080  0.13160  0.32100  Biso   1.000  H
  C866     1.0000 0.39210  0.14930  0.29346  Biso   1.000  C
  H762     1.0000 0.36080  0.12020  0.28460  Biso   1.000  H
  C867     1.0000 0.44910  0.18470  0.28458  Biso   1.000  C
  H763     1.0000 0.45700  0.17940  0.26990  Biso   1.000  H
  C868     1.0000 0.45820  0.24960  0.36220  Biso   1.000  C
  H764     1.0000 0.49160  0.24150  0.36420  Biso   1.000  H
  H765     1.0000 0.47390  0.28920  0.35510  Biso   1.000  H
  C869     1.0000 0.43008  0.24872  0.38364  Biso   1.000  C
  C870     1.0000 0.42562  0.20660  0.39993  Biso   1.000  C
  C871     1.0000 0.39850  0.20490  0.41999  Biso   1.000  C
  C872     1.0000 0.37880  0.24600  0.42454  Biso   1.000  C
  C873     1.0000 0.38400  0.28730  0.40866  Biso   1.000  C
  C874     1.0000 0.40655  0.28665  0.38797  Biso   1.000  C
  C875     1.0000 0.40570  0.32590  0.36968  Biso   1.000  C
  H766     1.0000 0.44100  0.36610  0.37090  Biso   1.000  H
  H767     1.0000 0.40650  0.30820  0.35570  Biso   1.000  H
  H768     1.0000 0.36930  0.32880  0.37070  Biso   1.000  H
  C876     1.0000 0.45010  0.16560  0.39477  Biso   1.000  C
  H769     1.0000 0.42340  0.12570  0.40080  Biso   1.000  H
  H770     1.0000 0.45260  0.16250  0.37900  Biso   1.000  H
  H771     1.0000 0.49020  0.18190  0.40110  Biso   1.000  H
  C877     1.0000 0.35640  0.24860  0.44705  Biso   1.000  C
  H772     1.0000 0.32260  0.25590  0.44590  Biso   1.000  H
  H773     1.0000 0.34330  0.21040  0.45450  Biso   1.000  H
  H774     1.0000 0.38890  0.28120  0.45530  Biso   1.000  H
  C878     1.0000 0.38930  0.15790  0.43654  Biso   1.000  C
  H775     1.0000 0.38830  0.12300  0.42930  Biso   1.000  H
  H776     1.0000 0.35110  0.14400  0.44440  Biso   1.000  H
  C879     1.0000 0.43480  0.15250  0.46970  Biso   1.000  C
  C880     1.0000 0.47910  0.18210  0.48505  Biso   1.000  C
  H777     1.0000 0.51070  0.22190  0.48250  Biso   1.000  H
  C881     1.0000 0.47640  0.15180  0.50466  Biso   1.000  C
  C882     1.0000 0.43370  0.09480  0.50778  Biso   1.000  C
  H778     1.0000 0.43470  0.07420  0.52040  Biso   1.000  H
  C883     1.0000 0.38920  0.06630  0.49324  Biso   1.000  C
  H779     1.0000 0.35600  0.02800  0.49670  Biso   1.000  H
  C884     1.0000 0.39110  0.09250  0.47290  Biso   1.000  C
  H780     1.0000 0.36360  0.07000  0.46170  Biso   1.000  H
  C885     1.0000 0.52360  0.18480  0.52141  Biso   1.000  C
  C886     1.0000 0.36300  0.33110  0.41338  Biso   1.000  C
  H781     1.0000 0.38690  0.36860  0.40500  Biso   1.000  H
  H782     1.0000 0.36700  0.34100  0.42900  Biso   1.000  H
  C887     1.0000 0.27350  0.33660  0.40770  Biso   1.000  C
  C888     1.0000 0.29683  0.39103  0.41856  Biso   1.000  C
  H783     1.0000 0.33340  0.40680  0.42640  Biso   1.000  H
  C889     1.0000 0.26490  0.42230  0.41773  Biso   1.000  C
  C890     1.0000 0.21130  0.39830  0.40642  Biso   1.000  C
  H784     1.0000 0.19040  0.42000  0.40550  Biso   1.000  H
  C891     1.0000 0.18810  0.34370  0.39657  Biso   1.000  C
  H785     1.0000 0.15030  0.32680  0.38950  Biso   1.000  H
  C892     1.0000 0.21940  0.31280  0.39683  Biso   1.000  C
  H786     1.0000 0.20380  0.27540  0.38950  Biso   1.000  H
  C893     1.0000 0.29120  0.48220  0.42854  Biso   1.000  C
  C894     1.0000 0.04170  0.88990  0.23231  Biso   1.000  C
  O247     1.0000 0.64980  0.32950  0.41880  Biso   1.000  O
  C895     1.0000 0.65400  0.37490  0.42750  Biso   1.000  C
  H787     1.0000 0.69240  0.40690  0.43160  Biso   1.000  H
  N13      1.0000 0.59980  0.37980  0.43142  Biso   1.000  N
  C896     1.0000 0.54030  0.32600  0.43100  Biso   1.000  C
  H788     1.0000 0.53980  0.29580  0.44090  Biso   1.000  H
  H789     1.0000 0.51020  0.33630  0.43580  Biso   1.000  H
  H790     1.0000 0.53100  0.30980  0.41630  Biso   1.000  H
  C897     1.0000 0.60680  0.43870  0.43550  Biso   1.000  C
  H791     1.0000 0.57500  0.43460  0.44540  Biso   1.000  H
  H792     1.0000 0.64600  0.46480  0.44220  Biso   1.000  H
  H793     1.0000 0.60400  0.45640  0.42180  Biso   1.000  H
  Cd27     1.0000 0.01856  0.92930  0.77689  Biso   1.000  Cd
  Cd28     1.0000 0.96724  0.90149  0.72161  Biso   1.000  Cd
  O248     1.0000 0.40477  0.72808  0.68550  Biso   1.000  O
  O249     1.0000 0.43389  0.70458  0.71544  Biso   1.000  O
  O250     1.0000 0.41730  0.69863  0.46933  Biso   1.000  O
  O251     1.0000 0.44151  0.63114  0.45735  Biso   1.000  O
  O252     1.0000 0.66419  0.19918  0.55302  Biso   1.000  O
  O253     1.0000 0.72897  0.27504  0.57336  Biso   1.000  O
  O254     1.0000 0.25911  0.64629  0.63359  Biso   1.000  O
  O255     1.0000 0.23555  0.59242  0.60315  Biso   1.000  O
  O256     1.0000 0.99660  0.82944  0.77614  Biso   1.000  O
  O257     1.0000 0.94127  0.85270  0.75536  Biso   1.000  O
  O258     1.0000 0.18427  0.49393  0.87271  Biso   1.000  O
  O259     1.0000 0.23517  0.56823  0.85084  Biso   1.000  O
  O260     1.0000 0.58658  0.82269  0.63655  Biso   1.000  O
  O261     1.0000 0.69483  0.02866  0.58092  Biso   1.000  O
  O262     1.0000 0.55900  0.78681  0.53232  Biso   1.000  O
  O263     1.0000 0.07791  0.53631  0.68236  Biso   1.000  O
  O264     1.0000 0.10592  0.51898  0.78479  Biso   1.000  O
  O265     1.0000 0.96721  0.63529  0.74022  Biso   1.000  O
  C898     1.0000 0.44505  0.72697  0.69696  Biso   1.000  C
  C899     1.0000 0.50675  0.75572  0.68793  Biso   1.000  C
  C900     1.0000 0.55577  0.76573  0.70078  Biso   1.000  C
  H794     1.0000 0.54987  0.75223  0.71543  Biso   1.000  H
  C901     1.0000 0.61377  0.79583  0.69190  Biso   1.000  C
  H795     1.0000 0.64727  0.80353  0.70073  Biso   1.000  H
  C902     1.0000 0.62267  0.81403  0.67091  Biso   1.000  C
  H796     1.0000 0.66217  0.83493  0.66513  Biso   1.000  H
  C903     1.0000 0.57297  0.80193  0.65764  Biso   1.000  C
  C904     1.0000 0.51630  0.77433  0.66646  Biso   1.000  C
  H797     1.0000 0.48327  0.76803  0.65773  Biso   1.000  H
  C905     1.0000 0.53627  0.81323  0.62277  Biso   1.000  C
  H798     1.0000 0.50817  0.76983  0.62063  Biso   1.000  H
  H799     1.0000 0.51417  0.83143  0.62943  Biso   1.000  H
  C906     1.0000 0.56378  0.84327  0.60120  Biso   1.000  C
  C907     1.0000 0.57107  0.81083  0.58492  Biso   1.000  C
  C908     1.0000 0.59808  0.83963  0.56528  Biso   1.000  C
  C909     1.0000 0.61597  0.90033  0.56231  Biso   1.000  C
  C910     1.0000 0.60845  0.93223  0.57910  Biso   1.000  C
  C911     1.0000 0.58416  0.90553  0.59924  Biso   1.000  C
  C912     1.0000 0.58037  0.94123  0.61775  Biso   1.000  C
  H800     1.0000 0.54407  0.94433  0.61623  Biso   1.000  H
  H801     1.0000 0.57867  0.92123  0.63143  Biso   1.000  H
  H802     1.0000 0.61577  0.98143  0.61763  Biso   1.000  H
  C913     1.0000 0.54957  0.74463  0.58794  Biso   1.000  C
  H803     1.0000 0.50957  0.72073  0.58153  Biso   1.000  H
  H804     1.0000 0.57767  0.73483  0.58073  Biso   1.000  H
  H805     1.0000 0.54777  0.73563  0.60343  Biso   1.000  H
  C914     1.0000 0.64197  0.93093  0.54035  Biso   1.000  C
  H806     1.0000 0.60937  0.92663  0.53093  Biso   1.000  H
  H807     1.0000 0.67047  0.97363  0.54273  Biso   1.000  H
  H808     1.0000 0.66257  0.91203  0.53343  Biso   1.000  H
  C915     1.0000 0.63247  0.99983  0.57622  Biso   1.000  C
  H809     1.0000 0.61207  0.01373  0.58633  Biso   1.000  H
  H810     1.0000 0.62587  0.00873  0.56113  Biso   1.000  H
  C916     1.0000 0.72547  0.08933  0.57909  Biso   1.000  C
  C917     1.0000 0.78727  0.11773  0.58429  Biso   1.000  C
  H811     1.0000 0.80507  0.09423  0.58803  Biso   1.000  H
  C918     1.0000 0.82147  0.17933  0.58395  Biso   1.000  C
  H812     1.0000 0.86257  0.19813  0.58783  Biso   1.000  H
  C919     1.0000 0.79687  0.21443  0.57798  Biso   1.000  C
  H813     1.0000 0.82087  0.25693  0.57813  Biso   1.000  H
  C920     1.0000 0.73658  0.18693  0.57179  Biso   1.000  C
  C921     1.0000 0.70121  0.12402  0.57242  Biso   1.000  C
  H814     1.0000 0.66017  0.10513  0.56823  Biso   1.000  H
  C922     1.0000 0.60797  0.80603  0.54698  Biso   1.000  C
  H815     1.0000 0.60957  0.77103  0.55283  Biso   1.000  H
  H816     1.0000 0.64627  0.83263  0.53943  Biso   1.000  H
  C923     1.0000 0.56187  0.75883  0.51369  Biso   1.000  C
  C924     1.0000 0.60797  0.74873  0.50862  Biso   1.000  C
  H817     1.0000 0.64157  0.76263  0.51803  Biso   1.000  H
  C925     1.0000 0.60527  0.71833  0.48982  Biso   1.000  C
  H818     1.0000 0.63827  0.71343  0.48593  Biso   1.000  H
  C926     1.0000 0.55527  0.69503  0.47662  Biso   1.000  C
  H819     1.0000 0.55307  0.67253  0.46403  Biso   1.000  H
  C927     1.0000 0.50877  0.70463  0.48175  Biso   1.000  C
  C928     1.0000 0.51157  0.73763  0.49986  Biso   1.000  C
  H820     1.0000 0.48037  0.74603  0.50293  Biso   1.000  H
  C929     1.0000 0.45237  0.67623  0.46845  Biso   1.000  C
  C930     1.0000 0.22215  0.60193  0.62217  Biso   1.000  C
  C931     1.0000 0.16047  0.56113  0.63095  Biso   1.000  C
  C932     1.0000 0.15027  0.56909  0.65277  Biso   1.000  C
  H821     1.0000 0.18117  0.59913  0.66143  Biso   1.000  H
  C933     1.0000 0.09287  0.53123  0.66144  Biso   1.000  C
  C934     1.0000 0.04657  0.48903  0.64850  Biso   1.000  C
  H822     1.0000 0.00747  0.46493  0.65433  Biso   1.000  H
  C935     1.0000 0.05877  0.48263  0.62679  Biso   1.000  C
  H823     1.0000 0.02747  0.45353  0.61793  Biso   1.000  H
  C936     1.0000 0.11577  0.51803  0.61791  Biso   1.000  C
  H824     1.0000 0.12367  0.51273  0.60323  Biso   1.000  H
  C937     1.0000 0.12487  0.58293  0.69553  Biso   1.000  C
  H825     1.0000 0.15827  0.57483  0.69753  Biso   1.000  H
  H826     1.0000 0.14057  0.62253  0.68843  Biso   1.000  H
  C938     1.0000 0.09675  0.58205  0.71697  Biso   1.000  C
  C939     1.0000 0.09229  0.53993  0.73326  Biso   1.000  C
  C940     1.0000 0.06517  0.53823  0.75332  Biso   1.000  C
  C941     1.0000 0.04547  0.57933  0.75787  Biso   1.000  C
  C942     1.0000 0.05067  0.62063  0.74199  Biso   1.000  C
  C943     1.0000 0.07322  0.61998  0.72130  Biso   1.000  C
  C944     1.0000 0.07237  0.65923  0.70301  Biso   1.000  C
  H827     1.0000 0.10767  0.69943  0.70423  Biso   1.000  H
  H828     1.0000 0.07317  0.64153  0.68903  Biso   1.000  H
  H829     1.0000 0.03597  0.66213  0.70403  Biso   1.000  H
  C945     1.0000 0.11677  0.49893  0.72810  Biso   1.000  C
  H830     1.0000 0.09007  0.45903  0.73413  Biso   1.000  H
  H831     1.0000 0.11927  0.49583  0.71233  Biso   1.000  H
  H832     1.0000 0.15687  0.51523  0.73443  Biso   1.000  H
  C946     1.0000 0.02307  0.58193  0.78038  Biso   1.000  C
  H833     1.0000 0.98927  0.58923  0.77923  Biso   1.000  H
  H834     1.0000 0.00997  0.54373  0.78783  Biso   1.000  H
  H835     1.0000 0.05557  0.61453  0.78863  Biso   1.000  H
  C947     1.0000 0.05597  0.49123  0.76987  Biso   1.000  C
  H836     1.0000 0.05497  0.45633  0.76263  Biso   1.000  H
  H837     1.0000 0.01777  0.47733  0.77773  Biso   1.000  H
  C948     1.0000 0.10147  0.48583  0.80303  Biso   1.000  C
  C949     1.0000 0.14577  0.51543  0.81838  Biso   1.000  C
  H838     1.0000 0.17737  0.55523  0.81583  Biso   1.000  H
  C950     1.0000 0.14307  0.48513  0.83799  Biso   1.000  C
  C951     1.0000 0.10037  0.42813  0.84111  Biso   1.000  C
  H839     1.0000 0.10137  0.40753  0.85373  Biso   1.000  H
  C952     1.0000 0.05587  0.39963  0.82657  Biso   1.000  C
  H840     1.0000 0.02267  0.36133  0.83003  Biso   1.000  H
  C953     1.0000 0.05777  0.42583  0.80623  Biso   1.000  C
  H841     1.0000 0.03027  0.40333  0.79503  Biso   1.000  H
  C954     1.0000 0.19027  0.51813  0.85474  Biso   1.000  C
  C955     1.0000 0.02967  0.66443  0.74671  Biso   1.000  C
  H842     1.0000 0.05357  0.70193  0.73833  Biso   1.000  H
  H843     1.0000 0.03367  0.67433  0.76233  Biso   1.000  H
  C956     1.0000 0.94017  0.66993  0.74103  Biso   1.000  C
  C957     1.0000 0.96350  0.72436  0.75189  Biso   1.000  C
  H844     1.0000 0.00007  0.74013  0.75973  Biso   1.000  H
  C958     1.0000 0.93157  0.75563  0.75106  Biso   1.000  C
  C959     1.0000 0.87797  0.73163  0.73975  Biso   1.000  C
  H845     1.0000 0.85707  0.75333  0.73883  Biso   1.000  H
  C960     1.0000 0.85477  0.67703  0.72990  Biso   1.000  C
  H846     1.0000 0.81697  0.66013  0.72283  Biso   1.000  H
  C961     1.0000 0.88607  0.64613  0.73016  Biso   1.000  C
  H847     1.0000 0.87047  0.60873  0.72283  Biso   1.000  H
  C962     1.0000 0.95787  0.81553  0.76187  Biso   1.000  C
  C963     1.0000 0.70837  0.22323  0.56564  Biso   1.000  C
  O266     1.0000 0.31647  0.66283  0.75213  Biso   1.000  O
  C964     1.0000 0.32067  0.70823  0.76083  Biso   1.000  C
  H848     1.0000 0.35907  0.74023  0.76493  Biso   1.000  H
  N14      1.0000 0.26647  0.71313  0.76475  Biso   1.000  N
  C965     1.0000 0.20697  0.65933  0.76433  Biso   1.000  C
  H849     1.0000 0.20647  0.62913  0.77423  Biso   1.000  H
  H850     1.0000 0.17687  0.66963  0.76913  Biso   1.000  H
  H851     1.0000 0.19767  0.64313  0.74963  Biso   1.000  H
  C966     1.0000 0.27347  0.77203  0.76883  Biso   1.000  C
  H852     1.0000 0.24167  0.76793  0.77873  Biso   1.000  H
  H853     1.0000 0.31267  0.79813  0.77553  Biso   1.000  H
  H854     1.0000 0.27067  0.78973  0.75513  Biso   1.000  H
  Cd29     1.0000 0.68523  0.26264  0.11022  Biso   1.000  Cd
  Cd30     1.0000 0.63391  0.23482  0.05494  Biso   1.000  Cd
  O267     1.0000 0.07143  0.06142  0.01884  Biso   1.000  O
  O268     1.0000 0.10055  0.03792  0.04878  Biso   1.000  O
  O269     1.0000 0.08396  0.03197  0.80267  Biso   1.000  O
  O270     1.0000 0.10817  0.96448  0.79069  Biso   1.000  O
  O271     1.0000 0.33085  0.53252  0.88636  Biso   1.000  O
  O272     1.0000 0.39563  0.60838  0.90670  Biso   1.000  O
  O273     1.0000 0.92577  0.97963  0.96693  Biso   1.000  O
  O274     1.0000 0.90221  0.92576  0.93649  Biso   1.000  O
  O275     1.0000 0.66326  0.16278  0.10948  Biso   1.000  O
  O276     1.0000 0.60793  0.18604  0.08870  Biso   1.000  O
  O277     1.0000 0.85093  0.82727  0.20605  Biso   1.000  O
  O278     1.0000 0.90183  0.90157  0.18418  Biso   1.000  O
  O279     1.0000 0.25324  0.15603  0.96989  Biso   1.000  O
  O280     1.0000 0.36149  0.36200  0.91426  Biso   1.000  O
  O281     1.0000 0.22566  0.12015  0.86566  Biso   1.000  O
  O282     1.0000 0.74457  0.86965  0.01570  Biso   1.000  O
  O283     1.0000 0.77258  0.85232  0.11813  Biso   1.000  O
  O284     1.0000 0.63387  0.96863  0.07356  Biso   1.000  O
  C967     1.0000 0.11171  0.06031  0.03030  Biso   1.000  C
  C968     1.0000 0.17341  0.08906  0.02127  Biso   1.000  C
  C969     1.0000 0.22243  0.09907  0.03412  Biso   1.000  C
  H855     1.0000 0.21653  0.08557  0.04877  Biso   1.000  H
  C970     1.0000 0.28043  0.12917  0.02524  Biso   1.000  C
  H856     1.0000 0.31393  0.13687  0.03407  Biso   1.000  H
  C971     1.0000 0.28933  0.14737  0.00425  Biso   1.000  C
  H857     1.0000 0.32883  0.16827  0.99847  Biso   1.000  H
  C972     1.0000 0.23963  0.13527  0.99098  Biso   1.000  C
  C973     1.0000 0.18296  0.10767  0.99980  Biso   1.000  C
  H858     1.0000 0.14993  0.10137  0.99107  Biso   1.000  H
  C974     1.0000 0.20293  0.14657  0.95611  Biso   1.000  C
  H859     1.0000 0.17483  0.10317  0.95397  Biso   1.000  H
  H860     1.0000 0.18083  0.16477  0.96277  Biso   1.000  H
  C975     1.0000 0.23044  0.17661  0.93454  Biso   1.000  C
  C976     1.0000 0.23773  0.14417  0.91826  Biso   1.000  C
  C977     1.0000 0.26474  0.17297  0.89862  Biso   1.000  C
  C978     1.0000 0.28263  0.23367  0.89565  Biso   1.000  C
  C979     1.0000 0.27511  0.26557  0.91244  Biso   1.000  C
  C980     1.0000 0.25082  0.23887  0.93258  Biso   1.000  C
  C981     1.0000 0.24703  0.27457  0.95109  Biso   1.000  C
  H861     1.0000 0.21073  0.27767  0.94957  Biso   1.000  H
  H862     1.0000 0.24533  0.25457  0.96477  Biso   1.000  H
  H863     1.0000 0.28243  0.31477  0.95097  Biso   1.000  H
  C982     1.0000 0.21623  0.07797  0.92128  Biso   1.000  C
  H864     1.0000 0.17623  0.05407  0.91487  Biso   1.000  H
  H865     1.0000 0.24433  0.06817  0.91407  Biso   1.000  H
  H866     1.0000 0.21443  0.06897  0.93677  Biso   1.000  H
  C983     1.0000 0.30863  0.26427  0.87369  Biso   1.000  C
  H867     1.0000 0.27603  0.25997  0.86427  Biso   1.000  H
  H868     1.0000 0.33713  0.30697  0.87607  Biso   1.000  H
  H869     1.0000 0.32923  0.24537  0.86677  Biso   1.000  H
  C984     1.0000 0.29913  0.33317  0.90956  Biso   1.000  C
  H870     1.0000 0.27873  0.34707  0.91967  Biso   1.000  H
  H871     1.0000 0.29253  0.34207  0.89447  Biso   1.000  H
  C985     1.0000 0.39213  0.42267  0.91243  Biso   1.000  C
  C986     1.0000 0.45393  0.45107  0.91763  Biso   1.000  C
  H872     1.0000 0.47173  0.42757  0.92137  Biso   1.000  H
  C987     1.0000 0.48813  0.51267  0.91729  Biso   1.000  C
  H873     1.0000 0.52923  0.53147  0.92117  Biso   1.000  H
  C988     1.0000 0.46353  0.54777  0.91132  Biso   1.000  C
  H874     1.0000 0.48753  0.59027  0.91147  Biso   1.000  H
  C989     1.0000 0.40324  0.52027  0.90513  Biso   1.000  C
  C990     1.0000 0.36787  0.45736  0.90576  Biso   1.000  C
  H875     1.0000 0.32683  0.43847  0.90157  Biso   1.000  H
  C991     1.0000 0.27463  0.13937  0.88032  Biso   1.000  C
  H876     1.0000 0.27623  0.10437  0.88617  Biso   1.000  H
  H877     1.0000 0.31293  0.16597  0.87277  Biso   1.000  H
  C992     1.0000 0.22853  0.09217  0.84703  Biso   1.000  C
  C993     1.0000 0.27463  0.08207  0.84196  Biso   1.000  C
  H878     1.0000 0.30823  0.09597  0.85137  Biso   1.000  H
  C994     1.0000 0.27193  0.05167  0.82316  Biso   1.000  C
  H879     1.0000 0.30493  0.04677  0.81927  Biso   1.000  H
  C995     1.0000 0.22193  0.02837  0.80996  Biso   1.000  C
  H880     1.0000 0.21973  0.00587  0.79737  Biso   1.000  H
  C996     1.0000 0.17543  0.03797  0.81509  Biso   1.000  C
  C997     1.0000 0.17823  0.07097  0.83320  Biso   1.000  C
  H881     1.0000 0.14703  0.07937  0.83627  Biso   1.000  H
  C998     1.0000 0.11903  0.00957  0.80179  Biso   1.000  C
  C999     1.0000 0.88881  0.93527  0.95551  Biso   1.000  C
  C1000    1.0000 0.82713  0.89447  0.96429  Biso   1.000  C
  C1001    1.0000 0.81693  0.90243  0.98611  Biso   1.000  C
  H882     1.0000 0.84783  0.93247  0.99477  Biso   1.000  H
  C1002    1.0000 0.75953  0.86457  0.99478  Biso   1.000  C
  C1003    1.0000 0.71323  0.82237  0.98184  Biso   1.000  C
  H883     1.0000 0.67413  0.79827  0.98767  Biso   1.000  H
  C1004    1.0000 0.72543  0.81597  0.96013  Biso   1.000  C
  H884     1.0000 0.69413  0.78687  0.95127  Biso   1.000  H
  C1005    1.0000 0.78243  0.85137  0.95125  Biso   1.000  C
  H885     1.0000 0.79033  0.84607  0.93657  Biso   1.000  H
  C1006    1.0000 0.79153  0.91627  0.02887  Biso   1.000  C
  H886     1.0000 0.82493  0.90817  0.03087  Biso   1.000  H
  H887     1.0000 0.80723  0.95587  0.02177  Biso   1.000  H
  C1007    1.0000 0.76341  0.91539  0.05031  Biso   1.000  C
  C1008    1.0000 0.75895  0.87327  0.06660  Biso   1.000  C
  C1009    1.0000 0.73183  0.87157  0.08666  Biso   1.000  C
  C1010    1.0000 0.71213  0.91267  0.09121  Biso   1.000  C
  C1011    1.0000 0.71733  0.95397  0.07533  Biso   1.000  C
  C1012    1.0000 0.73988  0.95332  0.05464  Biso   1.000  C
  C1013    1.0000 0.73903  0.99257  0.03635  Biso   1.000  C
  H888     1.0000 0.77433  0.03277  0.03757  Biso   1.000  H
  H889     1.0000 0.73983  0.97487  0.02237  Biso   1.000  H
  H890     1.0000 0.70263  0.99547  0.03737  Biso   1.000  H
  C1014    1.0000 0.78343  0.83227  0.06144  Biso   1.000  C
  H891     1.0000 0.75673  0.79237  0.06747  Biso   1.000  H
  H892     1.0000 0.78593  0.82917  0.04567  Biso   1.000  H
  H893     1.0000 0.82353  0.84857  0.06777  Biso   1.000  H
  C1015    1.0000 0.68973  0.91527  0.11372  Biso   1.000  C
  H894     1.0000 0.65593  0.92257  0.11257  Biso   1.000  H
  H895     1.0000 0.67663  0.87707  0.12117  Biso   1.000  H
  H896     1.0000 0.72223  0.94787  0.12197  Biso   1.000  H
  C1016    1.0000 0.72263  0.82457  0.10321  Biso   1.000  C
  H897     1.0000 0.72163  0.78967  0.09597  Biso   1.000  H
  H898     1.0000 0.68443  0.81067  0.11107  Biso   1.000  H
  C1017    1.0000 0.76813  0.81917  0.13637  Biso   1.000  C
  C1018    1.0000 0.81243  0.84877  0.15172  Biso   1.000  C
  H899     1.0000 0.84403  0.88857  0.14917  Biso   1.000  H
  C1019    1.0000 0.80973  0.81847  0.17133  Biso   1.000  C
  C1020    1.0000 0.76703  0.76147  0.17445  Biso   1.000  C
  H900     1.0000 0.76803  0.74087  0.18707  Biso   1.000  H
  C1021    1.0000 0.72253  0.73297  0.15991  Biso   1.000  C
  H901     1.0000 0.68933  0.69467  0.16337  Biso   1.000  H
  C1022    1.0000 0.72443  0.75917  0.13957  Biso   1.000  C
  H902     1.0000 0.69693  0.73667  0.12837  Biso   1.000  H
  C1023    1.0000 0.85693  0.85147  0.18808  Biso   1.000  C
  C1024    1.0000 0.69633  0.99777  0.08005  Biso   1.000  C
  H903     1.0000 0.72023  0.03527  0.07167  Biso   1.000  H
  H904     1.0000 0.70033  0.00767  0.09567  Biso   1.000  H
  C1025    1.0000 0.60683  0.00327  0.07437  Biso   1.000  C
  C1026    1.0000 0.63016  0.05770  0.08523  Biso   1.000  C
  H905     1.0000 0.66673  0.07347  0.09307  Biso   1.000  H
  C1027    1.0000 0.59823  0.08897  0.08440  Biso   1.000  C
  C1028    1.0000 0.54463  0.06497  0.07309  Biso   1.000  C
  H906     1.0000 0.52373  0.08667  0.07217  Biso   1.000  H
  C1029    1.0000 0.52143  0.01037  0.06324  Biso   1.000  C
  H907     1.0000 0.48363  0.99347  0.05617  Biso   1.000  H
  C1030    1.0000 0.55273  0.97947  0.06350  Biso   1.000  C
  H908     1.0000 0.53713  0.94207  0.05617  Biso   1.000  H
  C1031    1.0000 0.62453  0.14887  0.09521  Biso   1.000  C
  C1032    1.0000 0.37503  0.55657  0.89898  Biso   1.000  C
  O285     1.0000 0.98313  0.99617  0.08547  Biso   1.000  O
  C1033    1.0000 0.98733  0.04157  0.09417  Biso   1.000  C
  H909     1.0000 0.02573  0.07357  0.09827  Biso   1.000  H
  N15      1.0000 0.93313  0.04647  0.09809  Biso   1.000  N
  C1034    1.0000 0.87363  0.99267  0.09767  Biso   1.000  C
  H910     1.0000 0.87313  0.96247  0.10757  Biso   1.000  H
  H911     1.0000 0.84353  0.00297  0.10247  Biso   1.000  H
  H912     1.0000 0.86433  0.97647  0.08297  Biso   1.000  H
  C1035    1.0000 0.94013  0.10537  0.10217  Biso   1.000  C
  H913     1.0000 0.90833  0.10127  0.11207  Biso   1.000  H
  H914     1.0000 0.97933  0.13147  0.10887  Biso   1.000  H
  H915     1.0000 0.93733  0.12307  0.08847  Biso   1.000  H
  Cd31     1.0000 0.24407  0.64810  0.44355  Biso   1.000  Cd
  Cd32     1.0000 0.26759  0.69943  0.38828  Biso   1.000  Cd
  O286     1.0000 0.65665  0.26190  0.35217  Biso   1.000  O
  O287     1.0000 0.60403  0.23278  0.38211  Biso   1.000  O
  O288     1.0000 0.61467  0.24937  0.13600  Biso   1.000  O
  O289     1.0000 0.52297  0.22516  0.12402  Biso   1.000  O
  O290     1.0000 0.86833  0.00248  0.21969  Biso   1.000  O
  O291     1.0000 0.87941  0.93770  0.24003  Biso   1.000  O
  O292     1.0000 0.72052  0.40756  0.30026  Biso   1.000  O
  O293     1.0000 0.69021  0.43112  0.26982  Biso   1.000  O
  O294     1.0000 0.16618  0.67007  0.44281  Biso   1.000  O
  O295     1.0000 0.24477  0.72540  0.42203  Biso   1.000  O
  O296     1.0000 0.64300  0.48240  0.53938  Biso   1.000  O
  O297     1.0000 0.66640  0.43150  0.51751  Biso   1.000  O
  O298     1.0000 0.56945  0.08009  0.30322  Biso   1.000  O
  O299     1.0000 0.66717  0.97184  0.24759  Biso   1.000  O
  O300     1.0000 0.56115  0.10767  0.19899  Biso   1.000  O
  O301     1.0000 0.79174  0.58876  0.34903  Biso   1.000  O
  O302     1.0000 0.74640  0.56075  0.45146  Biso   1.000  O
  O303     1.0000 0.00142  0.69946  0.40689  Biso   1.000  O
  C1036    1.0000 0.61526  0.22162  0.36363  Biso   1.000  C
  C1037    1.0000 0.58231  0.15992  0.35460  Biso   1.000  C
  C1038    1.0000 0.54330  0.11090  0.36745  Biso   1.000  C
  H916     1.0000 0.53570  0.11680  0.38210  Biso   1.000  H
  C1039    1.0000 0.51540  0.05290  0.35857  Biso   1.000  C
  H917     1.0000 0.48960  0.01940  0.36740  Biso   1.000  H
  C1040    1.0000 0.52470  0.04400  0.33758  Biso   1.000  C
  H918     1.0000 0.50610  0.00450  0.33180  Biso   1.000  H
  C1041    1.0000 0.56230  0.09370  0.32431  Biso   1.000  C
  C1042    1.0000 0.59137  0.15037  0.33313  Biso   1.000  C
  H919     1.0000 0.61810  0.18340  0.32440  Biso   1.000  H
  C1043    1.0000 0.61030  0.13040  0.28944  Biso   1.000  C
  H920     1.0000 0.59500  0.15850  0.28730  Biso   1.000  H
  H921     1.0000 0.65060  0.15250  0.29610  Biso   1.000  H
  C1044    1.0000 0.61283  0.10289  0.26787  Biso   1.000  C
  C1045    1.0000 0.57310  0.09560  0.25159  Biso   1.000  C
  C1046    1.0000 0.57489  0.06859  0.23195  Biso   1.000  C
  C1047    1.0000 0.61770  0.05070  0.22898  Biso   1.000  C
  C1048    1.0000 0.65712  0.05822  0.24577  Biso   1.000  C
  C1049    1.0000 0.65471  0.08251  0.26591  Biso   1.000  C
  C1050    1.0000 0.69420  0.08630  0.28442  Biso   1.000  C
  H922     1.0000 0.73360  0.12260  0.28290  Biso   1.000  H
  H923     1.0000 0.67590  0.08800  0.29810  Biso   1.000  H
  H924     1.0000 0.69900  0.05090  0.28430  Biso   1.000  H
  C1051    1.0000 0.52840  0.11710  0.25461  Biso   1.000  C
  H925     1.0000 0.54450  0.15710  0.24820  Biso   1.000  H
  H926     1.0000 0.49050  0.08900  0.24740  Biso   1.000  H
  H927     1.0000 0.52120  0.11890  0.27010  Biso   1.000  H
  C1052    1.0000 0.62230  0.02470  0.20702  Biso   1.000  C
  H928     1.0000 0.65060  0.05730  0.19760  Biso   1.000  H
  H929     1.0000 0.63650  0.99620  0.20940  Biso   1.000  H
  H930     1.0000 0.58280  0.00410  0.20010  Biso   1.000  H
  C1053    1.0000 0.70070  0.03420  0.24289  Biso   1.000  C
  H931     1.0000 0.73500  0.05460  0.25300  Biso   1.000  H
  H932     1.0000 0.71620  0.04080  0.22780  Biso   1.000  H
  C1054    1.0000 0.69720  0.94120  0.24576  Biso   1.000  C
  C1055    1.0000 0.66380  0.87940  0.25096  Biso   1.000  C
  H933     1.0000 0.62250  0.86160  0.25470  Biso   1.000  H
  C1056    1.0000 0.69120  0.84520  0.25062  Biso   1.000  C
  H934     1.0000 0.66890  0.80410  0.25450  Biso   1.000  H
  C1057    1.0000 0.75090  0.86980  0.24465  Biso   1.000  C
  H935     1.0000 0.76940  0.84580  0.24480  Biso   1.000  H
  C1058    1.0000 0.78369  0.93009  0.23846  Biso   1.000  C
  C1059    1.0000 0.75615  0.96546  0.23909  Biso   1.000  C
  H936     1.0000 0.77830  0.00650  0.23490  Biso   1.000  H
  C1060    1.0000 0.53140  0.05870  0.21365  Biso   1.000  C
  H937     1.0000 0.49480  0.05710  0.21950  Biso   1.000  H
  H938     1.0000 0.51970  0.02040  0.20610  Biso   1.000  H
  C1061    1.0000 0.53030  0.10480  0.18036  Biso   1.000  C
  C1062    1.0000 0.47410  0.05870  0.17529  Biso   1.000  C
  H939     1.0000 0.45440  0.02510  0.18470  Biso   1.000  H
  C1063    1.0000 0.44640  0.06140  0.15649  Biso   1.000  C
  H940     1.0000 0.40850  0.02840  0.15260  Biso   1.000  H
  C1064    1.0000 0.47310  0.11140  0.14329  Biso   1.000  C
  H941     1.0000 0.45280  0.11360  0.13070  Biso   1.000  H
  C1065    1.0000 0.52920  0.15790  0.14842  Biso   1.000  C
  C1066    1.0000 0.55940  0.15510  0.16653  Biso   1.000  C
  H942     1.0000 0.59900  0.18630  0.16960  Biso   1.000  H
  C1067    1.0000 0.55720  0.21430  0.13512  Biso   1.000  C
  C1068    1.0000 0.71312  0.44452  0.28884  Biso   1.000  C
  C1069    1.0000 0.73400  0.50620  0.29762  Biso   1.000  C
  C1070    1.0000 0.75216  0.51640  0.31944  Biso   1.000  C
  H943     1.0000 0.75130  0.48550  0.32810  Biso   1.000  H
  C1071    1.0000 0.77170  0.57380  0.32811  Biso   1.000  C
  C1072    1.0000 0.77580  0.62010  0.31517  Biso   1.000  C
  H944     1.0000 0.79080  0.65920  0.32100  Biso   1.000  H
  C1073    1.0000 0.75720  0.60790  0.29346  Biso   1.000  C
  H945     1.0000 0.75940  0.63920  0.28460  Biso   1.000  H
  C1074    1.0000 0.73560  0.55090  0.28458  Biso   1.000  C
  H946     1.0000 0.72240  0.54300  0.26990  Biso   1.000  H
  C1075    1.0000 0.79140  0.54180  0.36220  Biso   1.000  C
  H947     1.0000 0.74990  0.50840  0.36420  Biso   1.000  H
  H948     1.0000 0.81530  0.52610  0.35510  Biso   1.000  H
  C1076    1.0000 0.81864  0.56992  0.38364  Biso   1.000  C
  C1077    1.0000 0.78098  0.57438  0.39993  Biso   1.000  C
  C1078    1.0000 0.80640  0.60150  0.41999  Biso   1.000  C
  C1079    1.0000 0.86720  0.62120  0.42454  Biso   1.000  C
  C1080    1.0000 0.90330  0.61600  0.40866  Biso   1.000  C
  C1081    1.0000 0.88010  0.59345  0.38797  Biso   1.000  C
  C1082    1.0000 0.92020  0.59430  0.36968  Biso   1.000  C
  H949     1.0000 0.92510  0.55900  0.37090  Biso   1.000  H
  H950     1.0000 0.90170  0.59350  0.35570  Biso   1.000  H
  H951     1.0000 0.95950  0.63070  0.37070  Biso   1.000  H
  C1083    1.0000 0.71550  0.54990  0.39477  Biso   1.000  C
  H952     1.0000 0.70230  0.57660  0.40080  Biso   1.000  H
  H953     1.0000 0.70990  0.54740  0.37900  Biso   1.000  H
  H954     1.0000 0.69170  0.50980  0.40110  Biso   1.000  H
  C1084    1.0000 0.89220  0.64360  0.44705  Biso   1.000  C
  H955     1.0000 0.93330  0.67740  0.44590  Biso   1.000  H
  H956     1.0000 0.86710  0.65670  0.45450  Biso   1.000  H
  H957     1.0000 0.89230  0.61110  0.45530  Biso   1.000  H
  C1085    1.0000 0.76860  0.61070  0.43654  Biso   1.000  C
  H958     1.0000 0.73470  0.61170  0.42930  Biso   1.000  H
  H959     1.0000 0.79290  0.64890  0.44440  Biso   1.000  H
  C1086    1.0000 0.71770  0.56520  0.46970  Biso   1.000  C
  C1087    1.0000 0.70300  0.52090  0.48505  Biso   1.000  C
  H960     1.0000 0.71120  0.48930  0.48250  Biso   1.000  H
  C1088    1.0000 0.67540  0.52360  0.50466  Biso   1.000  C
  C1089    1.0000 0.66110  0.56630  0.50778  Biso   1.000  C
  H961     1.0000 0.63950  0.56530  0.52040  Biso   1.000  H
  C1090    1.0000 0.67710  0.61080  0.49324  Biso   1.000  C
  H962     1.0000 0.67200  0.64400  0.49670  Biso   1.000  H
  C1091    1.0000 0.70140  0.60890  0.47290  Biso   1.000  C
  H963     1.0000 0.70640  0.63640  0.46170  Biso   1.000  H
  C1092    1.0000 0.66120  0.47640  0.52141  Biso   1.000  C
  C1093    1.0000 0.96810  0.63700  0.41338  Biso   1.000  C
  H964     1.0000 0.98170  0.61310  0.40500  Biso   1.000  H
  H965     1.0000 0.97400  0.63300  0.42900  Biso   1.000  H
  C1094    1.0000 0.06310  0.72650  0.40770  Biso   1.000  C
  C1095    1.0000 0.09420  0.70317  0.41856  Biso   1.000  C
  H966     1.0000 0.07340  0.66660  0.42640  Biso   1.000  H
  C1096    1.0000 0.15740  0.73510  0.41773  Biso   1.000  C
  C1097    1.0000 0.18700  0.78870  0.40642  Biso   1.000  C
  H967     1.0000 0.22960  0.80960  0.40550  Biso   1.000  H
  C1098    1.0000 0.15560  0.81190  0.39657  Biso   1.000  C
  H968     1.0000 0.17650  0.84970  0.38950  Biso   1.000  H
  C1099    1.0000 0.09340  0.78060  0.39683  Biso   1.000  C
  H969     1.0000 0.07160  0.79620  0.38950  Biso   1.000  H
  C1100    1.0000 0.19100  0.70880  0.42854  Biso   1.000  C
  C1101    1.0000 0.84820  0.95830  0.23231  Biso   1.000  C
  O304     1.0000 0.67970  0.35020  0.41880  Biso   1.000  O
  C1102    1.0000 0.72090  0.34600  0.42750  Biso   1.000  C
  H970     1.0000 0.71450  0.30760  0.43160  Biso   1.000  H
  N16      1.0000 0.78000  0.40020  0.43142  Biso   1.000  N
  C1103    1.0000 0.78570  0.45970  0.43100  Biso   1.000  C
  H971     1.0000 0.75600  0.46020  0.44090  Biso   1.000  H
  H972     1.0000 0.82610  0.48980  0.43580  Biso   1.000  H
  H973     1.0000 0.77880  0.46900  0.41630  Biso   1.000  H
  C1104    1.0000 0.83190  0.39320  0.43550  Biso   1.000  C
  H974     1.0000 0.85960  0.42500  0.44540  Biso   1.000  H
  H975     1.0000 0.81880  0.35400  0.44220  Biso   1.000  H
  H976     1.0000 0.85240  0.39600  0.42180  Biso   1.000  H
  Cd33     1.0000 0.91074  0.98144  0.77689  Biso   1.000  Cd
  Cd34     1.0000 0.93425  0.03276  0.72161  Biso   1.000  Cd
  O305     1.0000 0.32332  0.59523  0.68550  Biso   1.000  O
  O306     1.0000 0.27070  0.56611  0.71544  Biso   1.000  O
  O307     1.0000 0.28134  0.58270  0.46933  Biso   1.000  O
  O308     1.0000 0.18964  0.55849  0.45735  Biso   1.000  O
  O309     1.0000 0.53500  0.33581  0.55302  Biso   1.000  O
  O310     1.0000 0.54608  0.27103  0.57336  Biso   1.000  O
  O311     1.0000 0.38719  0.74089  0.63359  Biso   1.000  O
  O312     1.0000 0.35688  0.76445  0.60315  Biso   1.000  O
  O313     1.0000 0.83285  0.00340  0.77614  Biso   1.000  O
  O314     1.0000 0.91144  0.05873  0.75536  Biso   1.000  O
  O315     1.0000 0.30967  0.81573  0.87271  Biso   1.000  O
  O316     1.0000 0.33307  0.76483  0.85084  Biso   1.000  O
  O317     1.0000 0.23612  0.41342  0.63655  Biso   1.000  O
  O318     1.0000 0.33384  0.30517  0.58092  Biso   1.000  O
  O319     1.0000 0.22782  0.44100  0.53232  Biso   1.000  O
  O320     1.0000 0.45841  0.92209  0.68236  Biso   1.000  O
  O321     1.0000 0.41307  0.89408  0.78479  Biso   1.000  O
  O322     1.0000 0.66809  0.03279  0.74022  Biso   1.000  O
  C1105    1.0000 0.28193  0.55495  0.69696  Biso   1.000  C
  C1106    1.0000 0.24898  0.49325  0.68793  Biso   1.000  C
  C1107    1.0000 0.20997  0.44423  0.70078  Biso   1.000  C
  H977     1.0000 0.20237  0.45013  0.71543  Biso   1.000  H
  C1108    1.0000 0.18207  0.38623  0.69190  Biso   1.000  C
  H978     1.0000 0.15627  0.35273  0.70073  Biso   1.000  H
  C1109    1.0000 0.19137  0.37733  0.67091  Biso   1.000  C
  H979     1.0000 0.17277  0.33783  0.66513  Biso   1.000  H
  C1110    1.0000 0.22897  0.42703  0.65764  Biso   1.000  C
  C1111    1.0000 0.25804  0.48370  0.66646  Biso   1.000  C
  H980     1.0000 0.28477  0.51673  0.65773  Biso   1.000  H
  C1112    1.0000 0.27697  0.46373  0.62277  Biso   1.000  C
  H981     1.0000 0.26167  0.49183  0.62063  Biso   1.000  H
  H982     1.0000 0.31727  0.48583  0.62943  Biso   1.000  H
  C1113    1.0000 0.27950  0.43622  0.60120  Biso   1.000  C
  C1114    1.0000 0.23977  0.42893  0.58492  Biso   1.000  C
  C1115    1.0000 0.24156  0.40192  0.56528  Biso   1.000  C
  C1116    1.0000 0.28437  0.38403  0.56231  Biso   1.000  C
  C1117    1.0000 0.32379  0.39155  0.57910  Biso   1.000  C
  C1118    1.0000 0.32138  0.41584  0.59924  Biso   1.000  C
  C1119    1.0000 0.36087  0.41963  0.61775  Biso   1.000  C
  H983     1.0000 0.40027  0.45593  0.61623  Biso   1.000  H
  H984     1.0000 0.34257  0.42133  0.63143  Biso   1.000  H
  H985     1.0000 0.36567  0.38423  0.61763  Biso   1.000  H
  C1120    1.0000 0.19507  0.45043  0.58794  Biso   1.000  C
  H986     1.0000 0.21117  0.49043  0.58153  Biso   1.000  H
  H987     1.0000 0.15717  0.42233  0.58073  Biso   1.000  H
  H988     1.0000 0.18787  0.45223  0.60343  Biso   1.000  H
  C1121    1.0000 0.28897  0.35803  0.54035  Biso   1.000  C
  H989     1.0000 0.31727  0.39063  0.53093  Biso   1.000  H
  H990     1.0000 0.30317  0.32953  0.54273  Biso   1.000  H
  H991     1.0000 0.24947  0.33743  0.53343  Biso   1.000  H
  C1122    1.0000 0.36737  0.36753  0.57622  Biso   1.000  C
  H992     1.0000 0.40167  0.38793  0.58633  Biso   1.000  H
  H993     1.0000 0.38287  0.37413  0.56113  Biso   1.000  H
  C1123    1.0000 0.36387  0.27453  0.57909  Biso   1.000  C
  C1124    1.0000 0.33047  0.21273  0.58429  Biso   1.000  C
  H994     1.0000 0.28917  0.19493  0.58803  Biso   1.000  H
  C1125    1.0000 0.35787  0.17853  0.58395  Biso   1.000  C
  H995     1.0000 0.33557  0.13743  0.58783  Biso   1.000  H
  C1126    1.0000 0.41757  0.20313  0.57798  Biso   1.000  C
  H996     1.0000 0.43607  0.17913  0.57813  Biso   1.000  H
  C1127    1.0000 0.45036  0.26342  0.57179  Biso   1.000  C
  C1128    1.0000 0.42282  0.29879  0.57242  Biso   1.000  C
  H997     1.0000 0.44497  0.33983  0.56823  Biso   1.000  H
  C1129    1.0000 0.19807  0.39203  0.54698  Biso   1.000  C
  H998     1.0000 0.16147  0.39043  0.55283  Biso   1.000  H
  H999     1.0000 0.18637  0.35373  0.53943  Biso   1.000  H
  C1130    1.0000 0.19697  0.43813  0.51369  Biso   1.000  C
  C1131    1.0000 0.14077  0.39203  0.50862  Biso   1.000  C
  H1000    1.0000 0.12107  0.35843  0.51803  Biso   1.000  H
  C1132    1.0000 0.11307  0.39473  0.48982  Biso   1.000  C
  H1001    1.0000 0.07517  0.36173  0.48593  Biso   1.000  H
  C1133    1.0000 0.13977  0.44473  0.47662  Biso   1.000  C
  H1002    1.0000 0.11947  0.44693  0.46403  Biso   1.000  H
  C1134    1.0000 0.19587  0.49123  0.48175  Biso   1.000  C
  C1135    1.0000 0.22607  0.48843  0.49986  Biso   1.000  C
  H1003    1.0000 0.26567  0.51963  0.50293  Biso   1.000  H
  C1136    1.0000 0.22387  0.54763  0.46845  Biso   1.000  C
  C1137    1.0000 0.37979  0.77785  0.62217  Biso   1.000  C
  C1138    1.0000 0.40067  0.83953  0.63095  Biso   1.000  C
  C1139    1.0000 0.41883  0.84973  0.65277  Biso   1.000  C
  H1004    1.0000 0.41797  0.81883  0.66143  Biso   1.000  H
  C1140    1.0000 0.43837  0.90713  0.66144  Biso   1.000  C
  C1141    1.0000 0.44247  0.95343  0.64850  Biso   1.000  C
  H1005    1.0000 0.45747  0.99253  0.65433  Biso   1.000  H
  C1142    1.0000 0.42387  0.94123  0.62679  Biso   1.000  C
  H1006    1.0000 0.42607  0.97253  0.61793  Biso   1.000  H
  C1143    1.0000 0.40227  0.88423  0.61791  Biso   1.000  C
  H1007    1.0000 0.38907  0.87633  0.60323  Biso   1.000  H
  C1144    1.0000 0.45807  0.87513  0.69553  Biso   1.000  C
  H1008    1.0000 0.41657  0.84173  0.69753  Biso   1.000  H
  H1009    1.0000 0.48197  0.85943  0.68843  Biso   1.000  H
  C1145    1.0000 0.48531  0.90325  0.71697  Biso   1.000  C
  C1146    1.0000 0.44765  0.90771  0.73326  Biso   1.000  C
  C1147    1.0000 0.47307  0.93483  0.75332  Biso   1.000  C
  C1148    1.0000 0.53387  0.95453  0.75787  Biso   1.000  C
  C1149    1.0000 0.56997  0.94933  0.74199  Biso   1.000  C
  C1150    1.0000 0.54677  0.92678  0.72130  Biso   1.000  C
  C1151    1.0000 0.58687  0.92763  0.70301  Biso   1.000  C
  H1010    1.0000 0.59177  0.89233  0.70423  Biso   1.000  H
  H1011    1.0000 0.56837  0.92683  0.68903  Biso   1.000  H
  H1012    1.0000 0.62617  0.96403  0.70403  Biso   1.000  H
  C1152    1.0000 0.38217  0.88323  0.72810  Biso   1.000  C
  H1013    1.0000 0.36897  0.90993  0.73413  Biso   1.000  H
  H1014    1.0000 0.37657  0.88073  0.71233  Biso   1.000  H
  H1015    1.0000 0.35837  0.84313  0.73443  Biso   1.000  H
  C1153    1.0000 0.55887  0.97693  0.78038  Biso   1.000  C
  H1016    1.0000 0.59997  0.01073  0.77923  Biso   1.000  H
  H1017    1.0000 0.53377  0.99003  0.78783  Biso   1.000  H
  H1018    1.0000 0.55897  0.94443  0.78863  Biso   1.000  H
  C1154    1.0000 0.43527  0.94403  0.76987  Biso   1.000  C
  H1019    1.0000 0.40137  0.94503  0.76263  Biso   1.000  H
  H1020    1.0000 0.45957  0.98223  0.77773  Biso   1.000  H
  C1155    1.0000 0.38437  0.89853  0.80303  Biso   1.000  C
  C1156    1.0000 0.36967  0.85423  0.81838  Biso   1.000  C
  H1021    1.0000 0.37787  0.82263  0.81583  Biso   1.000  H
  C1157    1.0000 0.34207  0.85693  0.83799  Biso   1.000  C
  C1158    1.0000 0.32777  0.89963  0.84111  Biso   1.000  C
  H1022    1.0000 0.30617  0.89863  0.85373  Biso   1.000  H
  C1159    1.0000 0.34377  0.94413  0.82657  Biso   1.000  C
  H1023    1.0000 0.33867  0.97733  0.83003  Biso   1.000  H
  C1160    1.0000 0.36807  0.94223  0.80623  Biso   1.000  C
  H1024    1.0000 0.37307  0.96973  0.79503  Biso   1.000  H
  C1161    1.0000 0.32787  0.80973  0.85474  Biso   1.000  C
  C1162    1.0000 0.63477  0.97033  0.74671  Biso   1.000  C
  H1025    1.0000 0.64837  0.94643  0.73833  Biso   1.000  H
  H1026    1.0000 0.64067  0.96633  0.76233  Biso   1.000  H
  C1163    1.0000 0.72977  0.05983  0.74103  Biso   1.000  C
  C1164    1.0000 0.76087  0.03650  0.75189  Biso   1.000  C
  H1027    1.0000 0.74007  0.99993  0.75973  Biso   1.000  H
  C1165    1.0000 0.82407  0.06843  0.75106  Biso   1.000  C
  C1166    1.0000 0.85367  0.12203  0.73975  Biso   1.000  C
  H1028    1.0000 0.89627  0.14293  0.73883  Biso   1.000  H
  C1167    1.0000 0.82227  0.14523  0.72990  Biso   1.000  C
  H1029    1.0000 0.84317  0.18303  0.72283  Biso   1.000  H
  C1168    1.0000 0.76007  0.11393  0.73016  Biso   1.000  C
  H1030    1.0000 0.73827  0.12953  0.72283  Biso   1.000  H
  C1169    1.0000 0.85767  0.04213  0.76187  Biso   1.000  C
  C1170    1.0000 0.51487  0.29163  0.56564  Biso   1.000  C
  O323     1.0000 0.34637  0.68353  0.75213  Biso   1.000  O
  C1171    1.0000 0.38757  0.67933  0.76083  Biso   1.000  C
  H1031    1.0000 0.38117  0.64093  0.76493  Biso   1.000  H
  N17      1.0000 0.44667  0.73353  0.76475  Biso   1.000  N
  C1172    1.0000 0.45237  0.79303  0.76433  Biso   1.000  C
  H1032    1.0000 0.42267  0.79353  0.77423  Biso   1.000  H
  H1033    1.0000 0.49277  0.82313  0.76913  Biso   1.000  H
  H1034    1.0000 0.44547  0.80233  0.74963  Biso   1.000  H
  C1173    1.0000 0.49857  0.72653  0.76883  Biso   1.000  C
  H1035    1.0000 0.52627  0.75833  0.77873  Biso   1.000  H
  H1036    1.0000 0.48547  0.68733  0.77553  Biso   1.000  H
  H1037    1.0000 0.51907  0.72933  0.75513  Biso   1.000  H
  Cd35     1.0000 0.57741  0.31477  0.11022  Biso   1.000  Cd
  Cd36     1.0000 0.60092  0.36609  0.05494  Biso   1.000  Cd
  O324     1.0000 0.98998  0.92857  0.01884  Biso   1.000  O
  O325     1.0000 0.93736  0.89945  0.04878  Biso   1.000  O
  O326     1.0000 0.94800  0.91604  0.80267  Biso   1.000  O
  O327     1.0000 0.85630  0.89183  0.79069  Biso   1.000  O
  O328     1.0000 0.20166  0.66915  0.88636  Biso   1.000  O
  O329     1.0000 0.21274  0.60437  0.90670  Biso   1.000  O
  O330     1.0000 0.05385  0.07423  0.96693  Biso   1.000  O
  O331     1.0000 0.02354  0.09779  0.93649  Biso   1.000  O
  O332     1.0000 0.49951  0.33674  0.10948  Biso   1.000  O
  O333     1.0000 0.57810  0.39207  0.08870  Biso   1.000  O
  O334     1.0000 0.97633  0.14907  0.20605  Biso   1.000  O
  O335     1.0000 0.99973  0.09817  0.18418  Biso   1.000  O
  O336     1.0000 0.90278  0.74676  0.96989  Biso   1.000  O
  O337     1.0000 0.00050  0.63851  0.91426  Biso   1.000  O
  O338     1.0000 0.89448  0.77434  0.86566  Biso   1.000  O
  O339     1.0000 0.12507  0.25543  0.01570  Biso   1.000  O
  O340     1.0000 0.07973  0.22742  0.11813  Biso   1.000  O
  O341     1.0000 0.33475  0.36613  0.07356  Biso   1.000  O
  C1174    1.0000 0.94859  0.88829  0.03030  Biso   1.000  C
  C1175    1.0000 0.91564  0.82659  0.02127  Biso   1.000  C
  C1176    1.0000 0.87663  0.77757  0.03412  Biso   1.000  C
  H1038    1.0000 0.86903  0.78347  0.04877  Biso   1.000  H
  C1177    1.0000 0.84873  0.71957  0.02524  Biso   1.000  C
  H1039    1.0000 0.82293  0.68607  0.03407  Biso   1.000  H
  C1178    1.0000 0.85803  0.71067  0.00425  Biso   1.000  C
  H1040    1.0000 0.83943  0.67117  0.99847  Biso   1.000  H
  C1179    1.0000 0.89563  0.76037  0.99098  Biso   1.000  C
  C1180    1.0000 0.92470  0.81704  0.99980  Biso   1.000  C
  H1041    1.0000 0.95143  0.85007  0.99107  Biso   1.000  H
  C1181    1.0000 0.94363  0.79707  0.95611  Biso   1.000  C
  H1042    1.0000 0.92833  0.82517  0.95397  Biso   1.000  H
  H1043    1.0000 0.98393  0.81917  0.96277  Biso   1.000  H
  C1182    1.0000 0.94616  0.76956  0.93454  Biso   1.000  C
  C1183    1.0000 0.90643  0.76227  0.91826  Biso   1.000  C
  C1184    1.0000 0.90822  0.73526  0.89862  Biso   1.000  C
  C1185    1.0000 0.95103  0.71737  0.89565  Biso   1.000  C
  C1186    1.0000 0.99045  0.72489  0.91244  Biso   1.000  C
  C1187    1.0000 0.98804  0.74918  0.93258  Biso   1.000  C
  C1188    1.0000 0.02753  0.75297  0.95109  Biso   1.000  C
  H1044    1.0000 0.06693  0.78927  0.94957  Biso   1.000  H
  H1045    1.0000 0.00923  0.75467  0.96477  Biso   1.000  H
  H1046    1.0000 0.03233  0.71757  0.95097  Biso   1.000  H
  C1189    1.0000 0.86173  0.78377  0.92128  Biso   1.000  C
  H1047    1.0000 0.87783  0.82377  0.91487  Biso   1.000  H
  H1048    1.0000 0.82383  0.75567  0.91407  Biso   1.000  H
  H1049    1.0000 0.85453  0.78557  0.93677  Biso   1.000  H
  C1190    1.0000 0.95563  0.69137  0.87369  Biso   1.000  C
  H1050    1.0000 0.98393  0.72397  0.86427  Biso   1.000  H
  H1051    1.0000 0.96983  0.66287  0.87607  Biso   1.000  H
  H1052    1.0000 0.91613  0.67077  0.86677  Biso   1.000  H
  C1191    1.0000 0.03403  0.70087  0.90956  Biso   1.000  C
  H1053    1.0000 0.06833  0.72127  0.91967  Biso   1.000  H
  H1054    1.0000 0.04953  0.70747  0.89447  Biso   1.000  H
  C1192    1.0000 0.03053  0.60787  0.91243  Biso   1.000  C
  C1193    1.0000 0.99713  0.54607  0.91763  Biso   1.000  C
  H1055    1.0000 0.95583  0.52827  0.92137  Biso   1.000  H
  C1194    1.0000 0.02453  0.51187  0.91729  Biso   1.000  C
  H1056    1.0000 0.00223  0.47077  0.92117  Biso   1.000  H
  C1195    1.0000 0.08423  0.53647  0.91132  Biso   1.000  C
  H1057    1.0000 0.10273  0.51247  0.91147  Biso   1.000  H
  C1196    1.0000 0.11702  0.59676  0.90513  Biso   1.000  C
  C1197    1.0000 0.08948  0.63213  0.90576  Biso   1.000  C
  H1058    1.0000 0.11163  0.67317  0.90157  Biso   1.000  H
  C1198    1.0000 0.86473  0.72537  0.88032  Biso   1.000  C
  H1059    1.0000 0.82813  0.72377  0.88617  Biso   1.000  H
  H1060    1.0000 0.85303  0.68707  0.87277  Biso   1.000  H
  C1199    1.0000 0.86363  0.77147  0.84703  Biso   1.000  C
  C1200    1.0000 0.80743  0.72537  0.84196  Biso   1.000  C
  H1061    1.0000 0.78773  0.69177  0.85137  Biso   1.000  H
  C1201    1.0000 0.77973  0.72807  0.82316  Biso   1.000  C
  H1062    1.0000 0.74183  0.69507  0.81927  Biso   1.000  H
  C1202    1.0000 0.80643  0.77807  0.80996  Biso   1.000  C
  H1063    1.0000 0.78613  0.78027  0.79737  Biso   1.000  H
  C1203    1.0000 0.86253  0.82457  0.81509  Biso   1.000  C
  C1204    1.0000 0.89273  0.82177  0.83320  Biso   1.000  C
  H1064    1.0000 0.93233  0.85297  0.83627  Biso   1.000  H
  C1205    1.0000 0.89053  0.88097  0.80179  Biso   1.000  C
  C1206    1.0000 0.04645  0.11119  0.95551  Biso   1.000  C
  C1207    1.0000 0.06733  0.17287  0.96429  Biso   1.000  C
  C1208    1.0000 0.08549  0.18307  0.98611  Biso   1.000  C
  H1065    1.0000 0.08463  0.15217  0.99477  Biso   1.000  H
  C1209    1.0000 0.10503  0.24047  0.99478  Biso   1.000  C
  C1210    1.0000 0.10913  0.28677  0.98184  Biso   1.000  C
  H1066    1.0000 0.12413  0.32587  0.98767  Biso   1.000  H
  C1211    1.0000 0.09053  0.27457  0.96013  Biso   1.000  C
  H1067    1.0000 0.09273  0.30587  0.95127  Biso   1.000  H
  C1212    1.0000 0.06893  0.21757  0.95125  Biso   1.000  C
  H1068    1.0000 0.05573  0.20967  0.93657  Biso   1.000  H
  C1213    1.0000 0.12473  0.20847  0.02887  Biso   1.000  C
  H1069    1.0000 0.08323  0.17507  0.03087  Biso   1.000  H
  H1070    1.0000 0.14863  0.19277  0.02177  Biso   1.000  H
  C1214    1.0000 0.15197  0.23659  0.05031  Biso   1.000  C
  C1215    1.0000 0.11431  0.24105  0.06660  Biso   1.000  C
  C1216    1.0000 0.13973  0.26817  0.08666  Biso   1.000  C
  C1217    1.0000 0.20053  0.28787  0.09121  Biso   1.000  C
  C1218    1.0000 0.23663  0.28267  0.07533  Biso   1.000  C
  C1219    1.0000 0.21343  0.26012  0.05464  Biso   1.000  C
  C1220    1.0000 0.25353  0.26097  0.03635  Biso   1.000  C
  H1071    1.0000 0.25843  0.22567  0.03757  Biso   1.000  H
  H1072    1.0000 0.23503  0.26017  0.02237  Biso   1.000  H
  H1073    1.0000 0.29283  0.29737  0.03737  Biso   1.000  H
  C1221    1.0000 0.04883  0.21657  0.06144  Biso   1.000  C
  H1074    1.0000 0.03563  0.24327  0.06747  Biso   1.000  H
  H1075    1.0000 0.04323  0.21407  0.04567  Biso   1.000  H
  H1076    1.0000 0.02503  0.17647  0.06777  Biso   1.000  H
  C1222    1.0000 0.22553  0.31027  0.11372  Biso   1.000  C
  H1077    1.0000 0.26663  0.34407  0.11257  Biso   1.000  H
  H1078    1.0000 0.20043  0.32337  0.12117  Biso   1.000  H
  H1079    1.0000 0.22563  0.27777  0.12197  Biso   1.000  H
  C1223    1.0000 0.10193  0.27737  0.10321  Biso   1.000  C
  H1080    1.0000 0.06803  0.27837  0.09597  Biso   1.000  H
  H1081    1.0000 0.12623  0.31557  0.11107  Biso   1.000  H
  C1224    1.0000 0.05103  0.23187  0.13637  Biso   1.000  C
  C1225    1.0000 0.03633  0.18757  0.15172  Biso   1.000  C
  H1082    1.0000 0.04453  0.15597  0.14917  Biso   1.000  H
  C1226    1.0000 0.00873  0.19027  0.17133  Biso   1.000  C
  C1227    1.0000 0.99443  0.23297  0.17445  Biso   1.000  C
  H1083    1.0000 0.97283  0.23197  0.18707  Biso   1.000  H
  C1228    1.0000 0.01043  0.27747  0.15991  Biso   1.000  C
  H1084    1.0000 0.00533  0.31067  0.16337  Biso   1.000  H
  C1229    1.0000 0.03473  0.27557  0.13957  Biso   1.000  C
  H1085    1.0000 0.03973  0.30307  0.12837  Biso   1.000  H
  C1230    1.0000 0.99453  0.14307  0.18808  Biso   1.000  C
  C1231    1.0000 0.30143  0.30367  0.08005  Biso   1.000  C
  H1086    1.0000 0.31503  0.27977  0.07167  Biso   1.000  H
  H1087    1.0000 0.30733  0.29967  0.09567  Biso   1.000  H
  C1232    1.0000 0.39643  0.39317  0.07437  Biso   1.000  C
  C1233    1.0000 0.42753  0.36984  0.08523  Biso   1.000  C
  H1088    1.0000 0.40673  0.33327  0.09307  Biso   1.000  H
  C1234    1.0000 0.49073  0.40177  0.08440  Biso   1.000  C
  C1235    1.0000 0.52033  0.45537  0.07309  Biso   1.000  C
  H1089    1.0000 0.56293  0.47627  0.07217  Biso   1.000  H
  C1236    1.0000 0.48893  0.47857  0.06324  Biso   1.000  C
  H1090    1.0000 0.50983  0.51637  0.05617  Biso   1.000  H
  C1237    1.0000 0.42673  0.44727  0.06350  Biso   1.000  C
  H1091    1.0000 0.40493  0.46287  0.05617  Biso   1.000  H
  C1238    1.0000 0.52433  0.37547  0.09521  Biso   1.000  C
  C1239    1.0000 0.18153  0.62497  0.89898  Biso   1.000  C
  O342     1.0000 0.01303  0.01687  0.08547  Biso   1.000  O
  C1240    1.0000 0.05423  0.01267  0.09417  Biso   1.000  C
  H1092    1.0000 0.04783  0.97427  0.09827  Biso   1.000  H
  N18      1.0000 0.11333  0.06687  0.09809  Biso   1.000  N
  C1241    1.0000 0.11903  0.12637  0.09767  Biso   1.000  C
  H1093    1.0000 0.08933  0.12687  0.10757  Biso   1.000  H
  H1094    1.0000 0.15943  0.15647  0.10247  Biso   1.000  H
  H1095    1.0000 0.11213  0.13567  0.08297  Biso   1.000  H
  C1242    1.0000 0.16523  0.05987  0.10217  Biso   1.000  C
  H1096    1.0000 0.19293  0.09167  0.11207  Biso   1.000  H
  H1097    1.0000 0.15213  0.02067  0.10887  Biso   1.000  H
  H1098    1.0000 0.18573  0.06267  0.08847  Biso   1.000  H
  Cd37     1.0000 0.66667  0.33333  0.88219  Biso   1.000  Cd
  Cd38     1.0000 0.66667  0.33333  0.82637  Biso   1.000  Cd
  Cd39     1.0000 0.66667  0.33333  0.77045  Biso   1.000  Cd
  Cd40     1.0000 0.33333  0.66667  0.21552  Biso   1.000  Cd
  Cd41     1.0000 0.33333  0.66667  0.15970  Biso   1.000  Cd
  Cd42     1.0000 0.33333  0.66667  0.10378  Biso   1.000  Cd
  Cd43     1.0000 0.00000  0.00000  0.54885  Biso   1.000  Cd
  Cd44     1.0000 0.00000  0.00000  0.49303  Biso   1.000  Cd
  Cd45     1.0000 0.00000  0.00000  0.43712  Biso   1.000  Cd
  Cd46     1.0000 0.66667  0.33333  0.38219  Biso   1.000  Cd
  Cd47     1.0000 0.66667  0.33333  0.32637  Biso   1.000  Cd
  Cd48     1.0000 0.66667  0.33333  0.27045  Biso   1.000  Cd
  Cd49     1.0000 0.33333  0.66667  0.71552  Biso   1.000  Cd
  Cd50     1.0000 0.33333  0.66667  0.65970  Biso   1.000  Cd
  Cd51     1.0000 0.33333  0.66667  0.60378  Biso   1.000  Cd
  Cd52     1.0000 0.00000  0.00000  0.04885  Biso   1.000  Cd
  Cd53     1.0000 0.00000  0.00000  0.99303  Biso   1.000  Cd
  Cd54     1.0000 0.00000  0.00000  0.93712  Biso   1.000  Cd
  O343     1.0000 0.33333  0.66667  0.93106  Biso   1.000  O
  O344     1.0000 0.33333  0.66667  0.88149  Biso   1.000  O
  O345     1.0000 0.00000  0.00000  0.26439  Biso   1.000  O
  O346     1.0000 0.00000  0.00000  0.21482  Biso   1.000  O
  O347     1.0000 0.66667  0.33333  0.59773  Biso   1.000  O
  O348     1.0000 0.66667  0.33333  0.54816  Biso   1.000  O
  O349     1.0000 0.33333  0.66667  0.43106  Biso   1.000  O
  O350     1.0000 0.33333  0.66667  0.38149  Biso   1.000  O
  O351     1.0000 0.00000  0.00000  0.76439  Biso   1.000  O
  O352     1.0000 0.00000  0.00000  0.71482  Biso   1.000  O
  O353     1.0000 0.66667  0.33333  0.09773  Biso   1.000  O
  O354     1.0000 0.66667  0.33333  0.04816  Biso   1.000  O
