data_image0
_cell_length_a       32.9201
_cell_length_b       32.9201
_cell_length_c       9.992
_cell_angle_alpha    90
_cell_angle_beta     90
_cell_angle_gamma    120

_symmetry_space_group_name_H-M    "P 1"
_symmetry_int_tables_number       1

loop_
  _symmetry_equiv_pos_as_xyz
  'x, y, z'

loop_
  _atom_site_label
  _atom_site_occupancy
  _atom_site_fract_x
  _atom_site_fract_y
  _atom_site_fract_z
  _atom_site_thermal_displace_type
  _atom_site_B_iso_or_equiv
  _atom_site_type_symbol
  Ag1      1.0000 0.23929  0.08810  0.91290  Biso   1.000  Ag
  N1       1.0000 0.26872  0.04872  0.01280  Biso   1.000  N
  H1       1.0000 0.25180  0.03740  0.09180  Biso   1.000  H
  N2       1.0000 0.20660  0.10390  0.73810  Biso   1.000  N
  H2       1.0000 0.20770  0.13180  0.76090  Biso   1.000  H
  C1       1.0000 0.32638  0.12427  0.11420  Biso   1.000  C
  C2       1.0000 0.31790  0.12780  0.24790  Biso   1.000  C
  H3       1.0000 0.30720  0.10120  0.30470  Biso   1.000  H
  C3       1.0000 0.34172  0.16350  0.03380  Biso   1.000  C
  H4       1.0000 0.34750  0.16150  0.94150  Biso   1.000  H
  C4       1.0000 0.31840  0.07860  0.05460  Biso   1.000  C
  H5       1.0000 0.33910  0.08530  0.97610  Biso   1.000  H
  H6       1.0000 0.32650  0.06160  0.12150  Biso   1.000  H
  C5       1.0000 0.26310  0.00670  0.94040  Biso   1.000  C
  H7       1.0000 0.27210  0.98850  0.00050  Biso   1.000  H
  H8       1.0000 0.28450  0.01690  0.86230  Biso   1.000  H
  C6       1.0000 0.21350  0.97580  0.89370  Biso   1.000  C
  C7       1.0000 0.18000  0.94130  0.97500  Biso   1.000  C
  H9       1.0000 0.18930  0.93760  0.06210  Biso   1.000  H
  N3       1.0000 0.22273  0.13536  0.06090  Biso   1.000  N
  C8       1.0000 0.20430  0.12230  0.18210  Biso   1.000  C
  H10      1.0000 0.19230  0.09060  0.20810  Biso   1.000  H
  C9       1.0000 0.20200  0.15290  0.27200  Biso   1.000  C
  H11      1.0000 0.18920  0.14230  0.35870  Biso   1.000  H
  C10      1.0000 0.19910  0.98060  0.76490  Biso   1.000  C
  H12      1.0000 0.22050  0.00370  0.70470  Biso   1.000  H
  C11      1.0000 0.28500  0.14200  0.64240  Biso   1.000  C
  C12      1.0000 0.30850  0.19000  0.66670  Biso   1.000  C
  H13      1.0000 0.29140  0.20620  0.66780  Biso   1.000  H
  C13      1.0000 0.30980  0.11830  0.64360  Biso   1.000  C
  H14      1.0000 0.29410  0.08540  0.62900  Biso   1.000  H
  C14      1.0000 0.23270  0.11420  0.61560  Biso   1.000  C
  H15      1.0000 0.22380  0.13240  0.55590  Biso   1.000  H
  H16      1.0000 0.22500  0.08460  0.56960  Biso   1.000  H
  C15      1.0000 0.15670  0.06990  0.72400  Biso   1.000  C
  H17      1.0000 0.15270  0.03880  0.70890  Biso   1.000  H
  H18      1.0000 0.14410  0.07710  0.64750  Biso   1.000  H
  C16      1.0000 0.13050  0.06780  0.84030  Biso   1.000  C
  C17      1.0000 0.11160  0.09550  0.86100  Biso   1.000  C
  H19      1.0000 0.11570  0.11990  0.79520  Biso   1.000  H
  N4       1.0000 0.08550  0.08930  0.97500  Biso   1.000  N
  C18      1.0000 0.08040  0.05630  0.05800  Biso   1.000  C
  H20      1.0000 0.06060  0.05160  0.13610  Biso   1.000  H
  C19      1.0000 0.07340  0.10030  0.95500  Biso   1.000  C
  H21      1.0000 0.09260  0.09670  0.88670  Biso   1.000  H
  C20      1.0000 0.12380  0.03240  0.93710  Biso   1.000  C
  H22      1.0000 0.13730  0.01260  0.92030  Biso   1.000  H
  H23      1.0000 0.14230  0.07160  0.80550  Biso   1.000  H
  H24      1.0000 0.15480  0.03930  0.72720  Biso   1.000  H
  C21      1.0000 0.12370  0.06430  0.61970  Biso   1.000  C
  C22      1.0000 0.12530  0.04540  0.49450  Biso   1.000  C
  H25      1.0000 0.14710  0.03410  0.48120  Biso   1.000  H
  N5       1.0000 0.09790  0.04250  0.39090  Biso   1.000  N
  C23      1.0000 0.06850  0.05860  0.41800  Biso   1.000  C
  H26      1.0000 0.04860  0.05720  0.34540  Biso   1.000  H
  C24      1.0000 0.06400  0.07640  0.53800  Biso   1.000  C
  H27      1.0000 0.04070  0.08600  0.54960  Biso   1.000  H
  C25      1.0000 0.09340  0.08080  0.63800  Biso   1.000  C
  H28      1.0000 0.09300  0.09560  0.72260  Biso   1.000  H
  Ag2      1.0000 0.90595  0.42144  0.24623  Biso   1.000  Ag
  N6       1.0000 0.93539  0.38205  0.34613  Biso   1.000  N
  H29      1.0000 0.91847  0.37073  0.42513  Biso   1.000  H
  N7       1.0000 0.87327  0.43723  0.07143  Biso   1.000  N
  H30      1.0000 0.87437  0.46513  0.09423  Biso   1.000  H
  C26      1.0000 0.99305  0.45760  0.44753  Biso   1.000  C
  C27      1.0000 0.98457  0.46113  0.58123  Biso   1.000  C
  H31      1.0000 0.97387  0.43453  0.63803  Biso   1.000  H
  C28      1.0000 0.00839  0.49683  0.36713  Biso   1.000  C
  H32      1.0000 0.01417  0.49483  0.27483  Biso   1.000  H
  C29      1.0000 0.98507  0.41193  0.38793  Biso   1.000  C
  H33      1.0000 0.00577  0.41863  0.30943  Biso   1.000  H
  H34      1.0000 0.99317  0.39493  0.45483  Biso   1.000  H
  C30      1.0000 0.92977  0.34003  0.27373  Biso   1.000  C
  H35      1.0000 0.93877  0.32183  0.33383  Biso   1.000  H
  H36      1.0000 0.95117  0.35023  0.19563  Biso   1.000  H
  C31      1.0000 0.88017  0.30913  0.22703  Biso   1.000  C
  C32      1.0000 0.84667  0.27463  0.30833  Biso   1.000  C
  H37      1.0000 0.85597  0.27093  0.39543  Biso   1.000  H
  N8       1.0000 0.88940  0.46869  0.39423  Biso   1.000  N
  C33      1.0000 0.87097  0.45563  0.51543  Biso   1.000  C
  H38      1.0000 0.85897  0.42393  0.54143  Biso   1.000  H
  C34      1.0000 0.86867  0.48623  0.60533  Biso   1.000  C
  H39      1.0000 0.85587  0.47563  0.69203  Biso   1.000  H
  C35      1.0000 0.86577  0.31393  0.09823  Biso   1.000  C
  H40      1.0000 0.88717  0.33703  0.03803  Biso   1.000  H
  C36      1.0000 0.95167  0.47533  0.97573  Biso   1.000  C
  C37      1.0000 0.97517  0.52333  0.00003  Biso   1.000  C
  H41      1.0000 0.95807  0.53953  0.00113  Biso   1.000  H
  C38      1.0000 0.97647  0.45163  0.97693  Biso   1.000  C
  H42      1.0000 0.96077  0.41873  0.96233  Biso   1.000  H
  C39      1.0000 0.89937  0.44753  0.94893  Biso   1.000  C
  H43      1.0000 0.89047  0.46573  0.88923  Biso   1.000  H
  H44      1.0000 0.89167  0.41793  0.90293  Biso   1.000  H
  C40      1.0000 0.82337  0.40323  0.05733  Biso   1.000  C
  H45      1.0000 0.81937  0.37213  0.04223  Biso   1.000  H
  H46      1.0000 0.81077  0.41043  0.98083  Biso   1.000  H
  C41      1.0000 0.79717  0.40113  0.17363  Biso   1.000  C
  C42      1.0000 0.77827  0.42883  0.19433  Biso   1.000  C
  H47      1.0000 0.78237  0.45323  0.12853  Biso   1.000  H
  N9       1.0000 0.75217  0.42263  0.30833  Biso   1.000  N
  C43      1.0000 0.74707  0.38963  0.39133  Biso   1.000  C
  H48      1.0000 0.72727  0.38493  0.46943  Biso   1.000  H
  C44      1.0000 0.74007  0.43363  0.28833  Biso   1.000  C
  H49      1.0000 0.75927  0.43003  0.22003  Biso   1.000  H
  C45      1.0000 0.79047  0.36573  0.27043  Biso   1.000  C
  H50      1.0000 0.80397  0.34593  0.25363  Biso   1.000  H
  H51      1.0000 0.80897  0.40493  0.13883  Biso   1.000  H
  H52      1.0000 0.82147  0.37263  0.06053  Biso   1.000  H
  C46      1.0000 0.79037  0.39763  0.95303  Biso   1.000  C
  C47      1.0000 0.79197  0.37873  0.82783  Biso   1.000  C
  H53      1.0000 0.81377  0.36743  0.81453  Biso   1.000  H
  N10      1.0000 0.76457  0.37583  0.72423  Biso   1.000  N
  C48      1.0000 0.73517  0.39193  0.75133  Biso   1.000  C
  H54      1.0000 0.71527  0.39053  0.67873  Biso   1.000  H
  C49      1.0000 0.73067  0.40973  0.87133  Biso   1.000  C
  H55      1.0000 0.70737  0.41933  0.88293  Biso   1.000  H
  C50      1.0000 0.76007  0.41413  0.97133  Biso   1.000  C
  H56      1.0000 0.75967  0.42893  0.05593  Biso   1.000  H
  Ag3      1.0000 0.57262  0.75477  0.57957  Biso   1.000  Ag
  N11      1.0000 0.60205  0.71539  0.67947  Biso   1.000  N
  H57      1.0000 0.58513  0.70407  0.75847  Biso   1.000  H
  N12      1.0000 0.53993  0.77057  0.40477  Biso   1.000  N
  H58      1.0000 0.54103  0.79847  0.42757  Biso   1.000  H
  C51      1.0000 0.65971  0.79094  0.78087  Biso   1.000  C
  C52      1.0000 0.65123  0.79447  0.91457  Biso   1.000  C
  H59      1.0000 0.64053  0.76787  0.97137  Biso   1.000  H
  C53      1.0000 0.67505  0.83017  0.70047  Biso   1.000  C
  H60      1.0000 0.68083  0.82817  0.60817  Biso   1.000  H
  C54      1.0000 0.65173  0.74527  0.72127  Biso   1.000  C
  H61      1.0000 0.67243  0.75197  0.64277  Biso   1.000  H
  H62      1.0000 0.65983  0.72827  0.78817  Biso   1.000  H
  C55      1.0000 0.59643  0.67337  0.60707  Biso   1.000  C
  H63      1.0000 0.60543  0.65517  0.66717  Biso   1.000  H
  H64      1.0000 0.61783  0.68357  0.52897  Biso   1.000  H
  C56      1.0000 0.54683  0.64247  0.56037  Biso   1.000  C
  C57      1.0000 0.51333  0.60797  0.64167  Biso   1.000  C
  H65      1.0000 0.52263  0.60427  0.72877  Biso   1.000  H
  N13      1.0000 0.55606  0.80203  0.72757  Biso   1.000  N
  C58      1.0000 0.53763  0.78897  0.84877  Biso   1.000  C
  H66      1.0000 0.52563  0.75727  0.87477  Biso   1.000  H
  C59      1.0000 0.53533  0.81957  0.93867  Biso   1.000  C
  H67      1.0000 0.52253  0.80897  0.02537  Biso   1.000  H
  C60      1.0000 0.53243  0.64727  0.43157  Biso   1.000  C
  H68      1.0000 0.55383  0.67037  0.37137  Biso   1.000  H
  C61      1.0000 0.61833  0.80867  0.30907  Biso   1.000  C
  C62      1.0000 0.64183  0.85667  0.33337  Biso   1.000  C
  H69      1.0000 0.62473  0.87287  0.33447  Biso   1.000  H
  C63      1.0000 0.64313  0.78497  0.31027  Biso   1.000  C
  H70      1.0000 0.62743  0.75207  0.29567  Biso   1.000  H
  C64      1.0000 0.56603  0.78087  0.28227  Biso   1.000  C
  H71      1.0000 0.55713  0.79907  0.22257  Biso   1.000  H
  H72      1.0000 0.55833  0.75127  0.23627  Biso   1.000  H
  C65      1.0000 0.49003  0.73657  0.39067  Biso   1.000  C
  H73      1.0000 0.48603  0.70547  0.37557  Biso   1.000  H
  H74      1.0000 0.47743  0.74377  0.31417  Biso   1.000  H
  C66      1.0000 0.46383  0.73447  0.50697  Biso   1.000  C
  C67      1.0000 0.44493  0.76217  0.52767  Biso   1.000  C
  H75      1.0000 0.44903  0.78657  0.46187  Biso   1.000  H
  N14      1.0000 0.41883  0.75597  0.64167  Biso   1.000  N
  C68      1.0000 0.41373  0.72297  0.72467  Biso   1.000  C
  H76      1.0000 0.39393  0.71827  0.80277  Biso   1.000  H
  C69      1.0000 0.40673  0.76697  0.62167  Biso   1.000  C
  H77      1.0000 0.42593  0.76337  0.55337  Biso   1.000  H
  C70      1.0000 0.45713  0.69907  0.60377  Biso   1.000  C
  H78      1.0000 0.47063  0.67927  0.58697  Biso   1.000  H
  H79      1.0000 0.47563  0.73827  0.47217  Biso   1.000  H
  H80      1.0000 0.48813  0.70597  0.39387  Biso   1.000  H
  C71      1.0000 0.45703  0.73097  0.28637  Biso   1.000  C
  C72      1.0000 0.45863  0.71207  0.16117  Biso   1.000  C
  H81      1.0000 0.48043  0.70077  0.14787  Biso   1.000  H
  N15      1.0000 0.43123  0.70917  0.05757  Biso   1.000  N
  C73      1.0000 0.40183  0.72527  0.08467  Biso   1.000  C
  H82      1.0000 0.38193  0.72387  0.01207  Biso   1.000  H
  C74      1.0000 0.39733  0.74307  0.20467  Biso   1.000  C
  H83      1.0000 0.37403  0.75267  0.21627  Biso   1.000  H
  C75      1.0000 0.42673  0.74747  0.30467  Biso   1.000  C
  H84      1.0000 0.42633  0.76227  0.38927  Biso   1.000  H
  Ag4      1.0000 0.91190  0.15119  0.91290  Biso   1.000  Ag
  N16      1.0000 0.95128  0.22000  0.01280  Biso   1.000  N
  H85      1.0000 0.96260  0.21440  0.09180  Biso   1.000  H
  N17      1.0000 0.89610  0.10270  0.73810  Biso   1.000  N
  H86      1.0000 0.86820  0.07590  0.76090  Biso   1.000  H
  C76      1.0000 0.87573  0.20211  0.11420  Biso   1.000  C
  C77      1.0000 0.87220  0.19010  0.24790  Biso   1.000  C
  H87      1.0000 0.89880  0.20600  0.30470  Biso   1.000  H
  C78      1.0000 0.83650  0.17822  0.03380  Biso   1.000  C
  H88      1.0000 0.83850  0.18600  0.94150  Biso   1.000  H
  C79      1.0000 0.92140  0.23980  0.05460  Biso   1.000  C
  H89      1.0000 0.91470  0.25380  0.97610  Biso   1.000  H
  H90      1.0000 0.93840  0.26490  0.12150  Biso   1.000  H
  C80      1.0000 0.99330  0.25640  0.94040  Biso   1.000  C
  H91      1.0000 0.01150  0.28360  0.00050  Biso   1.000  H
  H92      1.0000 0.98310  0.26760  0.86230  Biso   1.000  H
  C81      1.0000 0.02420  0.23770  0.89370  Biso   1.000  C
  C82      1.0000 0.05870  0.23870  0.97500  Biso   1.000  C
  H93      1.0000 0.06240  0.25170  0.06210  Biso   1.000  H
  N18      1.0000 0.86464  0.08737  0.06090  Biso   1.000  N
  C83      1.0000 0.87770  0.08200  0.18210  Biso   1.000  C
  H94      1.0000 0.90940  0.10170  0.20810  Biso   1.000  H
  C84      1.0000 0.84710  0.04910  0.27200  Biso   1.000  C
  H95      1.0000 0.85770  0.04690  0.35870  Biso   1.000  H
  C85      1.0000 0.01940  0.21850  0.76490  Biso   1.000  C
  H96      1.0000 0.99630  0.21680  0.70470  Biso   1.000  H
  C86      1.0000 0.85800  0.14300  0.64240  Biso   1.000  C
  C87      1.0000 0.81000  0.11850  0.66670  Biso   1.000  C
  H97      1.0000 0.79380  0.08520  0.66780  Biso   1.000  H
  C88      1.0000 0.88170  0.19150  0.64360  Biso   1.000  C
  H98      1.0000 0.91460  0.20870  0.62900  Biso   1.000  H
  C89      1.0000 0.88580  0.11850  0.61560  Biso   1.000  C
  H99      1.0000 0.86760  0.09140  0.55590  Biso   1.000  H
  H100     1.0000 0.91540  0.14040  0.56960  Biso   1.000  H
  C90      1.0000 0.93010  0.08680  0.72400  Biso   1.000  C
  H101     1.0000 0.96120  0.11390  0.70890  Biso   1.000  H
  H102     1.0000 0.92290  0.06700  0.64750  Biso   1.000  H
  C91      1.0000 0.93220  0.06270  0.84030  Biso   1.000  C
  C92      1.0000 0.90450  0.01610  0.86100  Biso   1.000  C
  H103     1.0000 0.88010  0.99580  0.79520  Biso   1.000  H
  N19      1.0000 0.91070  0.99620  0.97500  Biso   1.000  N
  C93      1.0000 0.94370  0.02410  0.05800  Biso   1.000  C
  H104     1.0000 0.94840  0.00900  0.13610  Biso   1.000  H
  C94      1.0000 0.89970  0.97310  0.95500  Biso   1.000  C
  H105     1.0000 0.90330  0.99590  0.88670  Biso   1.000  H
  C95      1.0000 0.96760  0.09140  0.93710  Biso   1.000  C
  H106     1.0000 0.98740  0.12470  0.92030  Biso   1.000  H
  H107     1.0000 0.92840  0.07070  0.80550  Biso   1.000  H
  H108     1.0000 0.96070  0.11550  0.72720  Biso   1.000  H
  C96      1.0000 0.93570  0.05940  0.61970  Biso   1.000  C
  C97      1.0000 0.95460  0.07990  0.49450  Biso   1.000  C
  H109     1.0000 0.96590  0.11300  0.48120  Biso   1.000  H
  N20      1.0000 0.95750  0.05540  0.39090  Biso   1.000  N
  C98      1.0000 0.94140  0.00990  0.41800  Biso   1.000  C
  H110     1.0000 0.94280  0.99140  0.34540  Biso   1.000  H
  C99      1.0000 0.92360  0.98760  0.53800  Biso   1.000  C
  H111     1.0000 0.91400  0.95470  0.54960  Biso   1.000  H
  C100     1.0000 0.91920  0.01260  0.63800  Biso   1.000  C
  H112     1.0000 0.90440  0.99740  0.72260  Biso   1.000  H
  Ag5      1.0000 0.57856  0.48452  0.24623  Biso   1.000  Ag
  N21      1.0000 0.61795  0.55333  0.34613  Biso   1.000  N
  H113     1.0000 0.62927  0.54773  0.42513  Biso   1.000  H
  N22      1.0000 0.56277  0.43603  0.07143  Biso   1.000  N
  H114     1.0000 0.53487  0.40923  0.09423  Biso   1.000  H
  C101     1.0000 0.54240  0.53544  0.44753  Biso   1.000  C
  C102     1.0000 0.53887  0.52343  0.58123  Biso   1.000  C
  H115     1.0000 0.56547  0.53933  0.63803  Biso   1.000  H
  C103     1.0000 0.50317  0.51155  0.36713  Biso   1.000  C
  H116     1.0000 0.50517  0.51933  0.27483  Biso   1.000  H
  C104     1.0000 0.58807  0.57313  0.38793  Biso   1.000  C
  H117     1.0000 0.58137  0.58713  0.30943  Biso   1.000  H
  H118     1.0000 0.60507  0.59823  0.45483  Biso   1.000  H
  C105     1.0000 0.65997  0.58973  0.27373  Biso   1.000  C
  H119     1.0000 0.67817  0.61693  0.33383  Biso   1.000  H
  H120     1.0000 0.64977  0.60093  0.19563  Biso   1.000  H
  C106     1.0000 0.69087  0.57103  0.22703  Biso   1.000  C
  C107     1.0000 0.72537  0.57203  0.30833  Biso   1.000  C
  H121     1.0000 0.72907  0.58503  0.39543  Biso   1.000  H
  N23      1.0000 0.53131  0.42070  0.39423  Biso   1.000  N
  C108     1.0000 0.54437  0.41533  0.51543  Biso   1.000  C
  H122     1.0000 0.57607  0.43503  0.54143  Biso   1.000  H
  C109     1.0000 0.51377  0.38243  0.60533  Biso   1.000  C
  H123     1.0000 0.52437  0.38023  0.69203  Biso   1.000  H
  C110     1.0000 0.68607  0.55183  0.09823  Biso   1.000  C
  H124     1.0000 0.66297  0.55013  0.03803  Biso   1.000  H
  C111     1.0000 0.52467  0.47633  0.97573  Biso   1.000  C
  C112     1.0000 0.47667  0.45183  0.00003  Biso   1.000  C
  H125     1.0000 0.46047  0.41853  0.00113  Biso   1.000  H
  C113     1.0000 0.54837  0.52483  0.97693  Biso   1.000  C
  H126     1.0000 0.58127  0.54203  0.96233  Biso   1.000  H
  C114     1.0000 0.55247  0.45183  0.94893  Biso   1.000  C
  H127     1.0000 0.53427  0.42473  0.88923  Biso   1.000  H
  H128     1.0000 0.58207  0.47373  0.90293  Biso   1.000  H
  C115     1.0000 0.59677  0.42013  0.05733  Biso   1.000  C
  H129     1.0000 0.62787  0.44723  0.04223  Biso   1.000  H
  H130     1.0000 0.58957  0.40033  0.98083  Biso   1.000  H
  C116     1.0000 0.59887  0.39603  0.17363  Biso   1.000  C
  C117     1.0000 0.57117  0.34943  0.19433  Biso   1.000  C
  H131     1.0000 0.54677  0.32913  0.12853  Biso   1.000  H
  N24      1.0000 0.57737  0.32953  0.30833  Biso   1.000  N
  C118     1.0000 0.61037  0.35743  0.39133  Biso   1.000  C
  H132     1.0000 0.61507  0.34233  0.46943  Biso   1.000  H
  C119     1.0000 0.56637  0.30643  0.28833  Biso   1.000  C
  H133     1.0000 0.56997  0.32923  0.22003  Biso   1.000  H
  C120     1.0000 0.63427  0.42473  0.27043  Biso   1.000  C
  H134     1.0000 0.65407  0.45803  0.25363  Biso   1.000  H
  H135     1.0000 0.59507  0.40403  0.13883  Biso   1.000  H
  H136     1.0000 0.62737  0.44883  0.06053  Biso   1.000  H
  C121     1.0000 0.60237  0.39273  0.95303  Biso   1.000  C
  C122     1.0000 0.62127  0.41323  0.82783  Biso   1.000  C
  H137     1.0000 0.63257  0.44633  0.81453  Biso   1.000  H
  N25      1.0000 0.62417  0.38873  0.72423  Biso   1.000  N
  C123     1.0000 0.60807  0.34323  0.75133  Biso   1.000  C
  H138     1.0000 0.60947  0.32473  0.67873  Biso   1.000  H
  C124     1.0000 0.59027  0.32093  0.87133  Biso   1.000  C
  H139     1.0000 0.58067  0.28803  0.88293  Biso   1.000  H
  C125     1.0000 0.58587  0.34593  0.97133  Biso   1.000  C
  H140     1.0000 0.57107  0.33073  0.05593  Biso   1.000  H
  Ag6      1.0000 0.24523  0.81785  0.57957  Biso   1.000  Ag
  N26      1.0000 0.28461  0.88667  0.67947  Biso   1.000  N
  H141     1.0000 0.29593  0.88107  0.75847  Biso   1.000  H
  N27      1.0000 0.22943  0.76937  0.40477  Biso   1.000  N
  H142     1.0000 0.20153  0.74257  0.42757  Biso   1.000  H
  C126     1.0000 0.20906  0.86878  0.78087  Biso   1.000  C
  C127     1.0000 0.20553  0.85677  0.91457  Biso   1.000  C
  H143     1.0000 0.23213  0.87267  0.97137  Biso   1.000  H
  C128     1.0000 0.16983  0.84489  0.70047  Biso   1.000  C
  H144     1.0000 0.17183  0.85267  0.60817  Biso   1.000  H
  C129     1.0000 0.25473  0.90647  0.72127  Biso   1.000  C
  H145     1.0000 0.24803  0.92047  0.64277  Biso   1.000  H
  H146     1.0000 0.27173  0.93157  0.78817  Biso   1.000  H
  C130     1.0000 0.32663  0.92307  0.60707  Biso   1.000  C
  H147     1.0000 0.34483  0.95027  0.66717  Biso   1.000  H
  H148     1.0000 0.31643  0.93427  0.52897  Biso   1.000  H
  C131     1.0000 0.35753  0.90437  0.56037  Biso   1.000  C
  C132     1.0000 0.39203  0.90537  0.64167  Biso   1.000  C
  H149     1.0000 0.39573  0.91837  0.72877  Biso   1.000  H
  N28      1.0000 0.19797  0.75404  0.72757  Biso   1.000  N
  C133     1.0000 0.21103  0.74867  0.84877  Biso   1.000  C
  H150     1.0000 0.24273  0.76837  0.87477  Biso   1.000  H
  C134     1.0000 0.18043  0.71577  0.93867  Biso   1.000  C
  H151     1.0000 0.19103  0.71357  0.02537  Biso   1.000  H
  C135     1.0000 0.35273  0.88517  0.43157  Biso   1.000  C
  H152     1.0000 0.32963  0.88347  0.37137  Biso   1.000  H
  C136     1.0000 0.19133  0.80967  0.30907  Biso   1.000  C
  C137     1.0000 0.14333  0.78517  0.33337  Biso   1.000  C
  H153     1.0000 0.12713  0.75187  0.33447  Biso   1.000  H
  C138     1.0000 0.21503  0.85817  0.31027  Biso   1.000  C
  H154     1.0000 0.24793  0.87537  0.29567  Biso   1.000  H
  C139     1.0000 0.21913  0.78517  0.28227  Biso   1.000  C
  H155     1.0000 0.20093  0.75807  0.22257  Biso   1.000  H
  H156     1.0000 0.24873  0.80707  0.23627  Biso   1.000  H
  C140     1.0000 0.26343  0.75347  0.39067  Biso   1.000  C
  H157     1.0000 0.29453  0.78057  0.37557  Biso   1.000  H
  H158     1.0000 0.25623  0.73367  0.31417  Biso   1.000  H
  C141     1.0000 0.26553  0.72937  0.50697  Biso   1.000  C
  C142     1.0000 0.23783  0.68277  0.52767  Biso   1.000  C
  H159     1.0000 0.21343  0.66247  0.46187  Biso   1.000  H
  N29      1.0000 0.24403  0.66287  0.64167  Biso   1.000  N
  C143     1.0000 0.27703  0.69077  0.72467  Biso   1.000  C
  H160     1.0000 0.28173  0.67567  0.80277  Biso   1.000  H
  C144     1.0000 0.23303  0.63977  0.62167  Biso   1.000  C
  H161     1.0000 0.23663  0.66257  0.55337  Biso   1.000  H
  C145     1.0000 0.30093  0.75807  0.60377  Biso   1.000  C
  H162     1.0000 0.32073  0.79137  0.58697  Biso   1.000  H
  H163     1.0000 0.26173  0.73737  0.47217  Biso   1.000  H
  H164     1.0000 0.29403  0.78217  0.39387  Biso   1.000  H
  C146     1.0000 0.26903  0.72607  0.28637  Biso   1.000  C
  C147     1.0000 0.28793  0.74657  0.16117  Biso   1.000  C
  H165     1.0000 0.29923  0.77967  0.14787  Biso   1.000  H
  N30      1.0000 0.29083  0.72207  0.05757  Biso   1.000  N
  C148     1.0000 0.27473  0.67657  0.08467  Biso   1.000  C
  H166     1.0000 0.27613  0.65807  0.01207  Biso   1.000  H
  C149     1.0000 0.25693  0.65427  0.20467  Biso   1.000  C
  H167     1.0000 0.24733  0.62137  0.21627  Biso   1.000  H
  C150     1.0000 0.25253  0.67927  0.30467  Biso   1.000  C
  H168     1.0000 0.23773  0.66407  0.38927  Biso   1.000  H
  Ag7      1.0000 0.84881  0.76071  0.91290  Biso   1.000  Ag
  N31      1.0000 0.78000  0.73128  0.01280  Biso   1.000  N
  H169     1.0000 0.78560  0.74820  0.09180  Biso   1.000  H
  N32      1.0000 0.89730  0.79340  0.73810  Biso   1.000  N
  H170     1.0000 0.92410  0.79230  0.76090  Biso   1.000  H
  C151     1.0000 0.79789  0.67362  0.11420  Biso   1.000  C
  C152     1.0000 0.80990  0.68210  0.24790  Biso   1.000  C
  H171     1.0000 0.79400  0.69280  0.30470  Biso   1.000  H
  C153     1.0000 0.82178  0.65828  0.03380  Biso   1.000  C
  H172     1.0000 0.81400  0.65250  0.94150  Biso   1.000  H
  C154     1.0000 0.76020  0.68160  0.05460  Biso   1.000  C
  H173     1.0000 0.74620  0.66090  0.97610  Biso   1.000  H
  H174     1.0000 0.73510  0.67350  0.12150  Biso   1.000  H
  C155     1.0000 0.74360  0.73690  0.94040  Biso   1.000  C
  H175     1.0000 0.71640  0.72790  0.00050  Biso   1.000  H
  H176     1.0000 0.73240  0.71550  0.86230  Biso   1.000  H
  C156     1.0000 0.76230  0.78650  0.89370  Biso   1.000  C
  C157     1.0000 0.76130  0.82000  0.97500  Biso   1.000  C
  H177     1.0000 0.74830  0.81070  0.06210  Biso   1.000  H
  N33      1.0000 0.91263  0.77727  0.06090  Biso   1.000  N
  C158     1.0000 0.91800  0.79570  0.18210  Biso   1.000  C
  H178     1.0000 0.89830  0.80770  0.20810  Biso   1.000  H
  C159     1.0000 0.95090  0.79800  0.27200  Biso   1.000  C
  H179     1.0000 0.95310  0.81080  0.35870  Biso   1.000  H
  C160     1.0000 0.78150  0.80090  0.76490  Biso   1.000  C
  H180     1.0000 0.78320  0.77950  0.70470  Biso   1.000  H
  C161     1.0000 0.85700  0.71500  0.64240  Biso   1.000  C
  C162     1.0000 0.88150  0.69150  0.66670  Biso   1.000  C
  H181     1.0000 0.91480  0.70860  0.66780  Biso   1.000  H
  C163     1.0000 0.80850  0.69020  0.64360  Biso   1.000  C
  H182     1.0000 0.79130  0.70590  0.62900  Biso   1.000  H
  C164     1.0000 0.88150  0.76730  0.61560  Biso   1.000  C
  H183     1.0000 0.90860  0.77620  0.55590  Biso   1.000  H
  H184     1.0000 0.85960  0.77500  0.56960  Biso   1.000  H
  C165     1.0000 0.91320  0.84330  0.72400  Biso   1.000  C
  H185     1.0000 0.88610  0.84730  0.70890  Biso   1.000  H
  H186     1.0000 0.93300  0.85590  0.64750  Biso   1.000  H
  C166     1.0000 0.93730  0.86950  0.84030  Biso   1.000  C
  C167     1.0000 0.98390  0.88840  0.86100  Biso   1.000  C
  H187     1.0000 0.00420  0.88430  0.79520  Biso   1.000  H
  N34      1.0000 0.00380  0.91450  0.97500  Biso   1.000  N
  C168     1.0000 0.97590  0.91960  0.05800  Biso   1.000  C
  H188     1.0000 0.99100  0.93940  0.13610  Biso   1.000  H
  C169     1.0000 0.02690  0.92660  0.95500  Biso   1.000  C
  H189     1.0000 0.00410  0.90740  0.88670  Biso   1.000  H
  C170     1.0000 0.90860  0.87620  0.93710  Biso   1.000  C
  H190     1.0000 0.87530  0.86270  0.92030  Biso   1.000  H
  H191     1.0000 0.92930  0.85770  0.80550  Biso   1.000  H
  H192     1.0000 0.88450  0.84520  0.72720  Biso   1.000  H
  C171     1.0000 0.94060  0.87630  0.61970  Biso   1.000  C
  C172     1.0000 0.92010  0.87470  0.49450  Biso   1.000  C
  H193     1.0000 0.88700  0.85290  0.48120  Biso   1.000  H
  N35      1.0000 0.94460  0.90210  0.39090  Biso   1.000  N
  C173     1.0000 0.99010  0.93150  0.41800  Biso   1.000  C
  H194     1.0000 0.00860  0.95140  0.34540  Biso   1.000  H
  C174     1.0000 0.01240  0.93600  0.53800  Biso   1.000  C
  H195     1.0000 0.04530  0.95930  0.54960  Biso   1.000  H
  C175     1.0000 0.98740  0.90660  0.63800  Biso   1.000  C
  H196     1.0000 0.00260  0.90700  0.72260  Biso   1.000  H
  Ag8      1.0000 0.51548  0.09405  0.24623  Biso   1.000  Ag
  N36      1.0000 0.44667  0.06461  0.34613  Biso   1.000  N
  H197     1.0000 0.45227  0.08153  0.42513  Biso   1.000  H
  N37      1.0000 0.56397  0.12673  0.07143  Biso   1.000  N
  H198     1.0000 0.59077  0.12563  0.09423  Biso   1.000  H
  C176     1.0000 0.46456  0.00695  0.44753  Biso   1.000  C
  C177     1.0000 0.47657  0.01543  0.58123  Biso   1.000  C
  H199     1.0000 0.46067  0.02613  0.63803  Biso   1.000  H
  C178     1.0000 0.48845  0.99161  0.36713  Biso   1.000  C
  H200     1.0000 0.48067  0.98583  0.27483  Biso   1.000  H
  C179     1.0000 0.42687  0.01493  0.38793  Biso   1.000  C
  H201     1.0000 0.41287  0.99423  0.30943  Biso   1.000  H
  H202     1.0000 0.40177  0.00683  0.45483  Biso   1.000  H
  C180     1.0000 0.41027  0.07023  0.27373  Biso   1.000  C
  H203     1.0000 0.38307  0.06123  0.33383  Biso   1.000  H
  H204     1.0000 0.39907  0.04883  0.19563  Biso   1.000  H
  C181     1.0000 0.42897  0.11983  0.22703  Biso   1.000  C
  C182     1.0000 0.42797  0.15333  0.30833  Biso   1.000  C
  H205     1.0000 0.41497  0.14403  0.39543  Biso   1.000  H
  N38      1.0000 0.57930  0.11060  0.39423  Biso   1.000  N
  C183     1.0000 0.58467  0.12903  0.51543  Biso   1.000  C
  H206     1.0000 0.56497  0.14103  0.54143  Biso   1.000  H
  C184     1.0000 0.61757  0.13133  0.60533  Biso   1.000  C
  H207     1.0000 0.61977  0.14413  0.69203  Biso   1.000  H
  C185     1.0000 0.44817  0.13423  0.09823  Biso   1.000  C
  H208     1.0000 0.44987  0.11283  0.03803  Biso   1.000  H
  C186     1.0000 0.52367  0.04833  0.97573  Biso   1.000  C
  C187     1.0000 0.54817  0.02483  0.00003  Biso   1.000  C
  H209     1.0000 0.58147  0.04193  0.00113  Biso   1.000  H
  C188     1.0000 0.47517  0.02353  0.97693  Biso   1.000  C
  H210     1.0000 0.45797  0.03923  0.96233  Biso   1.000  H
  C189     1.0000 0.54817  0.10063  0.94893  Biso   1.000  C
  H211     1.0000 0.57527  0.10953  0.88923  Biso   1.000  H
  H212     1.0000 0.52627  0.10833  0.90293  Biso   1.000  H
  C190     1.0000 0.57987  0.17663  0.05733  Biso   1.000  C
  H213     1.0000 0.55277  0.18063  0.04223  Biso   1.000  H
  H214     1.0000 0.59967  0.18923  0.98083  Biso   1.000  H
  C191     1.0000 0.60397  0.20283  0.17363  Biso   1.000  C
  C192     1.0000 0.65057  0.22173  0.19433  Biso   1.000  C
  H215     1.0000 0.67087  0.21763  0.12853  Biso   1.000  H
  N39      1.0000 0.67047  0.24783  0.30833  Biso   1.000  N
  C193     1.0000 0.64257  0.25293  0.39133  Biso   1.000  C
  H216     1.0000 0.65767  0.27273  0.46943  Biso   1.000  H
  C194     1.0000 0.69357  0.25993  0.28833  Biso   1.000  C
  H217     1.0000 0.67077  0.24073  0.22003  Biso   1.000  H
  C195     1.0000 0.57527  0.20953  0.27043  Biso   1.000  C
  H218     1.0000 0.54197  0.19603  0.25363  Biso   1.000  H
  H219     1.0000 0.59597  0.19103  0.13883  Biso   1.000  H
  H220     1.0000 0.55117  0.17853  0.06053  Biso   1.000  H
  C196     1.0000 0.60727  0.20963  0.95303  Biso   1.000  C
  C197     1.0000 0.58677  0.20803  0.82783  Biso   1.000  C
  H221     1.0000 0.55367  0.18623  0.81453  Biso   1.000  H
  N40      1.0000 0.61127  0.23543  0.72423  Biso   1.000  N
  C198     1.0000 0.65677  0.26483  0.75133  Biso   1.000  C
  H222     1.0000 0.67527  0.28473  0.67873  Biso   1.000  H
  C199     1.0000 0.67907  0.26933  0.87133  Biso   1.000  C
  H223     1.0000 0.71197  0.29263  0.88293  Biso   1.000  H
  C200     1.0000 0.65407  0.23993  0.97133  Biso   1.000  C
  H224     1.0000 0.66927  0.24033  0.05593  Biso   1.000  H
  Ag9      1.0000 0.18215  0.42738  0.57957  Biso   1.000  Ag
  N41      1.0000 0.11333  0.39795  0.67947  Biso   1.000  N
  H225     1.0000 0.11893  0.41487  0.75847  Biso   1.000  H
  N42      1.0000 0.23063  0.46007  0.40477  Biso   1.000  N
  H226     1.0000 0.25743  0.45897  0.42757  Biso   1.000  H
  C201     1.0000 0.13122  0.34029  0.78087  Biso   1.000  C
  C202     1.0000 0.14323  0.34877  0.91457  Biso   1.000  C
  H227     1.0000 0.12733  0.35947  0.97137  Biso   1.000  H
  C203     1.0000 0.15511  0.32495  0.70047  Biso   1.000  C
  H228     1.0000 0.14733  0.31917  0.60817  Biso   1.000  H
  C204     1.0000 0.09353  0.34827  0.72127  Biso   1.000  C
  H229     1.0000 0.07953  0.32757  0.64277  Biso   1.000  H
  H230     1.0000 0.06843  0.34017  0.78817  Biso   1.000  H
  C205     1.0000 0.07693  0.40357  0.60707  Biso   1.000  C
  H231     1.0000 0.04973  0.39457  0.66717  Biso   1.000  H
  H232     1.0000 0.06573  0.38217  0.52897  Biso   1.000  H
  C206     1.0000 0.09563  0.45317  0.56037  Biso   1.000  C
  C207     1.0000 0.09463  0.48667  0.64167  Biso   1.000  C
  H233     1.0000 0.08163  0.47737  0.72877  Biso   1.000  H
  N43      1.0000 0.24596  0.44394  0.72757  Biso   1.000  N
  C208     1.0000 0.25133  0.46237  0.84877  Biso   1.000  C
  H234     1.0000 0.23163  0.47437  0.87477  Biso   1.000  H
  C209     1.0000 0.28423  0.46467  0.93867  Biso   1.000  C
  H235     1.0000 0.28643  0.47747  0.02537  Biso   1.000  H
  C210     1.0000 0.11483  0.46757  0.43157  Biso   1.000  C
  H236     1.0000 0.11653  0.44617  0.37137  Biso   1.000  H
  C211     1.0000 0.19033  0.38167  0.30907  Biso   1.000  C
  C212     1.0000 0.21483  0.35817  0.33337  Biso   1.000  C
  H237     1.0000 0.24813  0.37527  0.33447  Biso   1.000  H
  C213     1.0000 0.14183  0.35687  0.31027  Biso   1.000  C
  H238     1.0000 0.12463  0.37257  0.29567  Biso   1.000  H
  C214     1.0000 0.21483  0.43397  0.28227  Biso   1.000  C
  H239     1.0000 0.24193  0.44287  0.22257  Biso   1.000  H
  H240     1.0000 0.19293  0.44167  0.23627  Biso   1.000  H
  C215     1.0000 0.24653  0.50997  0.39067  Biso   1.000  C
  H241     1.0000 0.21943  0.51397  0.37557  Biso   1.000  H
  H242     1.0000 0.26633  0.52257  0.31417  Biso   1.000  H
  C216     1.0000 0.27063  0.53617  0.50697  Biso   1.000  C
  C217     1.0000 0.31723  0.55507  0.52767  Biso   1.000  C
  H243     1.0000 0.33753  0.55097  0.46187  Biso   1.000  H
  N44      1.0000 0.33713  0.58117  0.64167  Biso   1.000  N
  C218     1.0000 0.30923  0.58627  0.72467  Biso   1.000  C
  H244     1.0000 0.32433  0.60607  0.80277  Biso   1.000  H
  C219     1.0000 0.36023  0.59327  0.62167  Biso   1.000  C
  H245     1.0000 0.33743  0.57407  0.55337  Biso   1.000  H
  C220     1.0000 0.24193  0.54287  0.60377  Biso   1.000  C
  H246     1.0000 0.20863  0.52937  0.58697  Biso   1.000  H
  H247     1.0000 0.26263  0.52437  0.47217  Biso   1.000  H
  H248     1.0000 0.21783  0.51187  0.39387  Biso   1.000  H
  C221     1.0000 0.27393  0.54297  0.28637  Biso   1.000  C
  C222     1.0000 0.25343  0.54137  0.16117  Biso   1.000  C
  H249     1.0000 0.22033  0.51957  0.14787  Biso   1.000  H
  N45      1.0000 0.27793  0.56877  0.05757  Biso   1.000  N
  C223     1.0000 0.32343  0.59817  0.08467  Biso   1.000  C
  H250     1.0000 0.34193  0.61807  0.01207  Biso   1.000  H
  C224     1.0000 0.34573  0.60267  0.20467  Biso   1.000  C
  H251     1.0000 0.37863  0.62597  0.21627  Biso   1.000  H
  C225     1.0000 0.32073  0.57327  0.30467  Biso   1.000  C
  H252     1.0000 0.33593  0.57367  0.38927  Biso   1.000  H
  Ag10     1.0000 0.76071  0.91190  0.08710  Biso   1.000  Ag
  N46      1.0000 0.73128  0.95128  0.98720  Biso   1.000  N
  H253     1.0000 0.74820  0.96260  0.90820  Biso   1.000  H
  N47      1.0000 0.79340  0.89610  0.26190  Biso   1.000  N
  H254     1.0000 0.79230  0.86820  0.23910  Biso   1.000  H
  C226     1.0000 0.67362  0.87573  0.88580  Biso   1.000  C
  C227     1.0000 0.68210  0.87220  0.75210  Biso   1.000  C
  H255     1.0000 0.69280  0.89880  0.69530  Biso   1.000  H
  C228     1.0000 0.65828  0.83650  0.96620  Biso   1.000  C
  H256     1.0000 0.65250  0.83850  0.05850  Biso   1.000  H
  C229     1.0000 0.68160  0.92140  0.94540  Biso   1.000  C
  H257     1.0000 0.66090  0.91470  0.02390  Biso   1.000  H
  H258     1.0000 0.67350  0.93840  0.87850  Biso   1.000  H
  C230     1.0000 0.73690  0.99330  0.05960  Biso   1.000  C
  H259     1.0000 0.72790  0.01150  0.99950  Biso   1.000  H
  H260     1.0000 0.71550  0.98310  0.13770  Biso   1.000  H
  C231     1.0000 0.78650  0.02420  0.10630  Biso   1.000  C
  C232     1.0000 0.82000  0.05870  0.02500  Biso   1.000  C
  H261     1.0000 0.81070  0.06240  0.93790  Biso   1.000  H
  N48      1.0000 0.77727  0.86464  0.93910  Biso   1.000  N
  C233     1.0000 0.79570  0.87770  0.81790  Biso   1.000  C
  H262     1.0000 0.80770  0.90940  0.79190  Biso   1.000  H
  C234     1.0000 0.79800  0.84710  0.72800  Biso   1.000  C
  H263     1.0000 0.81080  0.85770  0.64130  Biso   1.000  H
  C235     1.0000 0.80090  0.01940  0.23510  Biso   1.000  C
  H264     1.0000 0.77950  0.99630  0.29530  Biso   1.000  H
  C236     1.0000 0.71500  0.85800  0.35760  Biso   1.000  C
  C237     1.0000 0.69150  0.81000  0.33330  Biso   1.000  C
  H265     1.0000 0.70860  0.79380  0.33220  Biso   1.000  H
  C238     1.0000 0.69020  0.88170  0.35640  Biso   1.000  C
  H266     1.0000 0.70590  0.91460  0.37100  Biso   1.000  H
  C239     1.0000 0.76730  0.88580  0.38440  Biso   1.000  C
  H267     1.0000 0.77620  0.86760  0.44410  Biso   1.000  H
  H268     1.0000 0.77500  0.91540  0.43040  Biso   1.000  H
  C240     1.0000 0.84330  0.93010  0.27600  Biso   1.000  C
  H269     1.0000 0.84730  0.96120  0.29110  Biso   1.000  H
  H270     1.0000 0.85590  0.92290  0.35250  Biso   1.000  H
  C241     1.0000 0.86950  0.93220  0.15970  Biso   1.000  C
  C242     1.0000 0.88840  0.90450  0.13900  Biso   1.000  C
  H271     1.0000 0.88430  0.88010  0.20480  Biso   1.000  H
  N49      1.0000 0.91450  0.91070  0.02500  Biso   1.000  N
  C243     1.0000 0.91960  0.94370  0.94200  Biso   1.000  C
  H272     1.0000 0.93940  0.94840  0.86390  Biso   1.000  H
  C244     1.0000 0.92660  0.89970  0.04500  Biso   1.000  C
  H273     1.0000 0.90740  0.90330  0.11330  Biso   1.000  H
  C245     1.0000 0.87620  0.96760  0.06290  Biso   1.000  C
  H274     1.0000 0.86270  0.98740  0.07970  Biso   1.000  H
  H275     1.0000 0.85770  0.92840  0.19450  Biso   1.000  H
  H276     1.0000 0.84520  0.96070  0.27280  Biso   1.000  H
  C246     1.0000 0.87630  0.93570  0.38030  Biso   1.000  C
  C247     1.0000 0.87470  0.95460  0.50550  Biso   1.000  C
  H277     1.0000 0.85290  0.96590  0.51880  Biso   1.000  H
  N50      1.0000 0.90210  0.95750  0.60910  Biso   1.000  N
  C248     1.0000 0.93150  0.94140  0.58200  Biso   1.000  C
  H278     1.0000 0.95140  0.94280  0.65460  Biso   1.000  H
  C249     1.0000 0.93600  0.92360  0.46200  Biso   1.000  C
  H279     1.0000 0.95930  0.91400  0.45040  Biso   1.000  H
  C250     1.0000 0.90660  0.91920  0.36200  Biso   1.000  C
  H280     1.0000 0.90700  0.90440  0.27740  Biso   1.000  H
  Ag11     1.0000 0.42738  0.24523  0.42043  Biso   1.000  Ag
  N51      1.0000 0.39795  0.28461  0.32053  Biso   1.000  N
  H281     1.0000 0.41487  0.29593  0.24153  Biso   1.000  H
  N52      1.0000 0.46007  0.22943  0.59523  Biso   1.000  N
  H282     1.0000 0.45897  0.20153  0.57243  Biso   1.000  H
  C251     1.0000 0.34029  0.20906  0.21913  Biso   1.000  C
  C252     1.0000 0.34877  0.20553  0.08543  Biso   1.000  C
  H283     1.0000 0.35947  0.23213  0.02863  Biso   1.000  H
  C253     1.0000 0.32495  0.16983  0.29953  Biso   1.000  C
  H284     1.0000 0.31917  0.17183  0.39183  Biso   1.000  H
  C254     1.0000 0.34827  0.25473  0.27873  Biso   1.000  C
  H285     1.0000 0.32757  0.24803  0.35723  Biso   1.000  H
  H286     1.0000 0.34017  0.27173  0.21183  Biso   1.000  H
  C255     1.0000 0.40357  0.32663  0.39293  Biso   1.000  C
  H287     1.0000 0.39457  0.34483  0.33283  Biso   1.000  H
  H288     1.0000 0.38217  0.31643  0.47103  Biso   1.000  H
  C256     1.0000 0.45317  0.35753  0.43963  Biso   1.000  C
  C257     1.0000 0.48667  0.39203  0.35833  Biso   1.000  C
  H289     1.0000 0.47737  0.39573  0.27123  Biso   1.000  H
  N53      1.0000 0.44394  0.19797  0.27243  Biso   1.000  N
  C258     1.0000 0.46237  0.21103  0.15123  Biso   1.000  C
  H290     1.0000 0.47437  0.24273  0.12523  Biso   1.000  H
  C259     1.0000 0.46467  0.18043  0.06133  Biso   1.000  C
  H291     1.0000 0.47747  0.19103  0.97463  Biso   1.000  H
  C260     1.0000 0.46757  0.35273  0.56843  Biso   1.000  C
  H292     1.0000 0.44617  0.32963  0.62863  Biso   1.000  H
  C261     1.0000 0.38167  0.19133  0.69093  Biso   1.000  C
  C262     1.0000 0.35817  0.14333  0.66663  Biso   1.000  C
  H293     1.0000 0.37527  0.12713  0.66553  Biso   1.000  H
  C263     1.0000 0.35687  0.21503  0.68973  Biso   1.000  C
  H294     1.0000 0.37257  0.24793  0.70433  Biso   1.000  H
  C264     1.0000 0.43397  0.21913  0.71773  Biso   1.000  C
  H295     1.0000 0.44287  0.20093  0.77743  Biso   1.000  H
  H296     1.0000 0.44167  0.24873  0.76373  Biso   1.000  H
  C265     1.0000 0.50997  0.26343  0.60933  Biso   1.000  C
  H297     1.0000 0.51397  0.29453  0.62443  Biso   1.000  H
  H298     1.0000 0.52257  0.25623  0.68583  Biso   1.000  H
  C266     1.0000 0.53617  0.26553  0.49303  Biso   1.000  C
  C267     1.0000 0.55507  0.23783  0.47233  Biso   1.000  C
  H299     1.0000 0.55097  0.21343  0.53813  Biso   1.000  H
  N54      1.0000 0.58117  0.24403  0.35833  Biso   1.000  N
  C268     1.0000 0.58627  0.27703  0.27533  Biso   1.000  C
  H300     1.0000 0.60607  0.28173  0.19723  Biso   1.000  H
  C269     1.0000 0.59327  0.23303  0.37833  Biso   1.000  C
  H301     1.0000 0.57407  0.23663  0.44663  Biso   1.000  H
  C270     1.0000 0.54287  0.30093  0.39623  Biso   1.000  C
  H302     1.0000 0.52937  0.32073  0.41303  Biso   1.000  H
  H303     1.0000 0.52437  0.26173  0.52783  Biso   1.000  H
  H304     1.0000 0.51187  0.29403  0.60613  Biso   1.000  H
  C271     1.0000 0.54297  0.26903  0.71363  Biso   1.000  C
  C272     1.0000 0.54137  0.28793  0.83883  Biso   1.000  C
  H305     1.0000 0.51957  0.29923  0.85213  Biso   1.000  H
  N55      1.0000 0.56877  0.29083  0.94243  Biso   1.000  N
  C273     1.0000 0.59817  0.27473  0.91533  Biso   1.000  C
  H306     1.0000 0.61807  0.27613  0.98793  Biso   1.000  H
  C274     1.0000 0.60267  0.25693  0.79533  Biso   1.000  C
  H307     1.0000 0.62597  0.24733  0.78373  Biso   1.000  H
  C275     1.0000 0.57327  0.25253  0.69533  Biso   1.000  C
  H308     1.0000 0.57367  0.23773  0.61073  Biso   1.000  H
  Ag12     1.0000 0.09405  0.57856  0.75377  Biso   1.000  Ag
  N56      1.0000 0.06461  0.61795  0.65387  Biso   1.000  N
  H309     1.0000 0.08153  0.62927  0.57487  Biso   1.000  H
  N57      1.0000 0.12673  0.56277  0.92857  Biso   1.000  N
  H310     1.0000 0.12563  0.53487  0.90577  Biso   1.000  H
  C276     1.0000 0.00695  0.54240  0.55247  Biso   1.000  C
  C277     1.0000 0.01543  0.53887  0.41877  Biso   1.000  C
  H311     1.0000 0.02613  0.56547  0.36197  Biso   1.000  H
  C278     1.0000 0.99161  0.50317  0.63287  Biso   1.000  C
  H312     1.0000 0.98583  0.50517  0.72517  Biso   1.000  H
  C279     1.0000 0.01493  0.58807  0.61207  Biso   1.000  C
  H313     1.0000 0.99423  0.58137  0.69057  Biso   1.000  H
  H314     1.0000 0.00683  0.60507  0.54517  Biso   1.000  H
  C280     1.0000 0.07023  0.65997  0.72627  Biso   1.000  C
  H315     1.0000 0.06123  0.67817  0.66617  Biso   1.000  H
  H316     1.0000 0.04883  0.64977  0.80437  Biso   1.000  H
  C281     1.0000 0.11983  0.69087  0.77297  Biso   1.000  C
  C282     1.0000 0.15333  0.72537  0.69167  Biso   1.000  C
  H317     1.0000 0.14403  0.72907  0.60457  Biso   1.000  H
  N58      1.0000 0.11060  0.53131  0.60577  Biso   1.000  N
  C283     1.0000 0.12903  0.54437  0.48457  Biso   1.000  C
  H318     1.0000 0.14103  0.57607  0.45857  Biso   1.000  H
  C284     1.0000 0.13133  0.51377  0.39467  Biso   1.000  C
  H319     1.0000 0.14413  0.52437  0.30797  Biso   1.000  H
  C285     1.0000 0.13423  0.68607  0.90177  Biso   1.000  C
  H320     1.0000 0.11283  0.66297  0.96197  Biso   1.000  H
  C286     1.0000 0.04833  0.52467  0.02427  Biso   1.000  C
  C287     1.0000 0.02483  0.47667  0.99997  Biso   1.000  C
  H321     1.0000 0.04193  0.46047  0.99887  Biso   1.000  H
  C288     1.0000 0.02353  0.54837  0.02307  Biso   1.000  C
  H322     1.0000 0.03923  0.58127  0.03767  Biso   1.000  H
  C289     1.0000 0.10063  0.55247  0.05107  Biso   1.000  C
  H323     1.0000 0.10953  0.53427  0.11077  Biso   1.000  H
  H324     1.0000 0.10833  0.58207  0.09707  Biso   1.000  H
  C290     1.0000 0.17663  0.59677  0.94267  Biso   1.000  C
  H325     1.0000 0.18063  0.62787  0.95777  Biso   1.000  H
  H326     1.0000 0.18923  0.58957  0.01917  Biso   1.000  H
  C291     1.0000 0.20283  0.59887  0.82637  Biso   1.000  C
  C292     1.0000 0.22173  0.57117  0.80567  Biso   1.000  C
  H327     1.0000 0.21763  0.54677  0.87147  Biso   1.000  H
  N59      1.0000 0.24783  0.57737  0.69167  Biso   1.000  N
  C293     1.0000 0.25293  0.61037  0.60867  Biso   1.000  C
  H328     1.0000 0.27273  0.61507  0.53057  Biso   1.000  H
  C294     1.0000 0.25993  0.56637  0.71167  Biso   1.000  C
  H329     1.0000 0.24073  0.56997  0.77997  Biso   1.000  H
  C295     1.0000 0.20953  0.63427  0.72957  Biso   1.000  C
  H330     1.0000 0.19603  0.65407  0.74637  Biso   1.000  H
  H331     1.0000 0.19103  0.59507  0.86117  Biso   1.000  H
  H332     1.0000 0.17853  0.62737  0.93947  Biso   1.000  H
  C296     1.0000 0.20963  0.60237  0.04697  Biso   1.000  C
  C297     1.0000 0.20803  0.62127  0.17217  Biso   1.000  C
  H333     1.0000 0.18623  0.63257  0.18547  Biso   1.000  H
  N60      1.0000 0.23543  0.62417  0.27577  Biso   1.000  N
  C298     1.0000 0.26483  0.60807  0.24867  Biso   1.000  C
  H334     1.0000 0.28473  0.60947  0.32127  Biso   1.000  H
  C299     1.0000 0.26933  0.59027  0.12867  Biso   1.000  C
  H335     1.0000 0.29263  0.58067  0.11707  Biso   1.000  H
  C300     1.0000 0.23993  0.58587  0.02867  Biso   1.000  C
  H336     1.0000 0.24033  0.57107  0.94407  Biso   1.000  H
  Ag13     1.0000 0.08810  0.84881  0.08710  Biso   1.000  Ag
  N61      1.0000 0.04872  0.78000  0.98720  Biso   1.000  N
  H337     1.0000 0.03740  0.78560  0.90820  Biso   1.000  H
  N62      1.0000 0.10390  0.89730  0.26190  Biso   1.000  N
  H338     1.0000 0.13180  0.92410  0.23910  Biso   1.000  H
  C301     1.0000 0.12427  0.79789  0.88580  Biso   1.000  C
  C302     1.0000 0.12780  0.80990  0.75210  Biso   1.000  C
  H339     1.0000 0.10120  0.79400  0.69530  Biso   1.000  H
  C303     1.0000 0.16350  0.82178  0.96620  Biso   1.000  C
  H340     1.0000 0.16150  0.81400  0.05850  Biso   1.000  H
  C304     1.0000 0.07860  0.76020  0.94540  Biso   1.000  C
  H341     1.0000 0.08530  0.74620  0.02390  Biso   1.000  H
  H342     1.0000 0.06160  0.73510  0.87850  Biso   1.000  H
  C305     1.0000 0.00670  0.74360  0.05960  Biso   1.000  C
  H343     1.0000 0.98850  0.71640  0.99950  Biso   1.000  H
  H344     1.0000 0.01690  0.73240  0.13770  Biso   1.000  H
  C306     1.0000 0.97580  0.76230  0.10630  Biso   1.000  C
  C307     1.0000 0.94130  0.76130  0.02500  Biso   1.000  C
  H345     1.0000 0.93760  0.74830  0.93790  Biso   1.000  H
  N63      1.0000 0.13536  0.91263  0.93910  Biso   1.000  N
  C308     1.0000 0.12230  0.91800  0.81790  Biso   1.000  C
  H346     1.0000 0.09060  0.89830  0.79190  Biso   1.000  H
  C309     1.0000 0.15290  0.95090  0.72800  Biso   1.000  C
  H347     1.0000 0.14230  0.95310  0.64130  Biso   1.000  H
  C310     1.0000 0.98060  0.78150  0.23510  Biso   1.000  C
  H348     1.0000 0.00370  0.78320  0.29530  Biso   1.000  H
  C311     1.0000 0.14200  0.85700  0.35760  Biso   1.000  C
  C312     1.0000 0.19000  0.88150  0.33330  Biso   1.000  C
  H349     1.0000 0.20620  0.91480  0.33220  Biso   1.000  H
  C313     1.0000 0.11830  0.80850  0.35640  Biso   1.000  C
  H350     1.0000 0.08540  0.79130  0.37100  Biso   1.000  H
  C314     1.0000 0.11420  0.88150  0.38440  Biso   1.000  C
  H351     1.0000 0.13240  0.90860  0.44410  Biso   1.000  H
  H352     1.0000 0.08460  0.85960  0.43040  Biso   1.000  H
  C315     1.0000 0.06990  0.91320  0.27600  Biso   1.000  C
  H353     1.0000 0.03880  0.88610  0.29110  Biso   1.000  H
  H354     1.0000 0.07710  0.93300  0.35250  Biso   1.000  H
  C316     1.0000 0.06780  0.93730  0.15970  Biso   1.000  C
  C317     1.0000 0.09550  0.98390  0.13900  Biso   1.000  C
  H355     1.0000 0.11990  0.00420  0.20480  Biso   1.000  H
  N64      1.0000 0.08930  0.00380  0.02500  Biso   1.000  N
  C318     1.0000 0.05630  0.97590  0.94200  Biso   1.000  C
  H356     1.0000 0.05160  0.99100  0.86390  Biso   1.000  H
  C319     1.0000 0.10030  0.02690  0.04500  Biso   1.000  C
  H357     1.0000 0.09670  0.00410  0.11330  Biso   1.000  H
  C320     1.0000 0.03240  0.90860  0.06290  Biso   1.000  C
  H358     1.0000 0.01260  0.87530  0.07970  Biso   1.000  H
  H359     1.0000 0.07160  0.92930  0.19450  Biso   1.000  H
  H360     1.0000 0.03930  0.88450  0.27280  Biso   1.000  H
  C321     1.0000 0.06430  0.94060  0.38030  Biso   1.000  C
  C322     1.0000 0.04540  0.92010  0.50550  Biso   1.000  C
  H361     1.0000 0.03410  0.88700  0.51880  Biso   1.000  H
  N65      1.0000 0.04250  0.94460  0.60910  Biso   1.000  N
  C323     1.0000 0.05860  0.99010  0.58200  Biso   1.000  C
  H362     1.0000 0.05720  0.00860  0.65460  Biso   1.000  H
  C324     1.0000 0.07640  0.01240  0.46200  Biso   1.000  C
  H363     1.0000 0.08600  0.04530  0.45040  Biso   1.000  H
  C325     1.0000 0.08080  0.98740  0.36200  Biso   1.000  C
  H364     1.0000 0.09560  0.00260  0.27740  Biso   1.000  H
  Ag14     1.0000 0.75477  0.18215  0.42043  Biso   1.000  Ag
  N66      1.0000 0.71539  0.11333  0.32053  Biso   1.000  N
  H365     1.0000 0.70407  0.11893  0.24153  Biso   1.000  H
  N67      1.0000 0.77057  0.23063  0.59523  Biso   1.000  N
  H366     1.0000 0.79847  0.25743  0.57243  Biso   1.000  H
  C326     1.0000 0.79094  0.13122  0.21913  Biso   1.000  C
  C327     1.0000 0.79447  0.14323  0.08543  Biso   1.000  C
  H367     1.0000 0.76787  0.12733  0.02863  Biso   1.000  H
  C328     1.0000 0.83017  0.15511  0.29953  Biso   1.000  C
  H368     1.0000 0.82817  0.14733  0.39183  Biso   1.000  H
  C329     1.0000 0.74527  0.09353  0.27873  Biso   1.000  C
  H369     1.0000 0.75197  0.07953  0.35723  Biso   1.000  H
  H370     1.0000 0.72827  0.06843  0.21183  Biso   1.000  H
  C330     1.0000 0.67337  0.07693  0.39293  Biso   1.000  C
  H371     1.0000 0.65517  0.04973  0.33283  Biso   1.000  H
  H372     1.0000 0.68357  0.06573  0.47103  Biso   1.000  H
  C331     1.0000 0.64247  0.09563  0.43963  Biso   1.000  C
  C332     1.0000 0.60797  0.09463  0.35833  Biso   1.000  C
  H373     1.0000 0.60427  0.08163  0.27123  Biso   1.000  H
  N68      1.0000 0.80203  0.24596  0.27243  Biso   1.000  N
  C333     1.0000 0.78897  0.25133  0.15123  Biso   1.000  C
  H374     1.0000 0.75727  0.23163  0.12523  Biso   1.000  H
  C334     1.0000 0.81957  0.28423  0.06133  Biso   1.000  C
  H375     1.0000 0.80897  0.28643  0.97463  Biso   1.000  H
  C335     1.0000 0.64727  0.11483  0.56843  Biso   1.000  C
  H376     1.0000 0.67037  0.11653  0.62863  Biso   1.000  H
  C336     1.0000 0.80867  0.19033  0.69093  Biso   1.000  C
  C337     1.0000 0.85667  0.21483  0.66663  Biso   1.000  C
  H377     1.0000 0.87287  0.24813  0.66553  Biso   1.000  H
  C338     1.0000 0.78497  0.14183  0.68973  Biso   1.000  C
  H378     1.0000 0.75207  0.12463  0.70433  Biso   1.000  H
  C339     1.0000 0.78087  0.21483  0.71773  Biso   1.000  C
  H379     1.0000 0.79907  0.24193  0.77743  Biso   1.000  H
  H380     1.0000 0.75127  0.19293  0.76373  Biso   1.000  H
  C340     1.0000 0.73657  0.24653  0.60933  Biso   1.000  C
  H381     1.0000 0.70547  0.21943  0.62443  Biso   1.000  H
  H382     1.0000 0.74377  0.26633  0.68583  Biso   1.000  H
  C341     1.0000 0.73447  0.27063  0.49303  Biso   1.000  C
  C342     1.0000 0.76217  0.31723  0.47233  Biso   1.000  C
  H383     1.0000 0.78657  0.33753  0.53813  Biso   1.000  H
  N69      1.0000 0.75597  0.33713  0.35833  Biso   1.000  N
  C343     1.0000 0.72297  0.30923  0.27533  Biso   1.000  C
  H384     1.0000 0.71827  0.32433  0.19723  Biso   1.000  H
  C344     1.0000 0.76697  0.36023  0.37833  Biso   1.000  C
  H385     1.0000 0.76337  0.33743  0.44663  Biso   1.000  H
  C345     1.0000 0.69907  0.24193  0.39623  Biso   1.000  C
  H386     1.0000 0.67927  0.20863  0.41303  Biso   1.000  H
  H387     1.0000 0.73827  0.26263  0.52783  Biso   1.000  H
  H388     1.0000 0.70597  0.21783  0.60613  Biso   1.000  H
  C346     1.0000 0.73097  0.27393  0.71363  Biso   1.000  C
  C347     1.0000 0.71207  0.25343  0.83883  Biso   1.000  C
  H389     1.0000 0.70077  0.22033  0.85213  Biso   1.000  H
  N70      1.0000 0.70917  0.27793  0.94243  Biso   1.000  N
  C348     1.0000 0.72527  0.32343  0.91533  Biso   1.000  C
  H390     1.0000 0.72387  0.34193  0.98793  Biso   1.000  H
  C349     1.0000 0.74307  0.34573  0.79533  Biso   1.000  C
  H391     1.0000 0.75267  0.37863  0.78373  Biso   1.000  H
  C350     1.0000 0.74747  0.32073  0.69533  Biso   1.000  C
  H392     1.0000 0.76227  0.33593  0.61073  Biso   1.000  H
  Ag15     1.0000 0.42144  0.51548  0.75377  Biso   1.000  Ag
  N71      1.0000 0.38205  0.44667  0.65387  Biso   1.000  N
  H393     1.0000 0.37073  0.45227  0.57487  Biso   1.000  H
  N72      1.0000 0.43723  0.56397  0.92857  Biso   1.000  N
  H394     1.0000 0.46513  0.59077  0.90577  Biso   1.000  H
  C351     1.0000 0.45760  0.46456  0.55247  Biso   1.000  C
  C352     1.0000 0.46113  0.47657  0.41877  Biso   1.000  C
  H395     1.0000 0.43453  0.46067  0.36197  Biso   1.000  H
  C353     1.0000 0.49683  0.48845  0.63287  Biso   1.000  C
  H396     1.0000 0.49483  0.48067  0.72517  Biso   1.000  H
  C354     1.0000 0.41193  0.42687  0.61207  Biso   1.000  C
  H397     1.0000 0.41863  0.41287  0.69057  Biso   1.000  H
  H398     1.0000 0.39493  0.40177  0.54517  Biso   1.000  H
  C355     1.0000 0.34003  0.41027  0.72627  Biso   1.000  C
  H399     1.0000 0.32183  0.38307  0.66617  Biso   1.000  H
  H400     1.0000 0.35023  0.39907  0.80437  Biso   1.000  H
  C356     1.0000 0.30913  0.42897  0.77297  Biso   1.000  C
  C357     1.0000 0.27463  0.42797  0.69167  Biso   1.000  C
  H401     1.0000 0.27093  0.41497  0.60457  Biso   1.000  H
  N73      1.0000 0.46869  0.57930  0.60577  Biso   1.000  N
  C358     1.0000 0.45563  0.58467  0.48457  Biso   1.000  C
  H402     1.0000 0.42393  0.56497  0.45857  Biso   1.000  H
  C359     1.0000 0.48623  0.61757  0.39467  Biso   1.000  C
  H403     1.0000 0.47563  0.61977  0.30797  Biso   1.000  H
  C360     1.0000 0.31393  0.44817  0.90177  Biso   1.000  C
  H404     1.0000 0.33703  0.44987  0.96197  Biso   1.000  H
  C361     1.0000 0.47533  0.52367  0.02427  Biso   1.000  C
  C362     1.0000 0.52333  0.54817  0.99997  Biso   1.000  C
  H405     1.0000 0.53953  0.58147  0.99887  Biso   1.000  H
  C363     1.0000 0.45163  0.47517  0.02307  Biso   1.000  C
  H406     1.0000 0.41873  0.45797  0.03767  Biso   1.000  H
  C364     1.0000 0.44753  0.54817  0.05107  Biso   1.000  C
  H407     1.0000 0.46573  0.57527  0.11077  Biso   1.000  H
  H408     1.0000 0.41793  0.52627  0.09707  Biso   1.000  H
  C365     1.0000 0.40323  0.57987  0.94267  Biso   1.000  C
  H409     1.0000 0.37213  0.55277  0.95777  Biso   1.000  H
  H410     1.0000 0.41043  0.59967  0.01917  Biso   1.000  H
  C366     1.0000 0.40113  0.60397  0.82637  Biso   1.000  C
  C367     1.0000 0.42883  0.65057  0.80567  Biso   1.000  C
  H411     1.0000 0.45323  0.67087  0.87147  Biso   1.000  H
  N74      1.0000 0.42263  0.67047  0.69167  Biso   1.000  N
  C368     1.0000 0.38963  0.64257  0.60867  Biso   1.000  C
  H412     1.0000 0.38493  0.65767  0.53057  Biso   1.000  H
  C369     1.0000 0.43363  0.69357  0.71167  Biso   1.000  C
  H413     1.0000 0.43003  0.67077  0.77997  Biso   1.000  H
  C370     1.0000 0.36573  0.57527  0.72957  Biso   1.000  C
  H414     1.0000 0.34593  0.54197  0.74637  Biso   1.000  H
  H415     1.0000 0.40493  0.59597  0.86117  Biso   1.000  H
  H416     1.0000 0.37263  0.55117  0.93947  Biso   1.000  H
  C371     1.0000 0.39763  0.60727  0.04697  Biso   1.000  C
  C372     1.0000 0.37873  0.58677  0.17217  Biso   1.000  C
  H417     1.0000 0.36743  0.55367  0.18547  Biso   1.000  H
  N75      1.0000 0.37583  0.61127  0.27577  Biso   1.000  N
  C373     1.0000 0.39193  0.65677  0.24867  Biso   1.000  C
  H418     1.0000 0.39053  0.67527  0.32127  Biso   1.000  H
  C374     1.0000 0.40973  0.67907  0.12867  Biso   1.000  C
  H419     1.0000 0.41933  0.71197  0.11707  Biso   1.000  H
  C375     1.0000 0.41413  0.65407  0.02867  Biso   1.000  C
  H420     1.0000 0.42893  0.66927  0.94407  Biso   1.000  H
  Ag16     1.0000 0.15119  0.23929  0.08710  Biso   1.000  Ag
  N76      1.0000 0.22000  0.26872  0.98720  Biso   1.000  N
  H421     1.0000 0.21440  0.25180  0.90820  Biso   1.000  H
  N77      1.0000 0.10270  0.20660  0.26190  Biso   1.000  N
  H422     1.0000 0.07590  0.20770  0.23910  Biso   1.000  H
  C376     1.0000 0.20211  0.32638  0.88580  Biso   1.000  C
  C377     1.0000 0.19010  0.31790  0.75210  Biso   1.000  C
  H423     1.0000 0.20600  0.30720  0.69530  Biso   1.000  H
  C378     1.0000 0.17822  0.34172  0.96620  Biso   1.000  C
  H424     1.0000 0.18600  0.34750  0.05850  Biso   1.000  H
  C379     1.0000 0.23980  0.31840  0.94540  Biso   1.000  C
  H425     1.0000 0.25380  0.33910  0.02390  Biso   1.000  H
  H426     1.0000 0.26490  0.32650  0.87850  Biso   1.000  H
  C380     1.0000 0.25640  0.26310  0.05960  Biso   1.000  C
  H427     1.0000 0.28360  0.27210  0.99950  Biso   1.000  H
  H428     1.0000 0.26760  0.28450  0.13770  Biso   1.000  H
  C381     1.0000 0.23770  0.21350  0.10630  Biso   1.000  C
  C382     1.0000 0.23870  0.18000  0.02500  Biso   1.000  C
  H429     1.0000 0.25170  0.18930  0.93790  Biso   1.000  H
  N78      1.0000 0.08737  0.22273  0.93910  Biso   1.000  N
  C383     1.0000 0.08200  0.20430  0.81790  Biso   1.000  C
  H430     1.0000 0.10170  0.19230  0.79190  Biso   1.000  H
  C384     1.0000 0.04910  0.20200  0.72800  Biso   1.000  C
  H431     1.0000 0.04690  0.18920  0.64130  Biso   1.000  H
  C385     1.0000 0.21850  0.19910  0.23510  Biso   1.000  C
  H432     1.0000 0.21680  0.22050  0.29530  Biso   1.000  H
  C386     1.0000 0.14300  0.28500  0.35760  Biso   1.000  C
  C387     1.0000 0.11850  0.30850  0.33330  Biso   1.000  C
  H433     1.0000 0.08520  0.29140  0.33220  Biso   1.000  H
  C388     1.0000 0.19150  0.30980  0.35640  Biso   1.000  C
  H434     1.0000 0.20870  0.29410  0.37100  Biso   1.000  H
  C389     1.0000 0.11850  0.23270  0.38440  Biso   1.000  C
  H435     1.0000 0.09140  0.22380  0.44410  Biso   1.000  H
  H436     1.0000 0.14040  0.22500  0.43040  Biso   1.000  H
  C390     1.0000 0.08680  0.15670  0.27600  Biso   1.000  C
  H437     1.0000 0.11390  0.15270  0.29110  Biso   1.000  H
  H438     1.0000 0.06700  0.14410  0.35250  Biso   1.000  H
  C391     1.0000 0.06270  0.13050  0.15970  Biso   1.000  C
  C392     1.0000 0.01610  0.11160  0.13900  Biso   1.000  C
  H439     1.0000 0.99580  0.11570  0.20480  Biso   1.000  H
  N79      1.0000 0.99620  0.08550  0.02500  Biso   1.000  N
  C393     1.0000 0.02410  0.08040  0.94200  Biso   1.000  C
  H440     1.0000 0.00900  0.06060  0.86390  Biso   1.000  H
  C394     1.0000 0.97310  0.07340  0.04500  Biso   1.000  C
  H441     1.0000 0.99590  0.09260  0.11330  Biso   1.000  H
  C395     1.0000 0.09140  0.12380  0.06290  Biso   1.000  C
  H442     1.0000 0.12470  0.13730  0.07970  Biso   1.000  H
  H443     1.0000 0.07070  0.14230  0.19450  Biso   1.000  H
  H444     1.0000 0.11550  0.15480  0.27280  Biso   1.000  H
  C396     1.0000 0.05940  0.12370  0.38030  Biso   1.000  C
  C397     1.0000 0.07990  0.12530  0.50550  Biso   1.000  C
  H445     1.0000 0.11300  0.14710  0.51880  Biso   1.000  H
  N80      1.0000 0.05540  0.09790  0.60910  Biso   1.000  N
  C398     1.0000 0.00990  0.06850  0.58200  Biso   1.000  C
  H446     1.0000 0.99140  0.04860  0.65460  Biso   1.000  H
  C399     1.0000 0.98760  0.06400  0.46200  Biso   1.000  C
  H447     1.0000 0.95470  0.04070  0.45040  Biso   1.000  H
  C400     1.0000 0.01260  0.09340  0.36200  Biso   1.000  C
  H448     1.0000 0.99740  0.09300  0.27740  Biso   1.000  H
  Ag17     1.0000 0.81785  0.57262  0.42043  Biso   1.000  Ag
  N81      1.0000 0.88667  0.60205  0.32053  Biso   1.000  N
  H449     1.0000 0.88107  0.58513  0.24153  Biso   1.000  H
  N82      1.0000 0.76937  0.53993  0.59523  Biso   1.000  N
  H450     1.0000 0.74257  0.54103  0.57243  Biso   1.000  H
  C401     1.0000 0.86878  0.65971  0.21913  Biso   1.000  C
  C402     1.0000 0.85677  0.65123  0.08543  Biso   1.000  C
  H451     1.0000 0.87267  0.64053  0.02863  Biso   1.000  H
  C403     1.0000 0.84489  0.67505  0.29953  Biso   1.000  C
  H452     1.0000 0.85267  0.68083  0.39183  Biso   1.000  H
  C404     1.0000 0.90647  0.65173  0.27873  Biso   1.000  C
  H453     1.0000 0.92047  0.67243  0.35723  Biso   1.000  H
  H454     1.0000 0.93157  0.65983  0.21183  Biso   1.000  H
  C405     1.0000 0.92307  0.59643  0.39293  Biso   1.000  C
  H455     1.0000 0.95027  0.60543  0.33283  Biso   1.000  H
  H456     1.0000 0.93427  0.61783  0.47103  Biso   1.000  H
  C406     1.0000 0.90437  0.54683  0.43963  Biso   1.000  C
  C407     1.0000 0.90537  0.51333  0.35833  Biso   1.000  C
  H457     1.0000 0.91837  0.52263  0.27123  Biso   1.000  H
  N83      1.0000 0.75404  0.55606  0.27243  Biso   1.000  N
  C408     1.0000 0.74867  0.53763  0.15123  Biso   1.000  C
  H458     1.0000 0.76837  0.52563  0.12523  Biso   1.000  H
  C409     1.0000 0.71577  0.53533  0.06133  Biso   1.000  C
  H459     1.0000 0.71357  0.52253  0.97463  Biso   1.000  H
  C410     1.0000 0.88517  0.53243  0.56843  Biso   1.000  C
  H460     1.0000 0.88347  0.55383  0.62863  Biso   1.000  H
  C411     1.0000 0.80967  0.61833  0.69093  Biso   1.000  C
  C412     1.0000 0.78517  0.64183  0.66663  Biso   1.000  C
  H461     1.0000 0.75187  0.62473  0.66553  Biso   1.000  H
  C413     1.0000 0.85817  0.64313  0.68973  Biso   1.000  C
  H462     1.0000 0.87537  0.62743  0.70433  Biso   1.000  H
  C414     1.0000 0.78517  0.56603  0.71773  Biso   1.000  C
  H463     1.0000 0.75807  0.55713  0.77743  Biso   1.000  H
  H464     1.0000 0.80707  0.55833  0.76373  Biso   1.000  H
  C415     1.0000 0.75347  0.49003  0.60933  Biso   1.000  C
  H465     1.0000 0.78057  0.48603  0.62443  Biso   1.000  H
  H466     1.0000 0.73367  0.47743  0.68583  Biso   1.000  H
  C416     1.0000 0.72937  0.46383  0.49303  Biso   1.000  C
  C417     1.0000 0.68277  0.44493  0.47233  Biso   1.000  C
  H467     1.0000 0.66247  0.44903  0.53813  Biso   1.000  H
  N84      1.0000 0.66287  0.41883  0.35833  Biso   1.000  N
  C418     1.0000 0.69077  0.41373  0.27533  Biso   1.000  C
  H468     1.0000 0.67567  0.39393  0.19723  Biso   1.000  H
  C419     1.0000 0.63977  0.40673  0.37833  Biso   1.000  C
  H469     1.0000 0.66257  0.42593  0.44663  Biso   1.000  H
  C420     1.0000 0.75807  0.45713  0.39623  Biso   1.000  C
  H470     1.0000 0.79137  0.47063  0.41303  Biso   1.000  H
  H471     1.0000 0.73737  0.47563  0.52783  Biso   1.000  H
  H472     1.0000 0.78217  0.48813  0.60613  Biso   1.000  H
  C421     1.0000 0.72607  0.45703  0.71363  Biso   1.000  C
  C422     1.0000 0.74657  0.45863  0.83883  Biso   1.000  C
  H473     1.0000 0.77967  0.48043  0.85213  Biso   1.000  H
  N85      1.0000 0.72207  0.43123  0.94243  Biso   1.000  N
  C423     1.0000 0.67657  0.40183  0.91533  Biso   1.000  C
  H474     1.0000 0.65807  0.38193  0.98793  Biso   1.000  H
  C424     1.0000 0.65427  0.39733  0.79533  Biso   1.000  C
  H475     1.0000 0.62137  0.37403  0.78373  Biso   1.000  H
  C425     1.0000 0.67927  0.42673  0.69533  Biso   1.000  C
  H476     1.0000 0.66407  0.42633  0.61073  Biso   1.000  H
  Ag18     1.0000 0.48452  0.90595  0.75377  Biso   1.000  Ag
  N86      1.0000 0.55333  0.93539  0.65387  Biso   1.000  N
  H477     1.0000 0.54773  0.91847  0.57487  Biso   1.000  H
  N87      1.0000 0.43603  0.87327  0.92857  Biso   1.000  N
  H478     1.0000 0.40923  0.87437  0.90577  Biso   1.000  H
  C426     1.0000 0.53544  0.99305  0.55247  Biso   1.000  C
  C427     1.0000 0.52343  0.98457  0.41877  Biso   1.000  C
  H479     1.0000 0.53933  0.97387  0.36197  Biso   1.000  H
  C428     1.0000 0.51155  0.00839  0.63287  Biso   1.000  C
  H480     1.0000 0.51933  0.01417  0.72517  Biso   1.000  H
  C429     1.0000 0.57313  0.98507  0.61207  Biso   1.000  C
  H481     1.0000 0.58713  0.00577  0.69057  Biso   1.000  H
  H482     1.0000 0.59823  0.99317  0.54517  Biso   1.000  H
  C430     1.0000 0.58973  0.92977  0.72627  Biso   1.000  C
  H483     1.0000 0.61693  0.93877  0.66617  Biso   1.000  H
  H484     1.0000 0.60093  0.95117  0.80437  Biso   1.000  H
  C431     1.0000 0.57103  0.88017  0.77297  Biso   1.000  C
  C432     1.0000 0.57203  0.84667  0.69167  Biso   1.000  C
  H485     1.0000 0.58503  0.85597  0.60457  Biso   1.000  H
  N88      1.0000 0.42070  0.88940  0.60577  Biso   1.000  N
  C433     1.0000 0.41533  0.87097  0.48457  Biso   1.000  C
  H486     1.0000 0.43503  0.85897  0.45857  Biso   1.000  H
  C434     1.0000 0.38243  0.86867  0.39467  Biso   1.000  C
  H487     1.0000 0.38023  0.85587  0.30797  Biso   1.000  H
  C435     1.0000 0.55183  0.86577  0.90177  Biso   1.000  C
  H488     1.0000 0.55013  0.88717  0.96197  Biso   1.000  H
  C436     1.0000 0.47633  0.95167  0.02427  Biso   1.000  C
  C437     1.0000 0.45183  0.97517  0.99997  Biso   1.000  C
  H489     1.0000 0.41853  0.95807  0.99887  Biso   1.000  H
  C438     1.0000 0.52483  0.97647  0.02307  Biso   1.000  C
  H490     1.0000 0.54203  0.96077  0.03767  Biso   1.000  H
  C439     1.0000 0.45183  0.89937  0.05107  Biso   1.000  C
  H491     1.0000 0.42473  0.89047  0.11077  Biso   1.000  H
  H492     1.0000 0.47373  0.89167  0.09707  Biso   1.000  H
  C440     1.0000 0.42013  0.82337  0.94267  Biso   1.000  C
  H493     1.0000 0.44723  0.81937  0.95777  Biso   1.000  H
  H494     1.0000 0.40033  0.81077  0.01917  Biso   1.000  H
  C441     1.0000 0.39603  0.79717  0.82637  Biso   1.000  C
  C442     1.0000 0.34943  0.77827  0.80567  Biso   1.000  C
  H495     1.0000 0.32913  0.78237  0.87147  Biso   1.000  H
  N89      1.0000 0.32953  0.75217  0.69167  Biso   1.000  N
  C443     1.0000 0.35743  0.74707  0.60867  Biso   1.000  C
  H496     1.0000 0.34233  0.72727  0.53057  Biso   1.000  H
  C444     1.0000 0.30643  0.74007  0.71167  Biso   1.000  C
  H497     1.0000 0.32923  0.75927  0.77997  Biso   1.000  H
  C445     1.0000 0.42473  0.79047  0.72957  Biso   1.000  C
  H498     1.0000 0.45803  0.80397  0.74637  Biso   1.000  H
  H499     1.0000 0.40403  0.80897  0.86117  Biso   1.000  H
  H500     1.0000 0.44883  0.82147  0.93947  Biso   1.000  H
  C446     1.0000 0.39273  0.79037  0.04697  Biso   1.000  C
  C447     1.0000 0.41323  0.79197  0.17217  Biso   1.000  C
  H501     1.0000 0.44633  0.81377  0.18547  Biso   1.000  H
  N90      1.0000 0.38873  0.76457  0.27577  Biso   1.000  N
  C448     1.0000 0.34323  0.73517  0.24867  Biso   1.000  C
  H502     1.0000 0.32473  0.71527  0.32127  Biso   1.000  H
  C449     1.0000 0.32093  0.73067  0.12867  Biso   1.000  C
  H503     1.0000 0.28803  0.70737  0.11707  Biso   1.000  H
  C450     1.0000 0.34593  0.76007  0.02867  Biso   1.000  C
  H504     1.0000 0.33073  0.75967  0.94407  Biso   1.000  H
