data_image0
_cell_length_a       18.348
_cell_length_b       18.348
_cell_length_c       65.094
_cell_angle_alpha    90
_cell_angle_beta     90
_cell_angle_gamma    120

_symmetry_space_group_name_H-M    "P 1"
_symmetry_int_tables_number       1

loop_
  _symmetry_equiv_pos_as_xyz
  'x, y, z'

loop_
  _atom_site_label
  _atom_site_occupancy
  _atom_site_fract_x
  _atom_site_fract_y
  _atom_site_fract_z
  _atom_site_thermal_displace_type
  _atom_site_B_iso_or_equiv
  _atom_site_type_symbol
  C1       1.0000 0.90990  0.36310  0.60060  Biso   1.000  C
  C2       1.0000 0.84040  0.29180  0.61160  Biso   1.000  C
  C3       1.0000 0.83640  0.29040  0.63320  Biso   1.000  C
  H1       1.0000 0.87590  0.33860  0.64060  Biso   1.000  H
  C4       1.0000 0.84560  0.28120  0.67740  Biso   1.000  C
  C5       1.0000 0.84930  0.28400  0.69870  Biso   1.000  C
  C6       1.0000 0.77700  0.23600  0.71020  Biso   1.000  C
  C7       1.0000 0.85200  0.27590  0.74240  Biso   1.000  C
  C8       1.0000 0.85680  0.27110  0.76360  Biso   1.000  C
  C9       1.0000 0.78700  0.09910  0.80370  Biso   1.000  C
  C10      1.0000 0.79190  0.08440  0.82440  Biso   1.000  C
  C11      1.0000 0.82850  0.15200  0.83806  Biso   1.000  C
  C12      1.0000 0.76620  0.14030  0.83100  Biso   1.000  C
  C13      1.0000 0.85470  0.24840  0.81020  Biso   1.000  C
  C14      1.0000 0.92560  0.20400  0.87030  Biso   1.000  C
  H2       1.0000 0.96500  0.25480  0.86360  Biso   1.000  H
  C15      1.0000 0.93990  0.18460  0.89060  Biso   1.000  C
  C16      1.0000 0.02600  0.23920  0.89980  Biso   1.000  C
  O1       1.0000 0.97600  0.41390  0.60994  Biso   1.000  O
  O2       1.0000 0.88880  0.37100  0.58205  Biso   1.000  O
  O3       1.0000 0.03710  0.22570  0.91699  Biso   1.000  O
  O4       1.0000 0.07720  0.30390  0.88950  Biso   1.000  O
  C17      1.0000 0.57657  0.69643  0.93393  Biso   1.000  C
  C18      1.0000 0.50707  0.62513  0.94493  Biso   1.000  C
  C19      1.0000 0.50307  0.62373  0.96653  Biso   1.000  C
  H3       1.0000 0.54257  0.67193  0.97393  Biso   1.000  H
  C20      1.0000 0.51227  0.61453  0.01073  Biso   1.000  C
  C21      1.0000 0.51597  0.61733  0.03203  Biso   1.000  C
  C22      1.0000 0.44367  0.56933  0.04353  Biso   1.000  C
  C23      1.0000 0.51867  0.60923  0.07573  Biso   1.000  C
  C24      1.0000 0.52347  0.60443  0.09693  Biso   1.000  C
  C25      1.0000 0.45367  0.43243  0.13703  Biso   1.000  C
  C26      1.0000 0.45857  0.41773  0.15773  Biso   1.000  C
  C27      1.0000 0.49517  0.48533  0.17139  Biso   1.000  C
  C28      1.0000 0.43287  0.47363  0.16433  Biso   1.000  C
  C29      1.0000 0.52137  0.58173  0.14353  Biso   1.000  C
  C30      1.0000 0.59227  0.53733  0.20363  Biso   1.000  C
  H4       1.0000 0.63167  0.58813  0.19693  Biso   1.000  H
  C31      1.0000 0.60657  0.51793  0.22393  Biso   1.000  C
  C32      1.0000 0.69267  0.57253  0.23313  Biso   1.000  C
  O5       1.0000 0.64267  0.74723  0.94327  Biso   1.000  O
  O6       1.0000 0.55547  0.70433  0.91538  Biso   1.000  O
  O7       1.0000 0.70377  0.55903  0.25032  Biso   1.000  O
  O8       1.0000 0.74387  0.63723  0.22283  Biso   1.000  O
  C33      1.0000 0.24323  0.02977  0.26727  Biso   1.000  C
  C34      1.0000 0.17373  0.95847  0.27827  Biso   1.000  C
  C35      1.0000 0.16973  0.95707  0.29987  Biso   1.000  C
  H5       1.0000 0.20923  0.00527  0.30727  Biso   1.000  H
  C36      1.0000 0.17893  0.94787  0.34407  Biso   1.000  C
  C37      1.0000 0.18263  0.95067  0.36537  Biso   1.000  C
  C38      1.0000 0.11033  0.90267  0.37687  Biso   1.000  C
  C39      1.0000 0.18533  0.94257  0.40907  Biso   1.000  C
  C40      1.0000 0.19013  0.93777  0.43027  Biso   1.000  C
  C41      1.0000 0.12033  0.76577  0.47037  Biso   1.000  C
  C42      1.0000 0.12523  0.75107  0.49107  Biso   1.000  C
  C43      1.0000 0.16183  0.81867  0.50473  Biso   1.000  C
  C44      1.0000 0.09953  0.80697  0.49767  Biso   1.000  C
  C45      1.0000 0.18803  0.91507  0.47687  Biso   1.000  C
  C46      1.0000 0.25893  0.87067  0.53697  Biso   1.000  C
  H6       1.0000 0.29833  0.92147  0.53027  Biso   1.000  H
  C47      1.0000 0.27323  0.85127  0.55727  Biso   1.000  C
  C48      1.0000 0.35933  0.90587  0.56647  Biso   1.000  C
  O9       1.0000 0.30933  0.08057  0.27661  Biso   1.000  O
  O10      1.0000 0.22213  0.03767  0.24872  Biso   1.000  O
  O11      1.0000 0.37043  0.89237  0.58366  Biso   1.000  O
  O12      1.0000 0.41053  0.97057  0.55617  Biso   1.000  O
  C49      1.0000 0.63690  0.54680  0.60060  Biso   1.000  C
  C50      1.0000 0.70820  0.54860  0.61160  Biso   1.000  C
  C51      1.0000 0.70960  0.54600  0.63320  Biso   1.000  C
  H7       1.0000 0.66140  0.53730  0.64060  Biso   1.000  H
  C52      1.0000 0.71880  0.56440  0.67740  Biso   1.000  C
  C53      1.0000 0.71600  0.56530  0.69870  Biso   1.000  C
  C54      1.0000 0.76400  0.54100  0.71020  Biso   1.000  C
  C55      1.0000 0.72410  0.57610  0.74240  Biso   1.000  C
  C56      1.0000 0.72890  0.58570  0.76360  Biso   1.000  C
  C57      1.0000 0.90090  0.68790  0.80370  Biso   1.000  C
  C58      1.0000 0.91560  0.70750  0.82440  Biso   1.000  C
  C59      1.0000 0.84800  0.67650  0.83806  Biso   1.000  C
  C60      1.0000 0.85970  0.62590  0.83100  Biso   1.000  C
  C61      1.0000 0.75160  0.60630  0.81020  Biso   1.000  C
  C62      1.0000 0.79600  0.72160  0.87030  Biso   1.000  C
  H8       1.0000 0.74520  0.71020  0.86360  Biso   1.000  H
  C63      1.0000 0.81540  0.75530  0.89060  Biso   1.000  C
  C64      1.0000 0.76080  0.78680  0.89980  Biso   1.000  C
  O13      1.0000 0.58610  0.56210  0.60994  Biso   1.000  O
  O14      1.0000 0.62900  0.51780  0.58205  Biso   1.000  O
  O15      1.0000 0.77430  0.81140  0.91699  Biso   1.000  O
  O16      1.0000 0.69610  0.77330  0.88950  Biso   1.000  O
  C65      1.0000 0.30357  0.88013  0.93393  Biso   1.000  C
  C66      1.0000 0.37487  0.88193  0.94493  Biso   1.000  C
  C67      1.0000 0.37627  0.87933  0.96653  Biso   1.000  C
  H9       1.0000 0.32807  0.87063  0.97393  Biso   1.000  H
  C68      1.0000 0.38547  0.89773  0.01073  Biso   1.000  C
  C69      1.0000 0.38267  0.89863  0.03203  Biso   1.000  C
  C70      1.0000 0.43067  0.87433  0.04353  Biso   1.000  C
  C71      1.0000 0.39077  0.90943  0.07573  Biso   1.000  C
  C72      1.0000 0.39557  0.91903  0.09693  Biso   1.000  C
  C73      1.0000 0.56757  0.02123  0.13703  Biso   1.000  C
  C74      1.0000 0.58227  0.04083  0.15773  Biso   1.000  C
  C75      1.0000 0.51467  0.00983  0.17139  Biso   1.000  C
  C76      1.0000 0.52637  0.95923  0.16433  Biso   1.000  C
  C77      1.0000 0.41827  0.93963  0.14353  Biso   1.000  C
  C78      1.0000 0.46267  0.05493  0.20363  Biso   1.000  C
  H10      1.0000 0.41187  0.04353  0.19693  Biso   1.000  H
  C79      1.0000 0.48207  0.08863  0.22393  Biso   1.000  C
  C80      1.0000 0.42747  0.12013  0.23313  Biso   1.000  C
  O17      1.0000 0.25277  0.89543  0.94327  Biso   1.000  O
  O18      1.0000 0.29567  0.85113  0.91538  Biso   1.000  O
  O19      1.0000 0.44097  0.14473  0.25032  Biso   1.000  O
  O20      1.0000 0.36277  0.10663  0.22283  Biso   1.000  O
  C81      1.0000 0.97023  0.21347  0.26727  Biso   1.000  C
  C82      1.0000 0.04153  0.21527  0.27827  Biso   1.000  C
  C83      1.0000 0.04293  0.21267  0.29987  Biso   1.000  C
  H11      1.0000 0.99473  0.20397  0.30727  Biso   1.000  H
  C84      1.0000 0.05213  0.23107  0.34407  Biso   1.000  C
  C85      1.0000 0.04933  0.23197  0.36537  Biso   1.000  C
  C86      1.0000 0.09733  0.20767  0.37687  Biso   1.000  C
  C87      1.0000 0.05743  0.24277  0.40907  Biso   1.000  C
  C88      1.0000 0.06223  0.25237  0.43027  Biso   1.000  C
  C89      1.0000 0.23423  0.35457  0.47037  Biso   1.000  C
  C90      1.0000 0.24893  0.37417  0.49107  Biso   1.000  C
  C91      1.0000 0.18133  0.34317  0.50473  Biso   1.000  C
  C92      1.0000 0.19303  0.29257  0.49767  Biso   1.000  C
  C93      1.0000 0.08493  0.27297  0.47687  Biso   1.000  C
  C94      1.0000 0.12933  0.38827  0.53697  Biso   1.000  C
  H12      1.0000 0.07853  0.37687  0.53027  Biso   1.000  H
  C95      1.0000 0.14873  0.42197  0.55727  Biso   1.000  C
  C96      1.0000 0.09413  0.45347  0.56647  Biso   1.000  C
  O21      1.0000 0.91943  0.22877  0.27661  Biso   1.000  O
  O22      1.0000 0.96233  0.18447  0.24872  Biso   1.000  O
  O23      1.0000 0.10763  0.47807  0.58366  Biso   1.000  O
  O24      1.0000 0.02943  0.43997  0.55617  Biso   1.000  O
  C97      1.0000 0.45320  0.09010  0.60060  Biso   1.000  C
  C98      1.0000 0.45140  0.15960  0.61160  Biso   1.000  C
  C99      1.0000 0.45400  0.16360  0.63320  Biso   1.000  C
  H13      1.0000 0.46270  0.12410  0.64060  Biso   1.000  H
  C100     1.0000 0.43560  0.15440  0.67740  Biso   1.000  C
  C101     1.0000 0.43470  0.15070  0.69870  Biso   1.000  C
  C102     1.0000 0.45900  0.22300  0.71020  Biso   1.000  C
  C103     1.0000 0.42390  0.14800  0.74240  Biso   1.000  C
  C104     1.0000 0.41430  0.14320  0.76360  Biso   1.000  C
  C105     1.0000 0.31210  0.21300  0.80370  Biso   1.000  C
  C106     1.0000 0.29250  0.20810  0.82440  Biso   1.000  C
  C107     1.0000 0.32350  0.17150  0.83806  Biso   1.000  C
  C108     1.0000 0.37410  0.23380  0.83100  Biso   1.000  C
  C109     1.0000 0.39370  0.14530  0.81020  Biso   1.000  C
  C110     1.0000 0.27840  0.07440  0.87030  Biso   1.000  C
  H14      1.0000 0.28980  0.03500  0.86360  Biso   1.000  H
  C111     1.0000 0.24470  0.06010  0.89060  Biso   1.000  C
  C112     1.0000 0.21320  0.97400  0.89980  Biso   1.000  C
  O25      1.0000 0.43790  0.02400  0.60994  Biso   1.000  O
  O26      1.0000 0.48220  0.11120  0.58205  Biso   1.000  O
  O27      1.0000 0.18860  0.96290  0.91699  Biso   1.000  O
  O28      1.0000 0.22670  0.92280  0.88950  Biso   1.000  O
  C113     1.0000 0.11987  0.42343  0.93393  Biso   1.000  C
  C114     1.0000 0.11807  0.49293  0.94493  Biso   1.000  C
  C115     1.0000 0.12067  0.49693  0.96653  Biso   1.000  C
  H15      1.0000 0.12937  0.45743  0.97393  Biso   1.000  H
  C116     1.0000 0.10227  0.48773  0.01073  Biso   1.000  C
  C117     1.0000 0.10137  0.48403  0.03203  Biso   1.000  C
  C118     1.0000 0.12567  0.55633  0.04353  Biso   1.000  C
  C119     1.0000 0.09057  0.48133  0.07573  Biso   1.000  C
  C120     1.0000 0.08097  0.47653  0.09693  Biso   1.000  C
  C121     1.0000 0.97877  0.54633  0.13703  Biso   1.000  C
  C122     1.0000 0.95917  0.54143  0.15773  Biso   1.000  C
  C123     1.0000 0.99017  0.50483  0.17139  Biso   1.000  C
  C124     1.0000 0.04077  0.56713  0.16433  Biso   1.000  C
  C125     1.0000 0.06037  0.47863  0.14353  Biso   1.000  C
  C126     1.0000 0.94507  0.40773  0.20363  Biso   1.000  C
  H16      1.0000 0.95647  0.36833  0.19693  Biso   1.000  H
  C127     1.0000 0.91137  0.39343  0.22393  Biso   1.000  C
  C128     1.0000 0.87987  0.30733  0.23313  Biso   1.000  C
  O29      1.0000 0.10457  0.35733  0.94327  Biso   1.000  O
  O30      1.0000 0.14887  0.44453  0.91538  Biso   1.000  O
  O31      1.0000 0.85527  0.29623  0.25032  Biso   1.000  O
  O32      1.0000 0.89337  0.25613  0.22283  Biso   1.000  O
  C129     1.0000 0.78653  0.75677  0.26727  Biso   1.000  C
  C130     1.0000 0.78473  0.82627  0.27827  Biso   1.000  C
  C131     1.0000 0.78733  0.83027  0.29987  Biso   1.000  C
  H17      1.0000 0.79603  0.79077  0.30727  Biso   1.000  H
  C132     1.0000 0.76893  0.82107  0.34407  Biso   1.000  C
  C133     1.0000 0.76803  0.81737  0.36537  Biso   1.000  C
  C134     1.0000 0.79233  0.88967  0.37687  Biso   1.000  C
  C135     1.0000 0.75723  0.81467  0.40907  Biso   1.000  C
  C136     1.0000 0.74763  0.80987  0.43027  Biso   1.000  C
  C137     1.0000 0.64543  0.87967  0.47037  Biso   1.000  C
  C138     1.0000 0.62583  0.87477  0.49107  Biso   1.000  C
  C139     1.0000 0.65683  0.83817  0.50473  Biso   1.000  C
  C140     1.0000 0.70743  0.90047  0.49767  Biso   1.000  C
  C141     1.0000 0.72703  0.81197  0.47687  Biso   1.000  C
  C142     1.0000 0.61173  0.74107  0.53697  Biso   1.000  C
  H18      1.0000 0.62313  0.70167  0.53027  Biso   1.000  H
  C143     1.0000 0.57803  0.72677  0.55727  Biso   1.000  C
  C144     1.0000 0.54653  0.64067  0.56647  Biso   1.000  C
  O33      1.0000 0.77123  0.69067  0.27661  Biso   1.000  O
  O34      1.0000 0.81553  0.77787  0.24872  Biso   1.000  O
  O35      1.0000 0.52193  0.62957  0.58366  Biso   1.000  O
  O36      1.0000 0.56003  0.58947  0.55617  Biso   1.000  O
  C145     1.0000 0.63690  0.09010  0.60060  Biso   1.000  C
  C146     1.0000 0.70820  0.15960  0.61160  Biso   1.000  C
  C147     1.0000 0.70960  0.16360  0.63320  Biso   1.000  C
  H19      1.0000 0.66140  0.12410  0.64060  Biso   1.000  H
  C148     1.0000 0.71880  0.15440  0.67740  Biso   1.000  C
  C149     1.0000 0.71600  0.15070  0.69870  Biso   1.000  C
  C150     1.0000 0.76400  0.22300  0.71020  Biso   1.000  C
  C151     1.0000 0.72410  0.14800  0.74240  Biso   1.000  C
  C152     1.0000 0.72890  0.14320  0.76360  Biso   1.000  C
  C153     1.0000 0.90090  0.21300  0.80370  Biso   1.000  C
  C154     1.0000 0.91560  0.20810  0.82440  Biso   1.000  C
  C155     1.0000 0.84800  0.17150  0.83806  Biso   1.000  C
  C156     1.0000 0.85970  0.23380  0.83100  Biso   1.000  C
  C157     1.0000 0.75160  0.14530  0.81020  Biso   1.000  C
  C158     1.0000 0.79600  0.07440  0.87030  Biso   1.000  C
  H20      1.0000 0.74520  0.03500  0.86360  Biso   1.000  H
  C159     1.0000 0.81540  0.06010  0.89060  Biso   1.000  C
  C160     1.0000 0.76080  0.97400  0.89980  Biso   1.000  C
  O37      1.0000 0.58610  0.02400  0.60994  Biso   1.000  O
  O38      1.0000 0.62900  0.11120  0.58205  Biso   1.000  O
  O39      1.0000 0.77430  0.96290  0.91699  Biso   1.000  O
  O40      1.0000 0.69610  0.92280  0.88950  Biso   1.000  O
  C161     1.0000 0.30357  0.42343  0.93393  Biso   1.000  C
  C162     1.0000 0.37487  0.49293  0.94493  Biso   1.000  C
  C163     1.0000 0.37627  0.49693  0.96653  Biso   1.000  C
  H21      1.0000 0.32807  0.45743  0.97393  Biso   1.000  H
  C164     1.0000 0.38547  0.48773  0.01073  Biso   1.000  C
  C165     1.0000 0.38267  0.48403  0.03203  Biso   1.000  C
  C166     1.0000 0.43067  0.55633  0.04353  Biso   1.000  C
  C167     1.0000 0.39077  0.48133  0.07573  Biso   1.000  C
  C168     1.0000 0.39557  0.47653  0.09693  Biso   1.000  C
  C169     1.0000 0.56757  0.54633  0.13703  Biso   1.000  C
  C170     1.0000 0.58227  0.54143  0.15773  Biso   1.000  C
  C171     1.0000 0.51467  0.50483  0.17139  Biso   1.000  C
  C172     1.0000 0.52637  0.56713  0.16433  Biso   1.000  C
  C173     1.0000 0.41827  0.47863  0.14353  Biso   1.000  C
  C174     1.0000 0.46267  0.40773  0.20363  Biso   1.000  C
  H22      1.0000 0.41187  0.36833  0.19693  Biso   1.000  H
  C175     1.0000 0.48207  0.39343  0.22393  Biso   1.000  C
  C176     1.0000 0.42747  0.30733  0.23313  Biso   1.000  C
  O41      1.0000 0.25277  0.35733  0.94327  Biso   1.000  O
  O42      1.0000 0.29567  0.44453  0.91538  Biso   1.000  O
  O43      1.0000 0.44097  0.29623  0.25032  Biso   1.000  O
  O44      1.0000 0.36277  0.25613  0.22283  Biso   1.000  O
  C177     1.0000 0.97023  0.75677  0.26727  Biso   1.000  C
  C178     1.0000 0.04153  0.82627  0.27827  Biso   1.000  C
  C179     1.0000 0.04293  0.83027  0.29987  Biso   1.000  C
  H23      1.0000 0.99473  0.79077  0.30727  Biso   1.000  H
  C180     1.0000 0.05213  0.82107  0.34407  Biso   1.000  C
  C181     1.0000 0.04933  0.81737  0.36537  Biso   1.000  C
  C182     1.0000 0.09733  0.88967  0.37687  Biso   1.000  C
  C183     1.0000 0.05743  0.81467  0.40907  Biso   1.000  C
  C184     1.0000 0.06223  0.80987  0.43027  Biso   1.000  C
  C185     1.0000 0.23423  0.87967  0.47037  Biso   1.000  C
  C186     1.0000 0.24893  0.87477  0.49107  Biso   1.000  C
  C187     1.0000 0.18133  0.83817  0.50473  Biso   1.000  C
  C188     1.0000 0.19303  0.90047  0.49767  Biso   1.000  C
  C189     1.0000 0.08493  0.81197  0.47687  Biso   1.000  C
  C190     1.0000 0.12933  0.74107  0.53697  Biso   1.000  C
  H24      1.0000 0.07853  0.70167  0.53027  Biso   1.000  H
  C191     1.0000 0.14873  0.72677  0.55727  Biso   1.000  C
  C192     1.0000 0.09413  0.64067  0.56647  Biso   1.000  C
  O45      1.0000 0.91943  0.69067  0.27661  Biso   1.000  O
  O46      1.0000 0.96233  0.77787  0.24872  Biso   1.000  O
  O47      1.0000 0.10763  0.62957  0.58366  Biso   1.000  O
  O48      1.0000 0.02943  0.58947  0.55617  Biso   1.000  O
  C193     1.0000 0.45320  0.36310  0.60060  Biso   1.000  C
  C194     1.0000 0.45140  0.29180  0.61160  Biso   1.000  C
  C195     1.0000 0.45400  0.29040  0.63320  Biso   1.000  C
  H25      1.0000 0.46270  0.33860  0.64060  Biso   1.000  H
  C196     1.0000 0.43560  0.28120  0.67740  Biso   1.000  C
  C197     1.0000 0.43470  0.28400  0.69870  Biso   1.000  C
  C198     1.0000 0.45900  0.23600  0.71020  Biso   1.000  C
  C199     1.0000 0.42390  0.27590  0.74240  Biso   1.000  C
  C200     1.0000 0.41430  0.27110  0.76360  Biso   1.000  C
  C201     1.0000 0.31210  0.09910  0.80370  Biso   1.000  C
  C202     1.0000 0.29250  0.08440  0.82440  Biso   1.000  C
  C203     1.0000 0.32350  0.15200  0.83806  Biso   1.000  C
  C204     1.0000 0.37410  0.14030  0.83100  Biso   1.000  C
  C205     1.0000 0.39370  0.24840  0.81020  Biso   1.000  C
  C206     1.0000 0.27840  0.20400  0.87030  Biso   1.000  C
  H26      1.0000 0.28980  0.25480  0.86360  Biso   1.000  H
  C207     1.0000 0.24470  0.18460  0.89060  Biso   1.000  C
  C208     1.0000 0.21320  0.23920  0.89980  Biso   1.000  C
  O49      1.0000 0.43790  0.41390  0.60994  Biso   1.000  O
  O50      1.0000 0.48220  0.37100  0.58205  Biso   1.000  O
  O51      1.0000 0.18860  0.22570  0.91699  Biso   1.000  O
  O52      1.0000 0.22670  0.30390  0.88950  Biso   1.000  O
  C209     1.0000 0.11987  0.69643  0.93393  Biso   1.000  C
  C210     1.0000 0.11807  0.62513  0.94493  Biso   1.000  C
  C211     1.0000 0.12067  0.62373  0.96653  Biso   1.000  C
  H27      1.0000 0.12937  0.67193  0.97393  Biso   1.000  H
  C212     1.0000 0.10227  0.61453  0.01073  Biso   1.000  C
  C213     1.0000 0.10137  0.61733  0.03203  Biso   1.000  C
  C214     1.0000 0.12567  0.56933  0.04353  Biso   1.000  C
  C215     1.0000 0.09057  0.60923  0.07573  Biso   1.000  C
  C216     1.0000 0.08097  0.60443  0.09693  Biso   1.000  C
  C217     1.0000 0.97877  0.43243  0.13703  Biso   1.000  C
  C218     1.0000 0.95917  0.41773  0.15773  Biso   1.000  C
  C219     1.0000 0.99017  0.48533  0.17139  Biso   1.000  C
  C220     1.0000 0.04077  0.47363  0.16433  Biso   1.000  C
  C221     1.0000 0.06037  0.58173  0.14353  Biso   1.000  C
  C222     1.0000 0.94507  0.53733  0.20363  Biso   1.000  C
  H28      1.0000 0.95647  0.58813  0.19693  Biso   1.000  H
  C223     1.0000 0.91137  0.51793  0.22393  Biso   1.000  C
  C224     1.0000 0.87987  0.57253  0.23313  Biso   1.000  C
  O53      1.0000 0.10457  0.74723  0.94327  Biso   1.000  O
  O54      1.0000 0.14887  0.70433  0.91538  Biso   1.000  O
  O55      1.0000 0.85527  0.55903  0.25032  Biso   1.000  O
  O56      1.0000 0.89337  0.63723  0.22283  Biso   1.000  O
  C225     1.0000 0.78653  0.02977  0.26727  Biso   1.000  C
  C226     1.0000 0.78473  0.95847  0.27827  Biso   1.000  C
  C227     1.0000 0.78733  0.95707  0.29987  Biso   1.000  C
  H29      1.0000 0.79603  0.00527  0.30727  Biso   1.000  H
  C228     1.0000 0.76893  0.94787  0.34407  Biso   1.000  C
  C229     1.0000 0.76803  0.95067  0.36537  Biso   1.000  C
  C230     1.0000 0.79233  0.90267  0.37687  Biso   1.000  C
  C231     1.0000 0.75723  0.94257  0.40907  Biso   1.000  C
  C232     1.0000 0.74763  0.93777  0.43027  Biso   1.000  C
  C233     1.0000 0.64543  0.76577  0.47037  Biso   1.000  C
  C234     1.0000 0.62583  0.75107  0.49107  Biso   1.000  C
  C235     1.0000 0.65683  0.81867  0.50473  Biso   1.000  C
  C236     1.0000 0.70743  0.80697  0.49767  Biso   1.000  C
  C237     1.0000 0.72703  0.91507  0.47687  Biso   1.000  C
  C238     1.0000 0.61173  0.87067  0.53697  Biso   1.000  C
  H30      1.0000 0.62313  0.92147  0.53027  Biso   1.000  H
  C239     1.0000 0.57803  0.85127  0.55727  Biso   1.000  C
  C240     1.0000 0.54653  0.90587  0.56647  Biso   1.000  C
  O57      1.0000 0.77123  0.08057  0.27661  Biso   1.000  O
  O58      1.0000 0.81553  0.03767  0.24872  Biso   1.000  O
  O59      1.0000 0.52193  0.89237  0.58366  Biso   1.000  O
  O60      1.0000 0.56003  0.97057  0.55617  Biso   1.000  O
  C241     1.0000 0.90990  0.54680  0.60060  Biso   1.000  C
  C242     1.0000 0.84040  0.54860  0.61160  Biso   1.000  C
  C243     1.0000 0.83640  0.54600  0.63320  Biso   1.000  C
  H31      1.0000 0.87590  0.53730  0.64060  Biso   1.000  H
  C244     1.0000 0.84560  0.56440  0.67740  Biso   1.000  C
  C245     1.0000 0.84930  0.56530  0.69870  Biso   1.000  C
  C246     1.0000 0.77700  0.54100  0.71020  Biso   1.000  C
  C247     1.0000 0.85200  0.57610  0.74240  Biso   1.000  C
  C248     1.0000 0.85680  0.58570  0.76360  Biso   1.000  C
  C249     1.0000 0.78700  0.68790  0.80370  Biso   1.000  C
  C250     1.0000 0.79190  0.70750  0.82440  Biso   1.000  C
  C251     1.0000 0.82850  0.67650  0.83806  Biso   1.000  C
  C252     1.0000 0.76620  0.62590  0.83100  Biso   1.000  C
  C253     1.0000 0.85470  0.60630  0.81020  Biso   1.000  C
  C254     1.0000 0.92560  0.72160  0.87030  Biso   1.000  C
  H32      1.0000 0.96500  0.71020  0.86360  Biso   1.000  H
  C255     1.0000 0.93990  0.75530  0.89060  Biso   1.000  C
  C256     1.0000 0.02600  0.78680  0.89980  Biso   1.000  C
  O61      1.0000 0.97600  0.56210  0.60994  Biso   1.000  O
  O62      1.0000 0.88880  0.51780  0.58205  Biso   1.000  O
  O63      1.0000 0.03710  0.81140  0.91699  Biso   1.000  O
  O64      1.0000 0.07720  0.77330  0.88950  Biso   1.000  O
  C257     1.0000 0.57657  0.88013  0.93393  Biso   1.000  C
  C258     1.0000 0.50707  0.88193  0.94493  Biso   1.000  C
  C259     1.0000 0.50307  0.87933  0.96653  Biso   1.000  C
  H33      1.0000 0.54257  0.87063  0.97393  Biso   1.000  H
  C260     1.0000 0.51227  0.89773  0.01073  Biso   1.000  C
  C261     1.0000 0.51597  0.89863  0.03203  Biso   1.000  C
  C262     1.0000 0.44367  0.87433  0.04353  Biso   1.000  C
  C263     1.0000 0.51867  0.90943  0.07573  Biso   1.000  C
  C264     1.0000 0.52347  0.91903  0.09693  Biso   1.000  C
  C265     1.0000 0.45367  0.02123  0.13703  Biso   1.000  C
  C266     1.0000 0.45857  0.04083  0.15773  Biso   1.000  C
  C267     1.0000 0.49517  0.00983  0.17139  Biso   1.000  C
  C268     1.0000 0.43287  0.95923  0.16433  Biso   1.000  C
  C269     1.0000 0.52137  0.93963  0.14353  Biso   1.000  C
  C270     1.0000 0.59227  0.05493  0.20363  Biso   1.000  C
  H34      1.0000 0.63167  0.04353  0.19693  Biso   1.000  H
  C271     1.0000 0.60657  0.08863  0.22393  Biso   1.000  C
  C272     1.0000 0.69267  0.12013  0.23313  Biso   1.000  C
  O65      1.0000 0.64267  0.89543  0.94327  Biso   1.000  O
  O66      1.0000 0.55547  0.85113  0.91538  Biso   1.000  O
  O67      1.0000 0.70377  0.14473  0.25032  Biso   1.000  O
  O68      1.0000 0.74387  0.10663  0.22283  Biso   1.000  O
  C273     1.0000 0.24323  0.21347  0.26727  Biso   1.000  C
  C274     1.0000 0.17373  0.21527  0.27827  Biso   1.000  C
  C275     1.0000 0.16973  0.21267  0.29987  Biso   1.000  C
  H35      1.0000 0.20923  0.20397  0.30727  Biso   1.000  H
  C276     1.0000 0.17893  0.23107  0.34407  Biso   1.000  C
  C277     1.0000 0.18263  0.23197  0.36537  Biso   1.000  C
  C278     1.0000 0.11033  0.20767  0.37687  Biso   1.000  C
  C279     1.0000 0.18533  0.24277  0.40907  Biso   1.000  C
  C280     1.0000 0.19013  0.25237  0.43027  Biso   1.000  C
  C281     1.0000 0.12033  0.35457  0.47037  Biso   1.000  C
  C282     1.0000 0.12523  0.37417  0.49107  Biso   1.000  C
  C283     1.0000 0.16183  0.34317  0.50473  Biso   1.000  C
  C284     1.0000 0.09953  0.29257  0.49767  Biso   1.000  C
  C285     1.0000 0.18803  0.27297  0.47687  Biso   1.000  C
  C286     1.0000 0.25893  0.38827  0.53697  Biso   1.000  C
  H36      1.0000 0.29833  0.37687  0.53027  Biso   1.000  H
  C287     1.0000 0.27323  0.42197  0.55727  Biso   1.000  C
  C288     1.0000 0.35933  0.45347  0.56647  Biso   1.000  C
  O69      1.0000 0.30933  0.22877  0.27661  Biso   1.000  O
  O70      1.0000 0.22213  0.18447  0.24872  Biso   1.000  O
  O71      1.0000 0.37043  0.47807  0.58366  Biso   1.000  O
  O72      1.0000 0.41053  0.43997  0.55617  Biso   1.000  O
  Cu1      1.0000 0.94955  0.47477  0.56663  Biso   1.000  Cu
  Cu2      1.0000 0.04869  0.52435  0.59950  Biso   1.000  Cu
  Cu3      1.0000 0.61622  0.80811  0.89996  Biso   1.000  Cu
  Cu4      1.0000 0.71536  0.85768  0.93283  Biso   1.000  Cu
  Cu5      1.0000 0.28288  0.14144  0.23330  Biso   1.000  Cu
  Cu6      1.0000 0.38202  0.19101  0.26617  Biso   1.000  Cu
  Cu7      1.0000 0.52523  0.47477  0.56663  Biso   1.000  Cu
  Cu8      1.0000 0.47565  0.52435  0.59950  Biso   1.000  Cu
  Cu9      1.0000 0.19189  0.80811  0.89996  Biso   1.000  Cu
  Cu10     1.0000 0.14232  0.85768  0.93283  Biso   1.000  Cu
  Cu11     1.0000 0.85856  0.14144  0.23330  Biso   1.000  Cu
  Cu12     1.0000 0.80899  0.19101  0.26617  Biso   1.000  Cu
  Cu13     1.0000 0.52523  0.05045  0.56663  Biso   1.000  Cu
  Cu14     1.0000 0.47565  0.95131  0.59950  Biso   1.000  Cu
  Cu15     1.0000 0.19189  0.38378  0.89996  Biso   1.000  Cu
  Cu16     1.0000 0.14232  0.28464  0.93283  Biso   1.000  Cu
  Cu17     1.0000 0.85856  0.71712  0.23330  Biso   1.000  Cu
  Cu18     1.0000 0.80899  0.61798  0.26617  Biso   1.000  Cu
  C289     1.0000 0.77050  0.22950  0.60120  Biso   1.000  C
  H37      1.0000 0.76540  0.23460  0.58690  Biso   1.000  H
  C290     1.0000 0.77850  0.22150  0.64380  Biso   1.000  C
  C291     1.0000 0.77000  0.23000  0.66760  Biso   1.000  C
  C292     1.0000 0.79450  0.20550  0.73134  Biso   1.000  C
  C293     1.0000 0.80345  0.19655  0.77372  Biso   1.000  C
  C294     1.0000 0.81890  0.18110  0.79659  Biso   1.000  C
  C295     1.0000 0.85350  0.14650  0.86090  Biso   1.000  C
  C296     1.0000 0.88555  0.11445  0.89870  Biso   1.000  C
  H38      1.0000 0.89835  0.10165  0.91190  Biso   1.000  H
  C297     1.0000 0.43717  0.56283  0.93453  Biso   1.000  C
  H39      1.0000 0.43207  0.56793  0.92023  Biso   1.000  H
  C298     1.0000 0.44517  0.55483  0.97713  Biso   1.000  C
  C299     1.0000 0.43667  0.56333  0.00093  Biso   1.000  C
  C300     1.0000 0.46117  0.53883  0.06467  Biso   1.000  C
  C301     1.0000 0.47012  0.52988  0.10705  Biso   1.000  C
  C302     1.0000 0.48557  0.51443  0.12992  Biso   1.000  C
  C303     1.0000 0.52017  0.47983  0.19423  Biso   1.000  C
  C304     1.0000 0.55222  0.44778  0.23203  Biso   1.000  C
  H40      1.0000 0.56502  0.43498  0.24523  Biso   1.000  H
  C305     1.0000 0.10383  0.89617  0.26787  Biso   1.000  C
  H41      1.0000 0.09873  0.90127  0.25357  Biso   1.000  H
  C306     1.0000 0.11183  0.88817  0.31047  Biso   1.000  C
  C307     1.0000 0.10333  0.89667  0.33427  Biso   1.000  C
  C308     1.0000 0.12783  0.87217  0.39801  Biso   1.000  C
  C309     1.0000 0.13678  0.86322  0.44039  Biso   1.000  C
  C310     1.0000 0.15223  0.84777  0.46326  Biso   1.000  C
  C311     1.0000 0.18683  0.81317  0.52757  Biso   1.000  C
  C312     1.0000 0.21888  0.78112  0.56537  Biso   1.000  C
  H42      1.0000 0.23168  0.76832  0.57857  Biso   1.000  H
  C313     1.0000 0.77050  0.54100  0.60120  Biso   1.000  C
  H43      1.0000 0.76540  0.53080  0.58690  Biso   1.000  H
  C314     1.0000 0.77850  0.55700  0.64380  Biso   1.000  C
  C315     1.0000 0.77000  0.54000  0.66760  Biso   1.000  C
  C316     1.0000 0.79450  0.58900  0.73134  Biso   1.000  C
  C317     1.0000 0.80345  0.60690  0.77372  Biso   1.000  C
  C318     1.0000 0.81890  0.63780  0.79659  Biso   1.000  C
  C319     1.0000 0.85350  0.70700  0.86090  Biso   1.000  C
  C320     1.0000 0.88555  0.77110  0.89870  Biso   1.000  C
  H44      1.0000 0.89835  0.79670  0.91190  Biso   1.000  H
  C321     1.0000 0.43717  0.87433  0.93453  Biso   1.000  C
  H45      1.0000 0.43207  0.86413  0.92023  Biso   1.000  H
  C322     1.0000 0.44517  0.89033  0.97713  Biso   1.000  C
  C323     1.0000 0.43667  0.87333  0.00093  Biso   1.000  C
  C324     1.0000 0.46117  0.92233  0.06467  Biso   1.000  C
  C325     1.0000 0.47012  0.94023  0.10705  Biso   1.000  C
  C326     1.0000 0.48557  0.97113  0.12992  Biso   1.000  C
  C327     1.0000 0.52017  0.04033  0.19423  Biso   1.000  C
  C328     1.0000 0.55222  0.10443  0.23203  Biso   1.000  C
  H46      1.0000 0.56502  0.13003  0.24523  Biso   1.000  H
  C329     1.0000 0.10383  0.20767  0.26787  Biso   1.000  C
  H47      1.0000 0.09873  0.19747  0.25357  Biso   1.000  H
  C330     1.0000 0.11183  0.22367  0.31047  Biso   1.000  C
  C331     1.0000 0.10333  0.20667  0.33427  Biso   1.000  C
  C332     1.0000 0.12783  0.25567  0.39801  Biso   1.000  C
  C333     1.0000 0.13678  0.27357  0.44039  Biso   1.000  C
  C334     1.0000 0.15223  0.30447  0.46326  Biso   1.000  C
  C335     1.0000 0.18683  0.37367  0.52757  Biso   1.000  C
  C336     1.0000 0.21888  0.43777  0.56537  Biso   1.000  C
  H48      1.0000 0.23168  0.46337  0.57857  Biso   1.000  H
  C337     1.0000 0.45900  0.22950  0.60120  Biso   1.000  C
  H49      1.0000 0.46920  0.23460  0.58690  Biso   1.000  H
  C338     1.0000 0.44300  0.22150  0.64380  Biso   1.000  C
  C339     1.0000 0.46000  0.23000  0.66760  Biso   1.000  C
  C340     1.0000 0.41100  0.20550  0.73134  Biso   1.000  C
  C341     1.0000 0.39310  0.19655  0.77372  Biso   1.000  C
  C342     1.0000 0.36220  0.18110  0.79659  Biso   1.000  C
  C343     1.0000 0.29300  0.14650  0.86090  Biso   1.000  C
  C344     1.0000 0.22890  0.11445  0.89870  Biso   1.000  C
  H50      1.0000 0.20330  0.10165  0.91190  Biso   1.000  H
  C345     1.0000 0.12567  0.56283  0.93453  Biso   1.000  C
  H51      1.0000 0.13587  0.56793  0.92023  Biso   1.000  H
  C346     1.0000 0.10967  0.55483  0.97713  Biso   1.000  C
  C347     1.0000 0.12667  0.56333  0.00093  Biso   1.000  C
  C348     1.0000 0.07767  0.53883  0.06467  Biso   1.000  C
  C349     1.0000 0.05977  0.52988  0.10705  Biso   1.000  C
  C350     1.0000 0.02887  0.51443  0.12992  Biso   1.000  C
  C351     1.0000 0.95967  0.47983  0.19423  Biso   1.000  C
  C352     1.0000 0.89557  0.44778  0.23203  Biso   1.000  C
  H52      1.0000 0.86997  0.43498  0.24523  Biso   1.000  H
  C353     1.0000 0.79233  0.89617  0.26787  Biso   1.000  C
  H53      1.0000 0.80253  0.90127  0.25357  Biso   1.000  H
  C354     1.0000 0.77633  0.88817  0.31047  Biso   1.000  C
  C355     1.0000 0.79333  0.89667  0.33427  Biso   1.000  C
  C356     1.0000 0.74433  0.87217  0.39801  Biso   1.000  C
  C357     1.0000 0.72643  0.86322  0.44039  Biso   1.000  C
  C358     1.0000 0.69553  0.84777  0.46326  Biso   1.000  C
  C359     1.0000 0.62633  0.81317  0.52757  Biso   1.000  C
  C360     1.0000 0.56223  0.78112  0.56537  Biso   1.000  C
  H54      1.0000 0.53663  0.76832  0.57857  Biso   1.000  H
  C361     1.0000 0.36310  0.90990  0.39940  Biso   1.000  C
  C362     1.0000 0.29180  0.84040  0.38840  Biso   1.000  C
  C363     1.0000 0.29040  0.83640  0.36680  Biso   1.000  C
  H55      1.0000 0.33860  0.87590  0.35940  Biso   1.000  H
  C364     1.0000 0.28120  0.84560  0.32260  Biso   1.000  C
  C365     1.0000 0.28400  0.84930  0.30130  Biso   1.000  C
  C366     1.0000 0.23600  0.77700  0.28980  Biso   1.000  C
  C367     1.0000 0.27590  0.85200  0.25760  Biso   1.000  C
  C368     1.0000 0.27110  0.85680  0.23640  Biso   1.000  C
  C369     1.0000 0.09910  0.78700  0.19630  Biso   1.000  C
  C370     1.0000 0.08440  0.79190  0.17560  Biso   1.000  C
  C371     1.0000 0.15200  0.82850  0.16194  Biso   1.000  C
  C372     1.0000 0.14030  0.76620  0.16900  Biso   1.000  C
  C373     1.0000 0.24840  0.85470  0.18980  Biso   1.000  C
  C374     1.0000 0.20400  0.92560  0.12970  Biso   1.000  C
  H56      1.0000 0.25480  0.96500  0.13640  Biso   1.000  H
  C375     1.0000 0.18460  0.93990  0.10940  Biso   1.000  C
  C376     1.0000 0.23920  0.02600  0.10020  Biso   1.000  C
  O73      1.0000 0.41390  0.97600  0.39006  Biso   1.000  O
  O74      1.0000 0.37100  0.88880  0.41795  Biso   1.000  O
  O75      1.0000 0.22570  0.03710  0.08301  Biso   1.000  O
  O76      1.0000 0.30390  0.07720  0.11050  Biso   1.000  O
  C377     1.0000 0.02977  0.24323  0.73273  Biso   1.000  C
  C378     1.0000 0.95847  0.17373  0.72173  Biso   1.000  C
  C379     1.0000 0.95707  0.16973  0.70013  Biso   1.000  C
  H57      1.0000 0.00527  0.20923  0.69273  Biso   1.000  H
  C380     1.0000 0.94787  0.17893  0.65593  Biso   1.000  C
  C381     1.0000 0.95067  0.18263  0.63463  Biso   1.000  C
  C382     1.0000 0.90267  0.11033  0.62313  Biso   1.000  C
  C383     1.0000 0.94257  0.18533  0.59093  Biso   1.000  C
  C384     1.0000 0.93777  0.19013  0.56973  Biso   1.000  C
  C385     1.0000 0.76577  0.12033  0.52963  Biso   1.000  C
  C386     1.0000 0.75107  0.12523  0.50893  Biso   1.000  C
  C387     1.0000 0.81867  0.16183  0.49527  Biso   1.000  C
  C388     1.0000 0.80697  0.09953  0.50233  Biso   1.000  C
  C389     1.0000 0.91507  0.18803  0.52313  Biso   1.000  C
  C390     1.0000 0.87067  0.25893  0.46303  Biso   1.000  C
  H58      1.0000 0.92147  0.29833  0.46973  Biso   1.000  H
  C391     1.0000 0.85127  0.27323  0.44273  Biso   1.000  C
  C392     1.0000 0.90587  0.35933  0.43353  Biso   1.000  C
  O77      1.0000 0.08057  0.30933  0.72339  Biso   1.000  O
  O78      1.0000 0.03767  0.22213  0.75128  Biso   1.000  O
  O79      1.0000 0.89237  0.37043  0.41634  Biso   1.000  O
  O80      1.0000 0.97057  0.41053  0.44383  Biso   1.000  O
  C393     1.0000 0.69643  0.57657  0.06607  Biso   1.000  C
  C394     1.0000 0.62513  0.50707  0.05507  Biso   1.000  C
  C395     1.0000 0.62373  0.50307  0.03347  Biso   1.000  C
  H59      1.0000 0.67193  0.54257  0.02607  Biso   1.000  H
  C396     1.0000 0.61453  0.51227  0.98927  Biso   1.000  C
  C397     1.0000 0.61733  0.51597  0.96797  Biso   1.000  C
  C398     1.0000 0.56933  0.44367  0.95647  Biso   1.000  C
  C399     1.0000 0.60923  0.51867  0.92427  Biso   1.000  C
  C400     1.0000 0.60443  0.52347  0.90307  Biso   1.000  C
  C401     1.0000 0.43243  0.45367  0.86297  Biso   1.000  C
  C402     1.0000 0.41773  0.45857  0.84227  Biso   1.000  C
  C403     1.0000 0.48533  0.49517  0.82861  Biso   1.000  C
  C404     1.0000 0.47363  0.43287  0.83567  Biso   1.000  C
  C405     1.0000 0.58173  0.52137  0.85647  Biso   1.000  C
  C406     1.0000 0.53733  0.59227  0.79637  Biso   1.000  C
  H60      1.0000 0.58813  0.63167  0.80307  Biso   1.000  H
  C407     1.0000 0.51793  0.60657  0.77607  Biso   1.000  C
  C408     1.0000 0.57253  0.69267  0.76687  Biso   1.000  C
  O81      1.0000 0.74723  0.64267  0.05673  Biso   1.000  O
  O82      1.0000 0.70433  0.55547  0.08462  Biso   1.000  O
  O83      1.0000 0.55903  0.70377  0.74968  Biso   1.000  O
  O84      1.0000 0.63723  0.74387  0.77717  Biso   1.000  O
  C409     1.0000 0.54680  0.63690  0.39940  Biso   1.000  C
  C410     1.0000 0.54860  0.70820  0.38840  Biso   1.000  C
  C411     1.0000 0.54600  0.70960  0.36680  Biso   1.000  C
  H61      1.0000 0.53730  0.66140  0.35940  Biso   1.000  H
  C412     1.0000 0.56440  0.71880  0.32260  Biso   1.000  C
  C413     1.0000 0.56530  0.71600  0.30130  Biso   1.000  C
  C414     1.0000 0.54100  0.76400  0.28980  Biso   1.000  C
  C415     1.0000 0.57610  0.72410  0.25760  Biso   1.000  C
  C416     1.0000 0.58570  0.72890  0.23640  Biso   1.000  C
  C417     1.0000 0.68790  0.90090  0.19630  Biso   1.000  C
  C418     1.0000 0.70750  0.91560  0.17560  Biso   1.000  C
  C419     1.0000 0.67650  0.84800  0.16194  Biso   1.000  C
  C420     1.0000 0.62590  0.85970  0.16900  Biso   1.000  C
  C421     1.0000 0.60630  0.75160  0.18980  Biso   1.000  C
  C422     1.0000 0.72160  0.79600  0.12970  Biso   1.000  C
  H62      1.0000 0.71020  0.74520  0.13640  Biso   1.000  H
  C423     1.0000 0.75530  0.81540  0.10940  Biso   1.000  C
  C424     1.0000 0.78680  0.76080  0.10020  Biso   1.000  C
  O85      1.0000 0.56210  0.58610  0.39006  Biso   1.000  O
  O86      1.0000 0.51780  0.62900  0.41795  Biso   1.000  O
  O87      1.0000 0.81140  0.77430  0.08301  Biso   1.000  O
  O88      1.0000 0.77330  0.69610  0.11050  Biso   1.000  O
  C425     1.0000 0.21347  0.97023  0.73273  Biso   1.000  C
  C426     1.0000 0.21527  0.04153  0.72173  Biso   1.000  C
  C427     1.0000 0.21267  0.04293  0.70013  Biso   1.000  C
  H63      1.0000 0.20397  0.99473  0.69273  Biso   1.000  H
  C428     1.0000 0.23107  0.05213  0.65593  Biso   1.000  C
  C429     1.0000 0.23197  0.04933  0.63463  Biso   1.000  C
  C430     1.0000 0.20767  0.09733  0.62313  Biso   1.000  C
  C431     1.0000 0.24277  0.05743  0.59093  Biso   1.000  C
  C432     1.0000 0.25237  0.06223  0.56973  Biso   1.000  C
  C433     1.0000 0.35457  0.23423  0.52963  Biso   1.000  C
  C434     1.0000 0.37417  0.24893  0.50893  Biso   1.000  C
  C435     1.0000 0.34317  0.18133  0.49527  Biso   1.000  C
  C436     1.0000 0.29257  0.19303  0.50233  Biso   1.000  C
  C437     1.0000 0.27297  0.08493  0.52313  Biso   1.000  C
  C438     1.0000 0.38827  0.12933  0.46303  Biso   1.000  C
  H64      1.0000 0.37687  0.07853  0.46973  Biso   1.000  H
  C439     1.0000 0.42197  0.14873  0.44273  Biso   1.000  C
  C440     1.0000 0.45347  0.09413  0.43353  Biso   1.000  C
  O89      1.0000 0.22877  0.91943  0.72339  Biso   1.000  O
  O90      1.0000 0.18447  0.96233  0.75128  Biso   1.000  O
  O91      1.0000 0.47807  0.10763  0.41634  Biso   1.000  O
  O92      1.0000 0.43997  0.02943  0.44383  Biso   1.000  O
  C441     1.0000 0.88013  0.30357  0.06607  Biso   1.000  C
  C442     1.0000 0.88193  0.37487  0.05507  Biso   1.000  C
  C443     1.0000 0.87933  0.37627  0.03347  Biso   1.000  C
  H65      1.0000 0.87063  0.32807  0.02607  Biso   1.000  H
  C444     1.0000 0.89773  0.38547  0.98927  Biso   1.000  C
  C445     1.0000 0.89863  0.38267  0.96797  Biso   1.000  C
  C446     1.0000 0.87433  0.43067  0.95647  Biso   1.000  C
  C447     1.0000 0.90943  0.39077  0.92427  Biso   1.000  C
  C448     1.0000 0.91903  0.39557  0.90307  Biso   1.000  C
  C449     1.0000 0.02123  0.56757  0.86297  Biso   1.000  C
  C450     1.0000 0.04083  0.58227  0.84227  Biso   1.000  C
  C451     1.0000 0.00983  0.51467  0.82861  Biso   1.000  C
  C452     1.0000 0.95923  0.52637  0.83567  Biso   1.000  C
  C453     1.0000 0.93963  0.41827  0.85647  Biso   1.000  C
  C454     1.0000 0.05493  0.46267  0.79637  Biso   1.000  C
  H66      1.0000 0.04353  0.41187  0.80307  Biso   1.000  H
  C455     1.0000 0.08863  0.48207  0.77607  Biso   1.000  C
  C456     1.0000 0.12013  0.42747  0.76687  Biso   1.000  C
  O93      1.0000 0.89543  0.25277  0.05673  Biso   1.000  O
  O94      1.0000 0.85113  0.29567  0.08462  Biso   1.000  O
  O95      1.0000 0.14473  0.44097  0.74968  Biso   1.000  O
  O96      1.0000 0.10663  0.36277  0.77717  Biso   1.000  O
  C457     1.0000 0.09010  0.45320  0.39940  Biso   1.000  C
  C458     1.0000 0.15960  0.45140  0.38840  Biso   1.000  C
  C459     1.0000 0.16360  0.45400  0.36680  Biso   1.000  C
  H67      1.0000 0.12410  0.46270  0.35940  Biso   1.000  H
  C460     1.0000 0.15440  0.43560  0.32260  Biso   1.000  C
  C461     1.0000 0.15070  0.43470  0.30130  Biso   1.000  C
  C462     1.0000 0.22300  0.45900  0.28980  Biso   1.000  C
  C463     1.0000 0.14800  0.42390  0.25760  Biso   1.000  C
  C464     1.0000 0.14320  0.41430  0.23640  Biso   1.000  C
  C465     1.0000 0.21300  0.31210  0.19630  Biso   1.000  C
  C466     1.0000 0.20810  0.29250  0.17560  Biso   1.000  C
  C467     1.0000 0.17150  0.32350  0.16194  Biso   1.000  C
  C468     1.0000 0.23380  0.37410  0.16900  Biso   1.000  C
  C469     1.0000 0.14530  0.39370  0.18980  Biso   1.000  C
  C470     1.0000 0.07440  0.27840  0.12970  Biso   1.000  C
  H68      1.0000 0.03500  0.28980  0.13640  Biso   1.000  H
  C471     1.0000 0.06010  0.24470  0.10940  Biso   1.000  C
  C472     1.0000 0.97400  0.21320  0.10020  Biso   1.000  C
  O97      1.0000 0.02400  0.43790  0.39006  Biso   1.000  O
  O98      1.0000 0.11120  0.48220  0.41795  Biso   1.000  O
  O99      1.0000 0.96290  0.18860  0.08301  Biso   1.000  O
  O100     1.0000 0.92280  0.22670  0.11050  Biso   1.000  O
  C473     1.0000 0.75677  0.78653  0.73273  Biso   1.000  C
  C474     1.0000 0.82627  0.78473  0.72173  Biso   1.000  C
  C475     1.0000 0.83027  0.78733  0.70013  Biso   1.000  C
  H69      1.0000 0.79077  0.79603  0.69273  Biso   1.000  H
  C476     1.0000 0.82107  0.76893  0.65593  Biso   1.000  C
  C477     1.0000 0.81737  0.76803  0.63463  Biso   1.000  C
  C478     1.0000 0.88967  0.79233  0.62313  Biso   1.000  C
  C479     1.0000 0.81467  0.75723  0.59093  Biso   1.000  C
  C480     1.0000 0.80987  0.74763  0.56973  Biso   1.000  C
  C481     1.0000 0.87967  0.64543  0.52963  Biso   1.000  C
  C482     1.0000 0.87477  0.62583  0.50893  Biso   1.000  C
  C483     1.0000 0.83817  0.65683  0.49527  Biso   1.000  C
  C484     1.0000 0.90047  0.70743  0.50233  Biso   1.000  C
  C485     1.0000 0.81197  0.72703  0.52313  Biso   1.000  C
  C486     1.0000 0.74107  0.61173  0.46303  Biso   1.000  C
  H70      1.0000 0.70167  0.62313  0.46973  Biso   1.000  H
  C487     1.0000 0.72677  0.57803  0.44273  Biso   1.000  C
  C488     1.0000 0.64067  0.54653  0.43353  Biso   1.000  C
  O101     1.0000 0.69067  0.77123  0.72339  Biso   1.000  O
  O102     1.0000 0.77787  0.81553  0.75128  Biso   1.000  O
  O103     1.0000 0.62957  0.52193  0.41634  Biso   1.000  O
  O104     1.0000 0.58947  0.56003  0.44383  Biso   1.000  O
  C489     1.0000 0.42343  0.11987  0.06607  Biso   1.000  C
  C490     1.0000 0.49293  0.11807  0.05507  Biso   1.000  C
  C491     1.0000 0.49693  0.12067  0.03347  Biso   1.000  C
  H71      1.0000 0.45743  0.12937  0.02607  Biso   1.000  H
  C492     1.0000 0.48773  0.10227  0.98927  Biso   1.000  C
  C493     1.0000 0.48403  0.10137  0.96797  Biso   1.000  C
  C494     1.0000 0.55633  0.12567  0.95647  Biso   1.000  C
  C495     1.0000 0.48133  0.09057  0.92427  Biso   1.000  C
  C496     1.0000 0.47653  0.08097  0.90307  Biso   1.000  C
  C497     1.0000 0.54633  0.97877  0.86297  Biso   1.000  C
  C498     1.0000 0.54143  0.95917  0.84227  Biso   1.000  C
  C499     1.0000 0.50483  0.99017  0.82861  Biso   1.000  C
  C500     1.0000 0.56713  0.04077  0.83567  Biso   1.000  C
  C501     1.0000 0.47863  0.06037  0.85647  Biso   1.000  C
  C502     1.0000 0.40773  0.94507  0.79637  Biso   1.000  C
  H72      1.0000 0.36833  0.95647  0.80307  Biso   1.000  H
  C503     1.0000 0.39343  0.91137  0.77607  Biso   1.000  C
  C504     1.0000 0.30733  0.87987  0.76687  Biso   1.000  C
  O105     1.0000 0.35733  0.10457  0.05673  Biso   1.000  O
  O106     1.0000 0.44453  0.14887  0.08462  Biso   1.000  O
  O107     1.0000 0.29623  0.85527  0.74968  Biso   1.000  O
  O108     1.0000 0.25613  0.89337  0.77717  Biso   1.000  O
  C505     1.0000 0.09010  0.63690  0.39940  Biso   1.000  C
  C506     1.0000 0.15960  0.70820  0.38840  Biso   1.000  C
  C507     1.0000 0.16360  0.70960  0.36680  Biso   1.000  C
  H73      1.0000 0.12410  0.66140  0.35940  Biso   1.000  H
  C508     1.0000 0.15440  0.71880  0.32260  Biso   1.000  C
  C509     1.0000 0.15070  0.71600  0.30130  Biso   1.000  C
  C510     1.0000 0.22300  0.76400  0.28980  Biso   1.000  C
  C511     1.0000 0.14800  0.72410  0.25760  Biso   1.000  C
  C512     1.0000 0.14320  0.72890  0.23640  Biso   1.000  C
  C513     1.0000 0.21300  0.90090  0.19630  Biso   1.000  C
  C514     1.0000 0.20810  0.91560  0.17560  Biso   1.000  C
  C515     1.0000 0.17150  0.84800  0.16194  Biso   1.000  C
  C516     1.0000 0.23380  0.85970  0.16900  Biso   1.000  C
  C517     1.0000 0.14530  0.75160  0.18980  Biso   1.000  C
  C518     1.0000 0.07440  0.79600  0.12970  Biso   1.000  C
  H74      1.0000 0.03500  0.74520  0.13640  Biso   1.000  H
  C519     1.0000 0.06010  0.81540  0.10940  Biso   1.000  C
  C520     1.0000 0.97400  0.76080  0.10020  Biso   1.000  C
  O109     1.0000 0.02400  0.58610  0.39006  Biso   1.000  O
  O110     1.0000 0.11120  0.62900  0.41795  Biso   1.000  O
  O111     1.0000 0.96290  0.77430  0.08301  Biso   1.000  O
  O112     1.0000 0.92280  0.69610  0.11050  Biso   1.000  O
  C521     1.0000 0.75677  0.97023  0.73273  Biso   1.000  C
  C522     1.0000 0.82627  0.04153  0.72173  Biso   1.000  C
  C523     1.0000 0.83027  0.04293  0.70013  Biso   1.000  C
  H75      1.0000 0.79077  0.99473  0.69273  Biso   1.000  H
  C524     1.0000 0.82107  0.05213  0.65593  Biso   1.000  C
  C525     1.0000 0.81737  0.04933  0.63463  Biso   1.000  C
  C526     1.0000 0.88967  0.09733  0.62313  Biso   1.000  C
  C527     1.0000 0.81467  0.05743  0.59093  Biso   1.000  C
  C528     1.0000 0.80987  0.06223  0.56973  Biso   1.000  C
  C529     1.0000 0.87967  0.23423  0.52963  Biso   1.000  C
  C530     1.0000 0.87477  0.24893  0.50893  Biso   1.000  C
  C531     1.0000 0.83817  0.18133  0.49527  Biso   1.000  C
  C532     1.0000 0.90047  0.19303  0.50233  Biso   1.000  C
  C533     1.0000 0.81197  0.08493  0.52313  Biso   1.000  C
  C534     1.0000 0.74107  0.12933  0.46303  Biso   1.000  C
  H76      1.0000 0.70167  0.07853  0.46973  Biso   1.000  H
  C535     1.0000 0.72677  0.14873  0.44273  Biso   1.000  C
  C536     1.0000 0.64067  0.09413  0.43353  Biso   1.000  C
  O113     1.0000 0.69067  0.91943  0.72339  Biso   1.000  O
  O114     1.0000 0.77787  0.96233  0.75128  Biso   1.000  O
  O115     1.0000 0.62957  0.10763  0.41634  Biso   1.000  O
  O116     1.0000 0.58947  0.02943  0.44383  Biso   1.000  O
  C537     1.0000 0.42343  0.30357  0.06607  Biso   1.000  C
  C538     1.0000 0.49293  0.37487  0.05507  Biso   1.000  C
  C539     1.0000 0.49693  0.37627  0.03347  Biso   1.000  C
  H77      1.0000 0.45743  0.32807  0.02607  Biso   1.000  H
  C540     1.0000 0.48773  0.38547  0.98927  Biso   1.000  C
  C541     1.0000 0.48403  0.38267  0.96797  Biso   1.000  C
  C542     1.0000 0.55633  0.43067  0.95647  Biso   1.000  C
  C543     1.0000 0.48133  0.39077  0.92427  Biso   1.000  C
  C544     1.0000 0.47653  0.39557  0.90307  Biso   1.000  C
  C545     1.0000 0.54633  0.56757  0.86297  Biso   1.000  C
  C546     1.0000 0.54143  0.58227  0.84227  Biso   1.000  C
  C547     1.0000 0.50483  0.51467  0.82861  Biso   1.000  C
  C548     1.0000 0.56713  0.52637  0.83567  Biso   1.000  C
  C549     1.0000 0.47863  0.41827  0.85647  Biso   1.000  C
  C550     1.0000 0.40773  0.46267  0.79637  Biso   1.000  C
  H78      1.0000 0.36833  0.41187  0.80307  Biso   1.000  H
  C551     1.0000 0.39343  0.48207  0.77607  Biso   1.000  C
  C552     1.0000 0.30733  0.42747  0.76687  Biso   1.000  C
  O117     1.0000 0.35733  0.25277  0.05673  Biso   1.000  O
  O118     1.0000 0.44453  0.29567  0.08462  Biso   1.000  O
  O119     1.0000 0.29623  0.44097  0.74968  Biso   1.000  O
  O120     1.0000 0.25613  0.36277  0.77717  Biso   1.000  O
  C553     1.0000 0.36310  0.45320  0.39940  Biso   1.000  C
  C554     1.0000 0.29180  0.45140  0.38840  Biso   1.000  C
  C555     1.0000 0.29040  0.45400  0.36680  Biso   1.000  C
  H79      1.0000 0.33860  0.46270  0.35940  Biso   1.000  H
  C556     1.0000 0.28120  0.43560  0.32260  Biso   1.000  C
  C557     1.0000 0.28400  0.43470  0.30130  Biso   1.000  C
  C558     1.0000 0.23600  0.45900  0.28980  Biso   1.000  C
  C559     1.0000 0.27590  0.42390  0.25760  Biso   1.000  C
  C560     1.0000 0.27110  0.41430  0.23640  Biso   1.000  C
  C561     1.0000 0.09910  0.31210  0.19630  Biso   1.000  C
  C562     1.0000 0.08440  0.29250  0.17560  Biso   1.000  C
  C563     1.0000 0.15200  0.32350  0.16194  Biso   1.000  C
  C564     1.0000 0.14030  0.37410  0.16900  Biso   1.000  C
  C565     1.0000 0.24840  0.39370  0.18980  Biso   1.000  C
  C566     1.0000 0.20400  0.27840  0.12970  Biso   1.000  C
  H80      1.0000 0.25480  0.28980  0.13640  Biso   1.000  H
  C567     1.0000 0.18460  0.24470  0.10940  Biso   1.000  C
  C568     1.0000 0.23920  0.21320  0.10020  Biso   1.000  C
  O121     1.0000 0.41390  0.43790  0.39006  Biso   1.000  O
  O122     1.0000 0.37100  0.48220  0.41795  Biso   1.000  O
  O123     1.0000 0.22570  0.18860  0.08301  Biso   1.000  O
  O124     1.0000 0.30390  0.22670  0.11050  Biso   1.000  O
  C569     1.0000 0.02977  0.78653  0.73273  Biso   1.000  C
  C570     1.0000 0.95847  0.78473  0.72173  Biso   1.000  C
  C571     1.0000 0.95707  0.78733  0.70013  Biso   1.000  C
  H81      1.0000 0.00527  0.79603  0.69273  Biso   1.000  H
  C572     1.0000 0.94787  0.76893  0.65593  Biso   1.000  C
  C573     1.0000 0.95067  0.76803  0.63463  Biso   1.000  C
  C574     1.0000 0.90267  0.79233  0.62313  Biso   1.000  C
  C575     1.0000 0.94257  0.75723  0.59093  Biso   1.000  C
  C576     1.0000 0.93777  0.74763  0.56973  Biso   1.000  C
  C577     1.0000 0.76577  0.64543  0.52963  Biso   1.000  C
  C578     1.0000 0.75107  0.62583  0.50893  Biso   1.000  C
  C579     1.0000 0.81867  0.65683  0.49527  Biso   1.000  C
  C580     1.0000 0.80697  0.70743  0.50233  Biso   1.000  C
  C581     1.0000 0.91507  0.72703  0.52313  Biso   1.000  C
  C582     1.0000 0.87067  0.61173  0.46303  Biso   1.000  C
  H82      1.0000 0.92147  0.62313  0.46973  Biso   1.000  H
  C583     1.0000 0.85127  0.57803  0.44273  Biso   1.000  C
  C584     1.0000 0.90587  0.54653  0.43353  Biso   1.000  C
  O125     1.0000 0.08057  0.77123  0.72339  Biso   1.000  O
  O126     1.0000 0.03767  0.81553  0.75128  Biso   1.000  O
  O127     1.0000 0.89237  0.52193  0.41634  Biso   1.000  O
  O128     1.0000 0.97057  0.56003  0.44383  Biso   1.000  O
  C585     1.0000 0.69643  0.11987  0.06607  Biso   1.000  C
  C586     1.0000 0.62513  0.11807  0.05507  Biso   1.000  C
  C587     1.0000 0.62373  0.12067  0.03347  Biso   1.000  C
  H83      1.0000 0.67193  0.12937  0.02607  Biso   1.000  H
  C588     1.0000 0.61453  0.10227  0.98927  Biso   1.000  C
  C589     1.0000 0.61733  0.10137  0.96797  Biso   1.000  C
  C590     1.0000 0.56933  0.12567  0.95647  Biso   1.000  C
  C591     1.0000 0.60923  0.09057  0.92427  Biso   1.000  C
  C592     1.0000 0.60443  0.08097  0.90307  Biso   1.000  C
  C593     1.0000 0.43243  0.97877  0.86297  Biso   1.000  C
  C594     1.0000 0.41773  0.95917  0.84227  Biso   1.000  C
  C595     1.0000 0.48533  0.99017  0.82861  Biso   1.000  C
  C596     1.0000 0.47363  0.04077  0.83567  Biso   1.000  C
  C597     1.0000 0.58173  0.06037  0.85647  Biso   1.000  C
  C598     1.0000 0.53733  0.94507  0.79637  Biso   1.000  C
  H84      1.0000 0.58813  0.95647  0.80307  Biso   1.000  H
  C599     1.0000 0.51793  0.91137  0.77607  Biso   1.000  C
  C600     1.0000 0.57253  0.87987  0.76687  Biso   1.000  C
  O129     1.0000 0.74723  0.10457  0.05673  Biso   1.000  O
  O130     1.0000 0.70433  0.14887  0.08462  Biso   1.000  O
  O131     1.0000 0.55903  0.85527  0.74968  Biso   1.000  O
  O132     1.0000 0.63723  0.89337  0.77717  Biso   1.000  O
  C601     1.0000 0.54680  0.90990  0.39940  Biso   1.000  C
  C602     1.0000 0.54860  0.84040  0.38840  Biso   1.000  C
  C603     1.0000 0.54600  0.83640  0.36680  Biso   1.000  C
  H85      1.0000 0.53730  0.87590  0.35940  Biso   1.000  H
  C604     1.0000 0.56440  0.84560  0.32260  Biso   1.000  C
  C605     1.0000 0.56530  0.84930  0.30130  Biso   1.000  C
  C606     1.0000 0.54100  0.77700  0.28980  Biso   1.000  C
  C607     1.0000 0.57610  0.85200  0.25760  Biso   1.000  C
  C608     1.0000 0.58570  0.85680  0.23640  Biso   1.000  C
  C609     1.0000 0.68790  0.78700  0.19630  Biso   1.000  C
  C610     1.0000 0.70750  0.79190  0.17560  Biso   1.000  C
  C611     1.0000 0.67650  0.82850  0.16194  Biso   1.000  C
  C612     1.0000 0.62590  0.76620  0.16900  Biso   1.000  C
  C613     1.0000 0.60630  0.85470  0.18980  Biso   1.000  C
  C614     1.0000 0.72160  0.92560  0.12970  Biso   1.000  C
  H86      1.0000 0.71020  0.96500  0.13640  Biso   1.000  H
  C615     1.0000 0.75530  0.93990  0.10940  Biso   1.000  C
  C616     1.0000 0.78680  0.02600  0.10020  Biso   1.000  C
  O133     1.0000 0.56210  0.97600  0.39006  Biso   1.000  O
  O134     1.0000 0.51780  0.88880  0.41795  Biso   1.000  O
  O135     1.0000 0.81140  0.03710  0.08301  Biso   1.000  O
  O136     1.0000 0.77330  0.07720  0.11050  Biso   1.000  O
  C617     1.0000 0.21347  0.24323  0.73273  Biso   1.000  C
  C618     1.0000 0.21527  0.17373  0.72173  Biso   1.000  C
  C619     1.0000 0.21267  0.16973  0.70013  Biso   1.000  C
  H87      1.0000 0.20397  0.20923  0.69273  Biso   1.000  H
  C620     1.0000 0.23107  0.17893  0.65593  Biso   1.000  C
  C621     1.0000 0.23197  0.18263  0.63463  Biso   1.000  C
  C622     1.0000 0.20767  0.11033  0.62313  Biso   1.000  C
  C623     1.0000 0.24277  0.18533  0.59093  Biso   1.000  C
  C624     1.0000 0.25237  0.19013  0.56973  Biso   1.000  C
  C625     1.0000 0.35457  0.12033  0.52963  Biso   1.000  C
  C626     1.0000 0.37417  0.12523  0.50893  Biso   1.000  C
  C627     1.0000 0.34317  0.16183  0.49527  Biso   1.000  C
  C628     1.0000 0.29257  0.09953  0.50233  Biso   1.000  C
  C629     1.0000 0.27297  0.18803  0.52313  Biso   1.000  C
  C630     1.0000 0.38827  0.25893  0.46303  Biso   1.000  C
  H88      1.0000 0.37687  0.29833  0.46973  Biso   1.000  H
  C631     1.0000 0.42197  0.27323  0.44273  Biso   1.000  C
  C632     1.0000 0.45347  0.35933  0.43353  Biso   1.000  C
  O137     1.0000 0.22877  0.30933  0.72339  Biso   1.000  O
  O138     1.0000 0.18447  0.22213  0.75128  Biso   1.000  O
  O139     1.0000 0.47807  0.37043  0.41634  Biso   1.000  O
  O140     1.0000 0.43997  0.41053  0.44383  Biso   1.000  O
  C633     1.0000 0.88013  0.57657  0.06607  Biso   1.000  C
  C634     1.0000 0.88193  0.50707  0.05507  Biso   1.000  C
  C635     1.0000 0.87933  0.50307  0.03347  Biso   1.000  C
  H89      1.0000 0.87063  0.54257  0.02607  Biso   1.000  H
  C636     1.0000 0.89773  0.51227  0.98927  Biso   1.000  C
  C637     1.0000 0.89863  0.51597  0.96797  Biso   1.000  C
  C638     1.0000 0.87433  0.44367  0.95647  Biso   1.000  C
  C639     1.0000 0.90943  0.51867  0.92427  Biso   1.000  C
  C640     1.0000 0.91903  0.52347  0.90307  Biso   1.000  C
  C641     1.0000 0.02123  0.45367  0.86297  Biso   1.000  C
  C642     1.0000 0.04083  0.45857  0.84227  Biso   1.000  C
  C643     1.0000 0.00983  0.49517  0.82861  Biso   1.000  C
  C644     1.0000 0.95923  0.43287  0.83567  Biso   1.000  C
  C645     1.0000 0.93963  0.52137  0.85647  Biso   1.000  C
  C646     1.0000 0.05493  0.59227  0.79637  Biso   1.000  C
  H90      1.0000 0.04353  0.63167  0.80307  Biso   1.000  H
  C647     1.0000 0.08863  0.60657  0.77607  Biso   1.000  C
  C648     1.0000 0.12013  0.69267  0.76687  Biso   1.000  C
  O141     1.0000 0.89543  0.64267  0.05673  Biso   1.000  O
  O142     1.0000 0.85113  0.55547  0.08462  Biso   1.000  O
  O143     1.0000 0.14473  0.70377  0.74968  Biso   1.000  O
  O144     1.0000 0.10663  0.74387  0.77717  Biso   1.000  O
  Cu19     1.0000 0.47477  0.94955  0.43337  Biso   1.000  Cu
  Cu20     1.0000 0.52435  0.04869  0.40050  Biso   1.000  Cu
  Cu21     1.0000 0.14144  0.28288  0.76670  Biso   1.000  Cu
  Cu22     1.0000 0.19101  0.38202  0.73383  Biso   1.000  Cu
  Cu23     1.0000 0.80811  0.61622  0.10004  Biso   1.000  Cu
  Cu24     1.0000 0.85768  0.71536  0.06717  Biso   1.000  Cu
  Cu25     1.0000 0.47477  0.52523  0.43337  Biso   1.000  Cu
  Cu26     1.0000 0.52434  0.47565  0.40050  Biso   1.000  Cu
  Cu27     1.0000 0.14144  0.85856  0.76670  Biso   1.000  Cu
  Cu28     1.0000 0.19101  0.80899  0.73383  Biso   1.000  Cu
  Cu29     1.0000 0.80811  0.19189  0.10004  Biso   1.000  Cu
  Cu30     1.0000 0.85768  0.14232  0.06717  Biso   1.000  Cu
  Cu31     1.0000 0.05045  0.52523  0.43337  Biso   1.000  Cu
  Cu32     1.0000 0.95131  0.47565  0.40050  Biso   1.000  Cu
  Cu33     1.0000 0.71712  0.85856  0.76670  Biso   1.000  Cu
  Cu34     1.0000 0.61798  0.80899  0.73383  Biso   1.000  Cu
  Cu35     1.0000 0.38378  0.19189  0.10004  Biso   1.000  Cu
  Cu36     1.0000 0.28464  0.14232  0.06717  Biso   1.000  Cu
  C649     1.0000 0.22950  0.77050  0.39880  Biso   1.000  C
  H91      1.0000 0.23460  0.76540  0.41310  Biso   1.000  H
  C650     1.0000 0.22150  0.77850  0.35620  Biso   1.000  C
  C651     1.0000 0.23000  0.77000  0.33240  Biso   1.000  C
  C652     1.0000 0.20550  0.79450  0.26866  Biso   1.000  C
  C653     1.0000 0.19655  0.80345  0.22628  Biso   1.000  C
  C654     1.0000 0.18110  0.81890  0.20341  Biso   1.000  C
  C655     1.0000 0.14650  0.85350  0.13910  Biso   1.000  C
  C656     1.0000 0.11445  0.88555  0.10130  Biso   1.000  C
  H92      1.0000 0.10165  0.89835  0.08810  Biso   1.000  H
  C657     1.0000 0.89617  0.10383  0.73213  Biso   1.000  C
  H93      1.0000 0.90127  0.09873  0.74643  Biso   1.000  H
  C658     1.0000 0.88817  0.11183  0.68953  Biso   1.000  C
  C659     1.0000 0.89667  0.10333  0.66573  Biso   1.000  C
  C660     1.0000 0.87217  0.12783  0.60199  Biso   1.000  C
  C661     1.0000 0.86322  0.13678  0.55961  Biso   1.000  C
  C662     1.0000 0.84777  0.15223  0.53674  Biso   1.000  C
  C663     1.0000 0.81317  0.18683  0.47243  Biso   1.000  C
  C664     1.0000 0.78112  0.21888  0.43463  Biso   1.000  C
  H94      1.0000 0.76832  0.23168  0.42143  Biso   1.000  H
  C665     1.0000 0.56283  0.43717  0.06547  Biso   1.000  C
  H95      1.0000 0.56793  0.43207  0.07977  Biso   1.000  H
  C666     1.0000 0.55483  0.44517  0.02287  Biso   1.000  C
  C667     1.0000 0.56333  0.43667  0.99907  Biso   1.000  C
  C668     1.0000 0.53883  0.46117  0.93533  Biso   1.000  C
  C669     1.0000 0.52988  0.47012  0.89295  Biso   1.000  C
  C670     1.0000 0.51443  0.48557  0.87008  Biso   1.000  C
  C671     1.0000 0.47983  0.52017  0.80577  Biso   1.000  C
  C672     1.0000 0.44778  0.55222  0.76797  Biso   1.000  C
  H96      1.0000 0.43498  0.56502  0.75477  Biso   1.000  H
  C673     1.0000 0.54100  0.77050  0.39880  Biso   1.000  C
  H97      1.0000 0.53080  0.76540  0.41310  Biso   1.000  H
  C674     1.0000 0.55700  0.77850  0.35620  Biso   1.000  C
  C675     1.0000 0.54000  0.77000  0.33240  Biso   1.000  C
  C676     1.0000 0.58900  0.79450  0.26866  Biso   1.000  C
  C677     1.0000 0.60690  0.80345  0.22628  Biso   1.000  C
  C678     1.0000 0.63780  0.81890  0.20341  Biso   1.000  C
  C679     1.0000 0.70700  0.85350  0.13910  Biso   1.000  C
  C680     1.0000 0.77110  0.88555  0.10130  Biso   1.000  C
  H98      1.0000 0.79670  0.89835  0.08810  Biso   1.000  H
  C681     1.0000 0.20767  0.10383  0.73213  Biso   1.000  C
  H99      1.0000 0.19747  0.09873  0.74643  Biso   1.000  H
  C682     1.0000 0.22367  0.11183  0.68953  Biso   1.000  C
  C683     1.0000 0.20667  0.10333  0.66573  Biso   1.000  C
  C684     1.0000 0.25567  0.12783  0.60199  Biso   1.000  C
  C685     1.0000 0.27357  0.13678  0.55961  Biso   1.000  C
  C686     1.0000 0.30447  0.15223  0.53674  Biso   1.000  C
  C687     1.0000 0.37367  0.18683  0.47243  Biso   1.000  C
  C688     1.0000 0.43777  0.21888  0.43463  Biso   1.000  C
  H100     1.0000 0.46337  0.23168  0.42143  Biso   1.000  H
  C689     1.0000 0.87433  0.43717  0.06547  Biso   1.000  C
  H101     1.0000 0.86413  0.43207  0.07977  Biso   1.000  H
  C690     1.0000 0.89033  0.44517  0.02287  Biso   1.000  C
  C691     1.0000 0.87333  0.43667  0.99907  Biso   1.000  C
  C692     1.0000 0.92233  0.46117  0.93533  Biso   1.000  C
  C693     1.0000 0.94023  0.47012  0.89295  Biso   1.000  C
  C694     1.0000 0.97113  0.48557  0.87008  Biso   1.000  C
  C695     1.0000 0.04033  0.52017  0.80577  Biso   1.000  C
  C696     1.0000 0.10443  0.55222  0.76797  Biso   1.000  C
  H102     1.0000 0.13003  0.56502  0.75477  Biso   1.000  H
  C697     1.0000 0.22950  0.45900  0.39880  Biso   1.000  C
  H103     1.0000 0.23460  0.46920  0.41310  Biso   1.000  H
  C698     1.0000 0.22150  0.44300  0.35620  Biso   1.000  C
  C699     1.0000 0.23000  0.46000  0.33240  Biso   1.000  C
  C700     1.0000 0.20550  0.41100  0.26866  Biso   1.000  C
  C701     1.0000 0.19655  0.39310  0.22628  Biso   1.000  C
  C702     1.0000 0.18110  0.36220  0.20341  Biso   1.000  C
  C703     1.0000 0.14650  0.29300  0.13910  Biso   1.000  C
  C704     1.0000 0.11445  0.22890  0.10130  Biso   1.000  C
  H104     1.0000 0.10165  0.20330  0.08810  Biso   1.000  H
  C705     1.0000 0.89617  0.79233  0.73213  Biso   1.000  C
  H105     1.0000 0.90127  0.80253  0.74643  Biso   1.000  H
  C706     1.0000 0.88817  0.77633  0.68953  Biso   1.000  C
  C707     1.0000 0.89667  0.79333  0.66573  Biso   1.000  C
  C708     1.0000 0.87217  0.74433  0.60199  Biso   1.000  C
  C709     1.0000 0.86322  0.72643  0.55961  Biso   1.000  C
  C710     1.0000 0.84777  0.69553  0.53674  Biso   1.000  C
  C711     1.0000 0.81317  0.62633  0.47243  Biso   1.000  C
  C712     1.0000 0.78112  0.56223  0.43463  Biso   1.000  C
  H106     1.0000 0.76832  0.53663  0.42143  Biso   1.000  H
  C713     1.0000 0.56283  0.12567  0.06547  Biso   1.000  C
  H107     1.0000 0.56793  0.13587  0.07977  Biso   1.000  H
  C714     1.0000 0.55483  0.10967  0.02287  Biso   1.000  C
  C715     1.0000 0.56333  0.12667  0.99907  Biso   1.000  C
  C716     1.0000 0.53883  0.07767  0.93533  Biso   1.000  C
  C717     1.0000 0.52988  0.05977  0.89295  Biso   1.000  C
  C718     1.0000 0.51443  0.02887  0.87008  Biso   1.000  C
  C719     1.0000 0.47983  0.95967  0.80577  Biso   1.000  C
  C720     1.0000 0.44778  0.89557  0.76797  Biso   1.000  C
  H108     1.0000 0.43498  0.86997  0.75477  Biso   1.000  H
