data_image0
_cell_length_a       17.227
_cell_length_b       24.0435
_cell_length_c       28.8385
_cell_angle_alpha    90
_cell_angle_beta     90
_cell_angle_gamma    90

_symmetry_space_group_name_H-M    "P 1"
_symmetry_int_tables_number       1

loop_
  _symmetry_equiv_pos_as_xyz
  'x, y, z'

loop_
  _atom_site_label
  _atom_site_occupancy
  _atom_site_fract_x
  _atom_site_fract_y
  _atom_site_fract_z
  _atom_site_thermal_displace_type
  _atom_site_B_iso_or_equiv
  _atom_site_type_symbol
  Cd1      1.0000 0.90833  0.39461  0.70964  Biso   1.000  Cd
  Cd2      1.0000 0.59221  0.33387  0.21069  Biso   1.000  Cd
  O1       1.0000 0.60120  0.88950  0.19340  Biso   1.000  O
  N1       1.0000 0.92540  0.29960  0.70960  Biso   1.000  N
  N2       1.0000 0.59510  0.42990  0.21520  Biso   1.000  N
  V1       1.0000 0.67067  0.83941  0.22595  Biso   1.000  V
  N3       1.0000 0.91470  0.49060  0.70490  Biso   1.000  N
  N4       1.0000 0.58190  0.23900  0.21200  Biso   1.000  N
  O2       1.0000 0.66820  0.33160  0.27580  Biso   1.000  O
  O3       1.0000 0.89630  0.38840  0.63030  Biso   1.000  O
  O4       1.0000 0.60040  0.33600  0.13200  Biso   1.000  O
  C1       1.0000 0.61500  0.33370  0.30700  Biso   1.000  C
  O5       1.0000 0.54450  0.33830  0.29640  Biso   1.000  O
  O6       1.0000 0.95610  0.39860  0.79850  Biso   1.000  O
  C2       1.0000 0.88590  0.39270  0.80640  Biso   1.000  C
  O7       1.0000 0.83630  0.39390  0.77570  Biso   1.000  O
  O8       1.0000 0.61820  0.77960  0.19340  Biso   1.000  O
  O9       1.0000 0.78510  0.37690  0.66600  Biso   1.000  O
  C3       1.0000 0.82490  0.37590  0.63050  Biso   1.000  C
  C4       1.0000 0.60320  0.54700  0.21270  Biso   1.000  C
  C5       1.0000 0.64120  0.33430  0.35580  Biso   1.000  C
  O10      1.0000 0.91600  0.83730  0.67400  Biso   1.000  O
  C6       1.0000 0.85840  0.38190  0.85510  Biso   1.000  C
  C7       1.0000 0.88090  0.36980  0.93730  Biso   1.000  C
  H1       1.0000 0.91530  0.36940  0.96220  Biso   1.000  H
  C8       1.0000 0.62190  0.20740  0.24280  Biso   1.000  C
  H2       1.0000 0.65060  0.22540  0.26560  Biso   1.000  H
  C9       1.0000 0.61580  0.34560  0.43790  Biso   1.000  C
  H3       1.0000 0.58100  0.35170  0.46200  Biso   1.000  H
  O11      1.0000 0.71560  0.32410  0.16290  Biso   1.000  O
  C10      1.0000 0.78060  0.37180  0.86280  Biso   1.000  C
  H4       1.0000 0.74630  0.37110  0.83790  Biso   1.000  H
  C11      1.0000 0.62240  0.15090  0.24230  Biso   1.000  C
  H5       1.0000 0.65040  0.13140  0.26460  Biso   1.000  H
  C12      1.0000 0.67310  0.33080  0.12910  Biso   1.000  C
  N5       1.0000 0.84460  0.94950  0.76220  Biso   1.000  N
  C13      1.0000 0.61670  0.72460  0.19770  Biso   1.000  C
  N6       1.0000 0.65650  0.88930  0.28350  Biso   1.000  N
  C14      1.0000 0.87390  0.52320  0.73410  Biso   1.000  C
  H6       1.0000 0.84210  0.50660  0.75620  Biso   1.000  H
  C15      1.0000 0.58080  0.12170  0.20810  Biso   1.000  C
  C16      1.0000 0.54060  0.46110  0.19360  Biso   1.000  C
  H7       1.0000 0.49960  0.44280  0.17920  Biso   1.000  H
  C17      1.0000 0.69570  0.36970  0.00310  Biso   1.000  C
  H8       1.0000 0.66670  0.38820  0.98060  Biso   1.000  H
  C18      1.0000 0.91700  0.60440  0.69480  Biso   1.000  C
  C19      1.0000 0.87780  0.57800  0.73230  Biso   1.000  C
  H9       1.0000 0.85500  0.59930  0.75550  Biso   1.000  H
  C20      1.0000 0.57780  0.63540  0.17070  Biso   1.000  C
  H10      1.0000 0.55380  0.61330  0.14850  Biso   1.000  H
  C21      1.0000 0.93480  0.69270  0.64690  Biso   1.000  C
  H11      1.0000 0.94930  0.67020  0.62210  Biso   1.000  H
  C22      1.0000 0.74440  0.32860  0.41070  Biso   1.000  C
  H12      1.0000 0.79690  0.32320  0.41650  Biso   1.000  H
  C23      1.0000 0.93000  0.18290  0.70070  Biso   1.000  C
  C24      1.0000 0.71840  0.32640  0.36640  Biso   1.000  C
  H13      1.0000 0.75350  0.31950  0.34260  Biso   1.000  H
  C25      1.0000 0.69400  0.33860  0.44810  Biso   1.000  C
  C26      1.0000 0.58440  0.05990  0.20550  Biso   1.000  C
  C27      1.0000 0.91110  0.00670  0.67980  Biso   1.000  C
  C28      1.0000 0.95370  0.51220  0.67160  Biso   1.000  C
  H14      1.0000 0.97970  0.48930  0.65080  Biso   1.000  H
  N7       1.0000 0.68830  0.78270  0.27740  Biso   1.000  N
  C29      1.0000 0.65130  0.45720  0.23610  Biso   1.000  C
  H15      1.0000 0.68800  0.43680  0.25250  Biso   1.000  H
  C30      1.0000 0.60370  0.02790  0.24390  Biso   1.000  C
  H16      1.0000 0.61180  0.04530  0.27230  Biso   1.000  H
  C31      1.0000 0.54240  0.51790  0.19190  Biso   1.000  C
  H17      1.0000 0.50300  0.53720  0.17670  Biso   1.000  H
  C32      1.0000 0.77170  0.35080  0.99180  Biso   1.000  C
  C33      1.0000 0.80680  0.35930  0.49990  Biso   1.000  C
  H18      1.0000 0.83860  0.35960  0.47380  Biso   1.000  H
  C34      1.0000 0.83850  0.36760  0.54360  Biso   1.000  C
  H19      1.0000 0.89160  0.37340  0.54690  Biso   1.000  H
  C35      1.0000 0.79090  0.36720  0.58250  Biso   1.000  C
  C36      1.0000 0.71150  0.35850  0.57767  Biso   1.000  C
  H20      1.0000 0.67970  0.35820  0.60370  Biso   1.000  H
  C37      1.0000 0.67980  0.35020  0.53390  Biso   1.000  C
  H21      1.0000 0.62670  0.34440  0.53060  Biso   1.000  H
  C38      1.0000 0.72740  0.35060  0.49498  Biso   1.000  C
  C39      1.0000 0.66400  0.36140  0.04610  Biso   1.000  C
  H22      1.0000 0.61320  0.37230  0.05210  Biso   1.000  H
  C40      1.0000 0.75310  0.36260  0.90740  Biso   1.000  C
  H23      1.0000 0.70010  0.35770  0.91200  Biso   1.000  H
  C41      1.0000 0.64940  0.69820  0.23770  Biso   1.000  C
  C42      1.0000 0.59640  0.94260  0.19690  Biso   1.000  C
  C43      1.0000 0.58030  0.69170  0.16300  Biso   1.000  C
  C44      1.0000 0.89390  0.70060  0.72750  Biso   1.000  C
  H24      1.0000 0.88010  0.68530  0.75590  Biso   1.000  H
  C45      1.0000 0.60880  0.60930  0.20950  Biso   1.000  C
  C46      1.0000 0.54030  0.21100  0.18090  Biso   1.000  C
  H25      1.0000 0.50990  0.23140  0.16050  Biso   1.000  H
  C47      1.0000 0.64470  0.64070  0.24160  Biso   1.000  C
  H26      1.0000 0.66710  0.62340  0.26720  Biso   1.000  H
  C48      1.0000 0.71320  0.89840  0.36470  Biso   1.000  C
  H27      1.0000 0.76260  0.91170  0.35300  Biso   1.000  H
  H28      1.0000 0.68090  0.93030  0.37190  Biso   1.000  H
  C49      1.0000 0.90150  0.08880  0.72940  Biso   1.000  C
  H29      1.0000 0.89080  0.10470  0.75810  Biso   1.000  H
  C50      1.0000 0.57090  0.03330  0.16350  Biso   1.000  C
  H30      1.0000 0.55600  0.05450  0.13800  Biso   1.000  H
  C51      1.0000 0.67350  0.86240  0.32790  Biso   1.000  C
  H31      1.0000 0.62450  0.84870  0.34090  Biso   1.000  H
  C52      1.0000 0.65910  0.51460  0.23510  Biso   1.000  C
  H32      1.0000 0.70150  0.53140  0.24920  Biso   1.000  H
  C53      1.0000 0.57900  0.97560  0.15800  Biso   1.000  C
  C54      1.0000 0.53900  0.15350  0.17670  Biso   1.000  C
  H33      1.0000 0.51050  0.13660  0.15320  Biso   1.000  H
  C55      1.0000 0.74300  0.77720  0.36020  Biso   1.000  C
  H34      1.0000 0.69580  0.75980  0.37140  Biso   1.000  H
  H35      1.0000 0.77980  0.74810  0.35240  Biso   1.000  H
  C56      1.0000 0.89130  0.03150  0.72440  Biso   1.000  C
  C57      1.0000 0.77680  0.81430  0.39760  Biso   1.000  C
  H36      1.0000 0.82770  0.82700  0.38790  Biso   1.000  H
  H37      1.0000 0.78310  0.79290  0.42580  Biso   1.000  H
  C58      1.0000 0.80230  0.36050  0.94510  Biso   1.000  C
  C59      1.0000 0.96540  0.21920  0.66740  Biso   1.000  C
  H38      1.0000 0.99100  0.20440  0.64180  Biso   1.000  H
  C60      1.0000 0.96160  0.27500  0.67320  Biso   1.000  C
  H39      1.0000 0.98510  0.29760  0.65110  Biso   1.000  H
  C61      1.0000 0.72540  0.81180  0.31730  Biso   1.000  C
  H40      1.0000 0.77510  0.82640  0.30620  Biso   1.000  H
  C62      1.0000 0.89610  0.26640  0.74190  Biso   1.000  C
  H41      1.0000 0.87280  0.28240  0.76780  Biso   1.000  H
  C63      1.0000 0.94030  0.09720  0.65090  Biso   1.000  C
  H42      1.0000 0.95670  0.11940  0.62630  Biso   1.000  H
  N8       1.0000 0.86190  0.84010  0.76530  Biso   1.000  N
  C64      1.0000 0.72580  0.86430  0.40750  Biso   1.000  C
  H43      1.0000 0.67610  0.85180  0.41940  Biso   1.000  H
  H44      1.0000 0.75010  0.88720  0.43110  Biso   1.000  H
  C65      1.0000 0.92640  0.12270  0.69460  Biso   1.000  C
  C66      1.0000 0.78870  0.95460  0.84390  Biso   1.000  C
  H45      1.0000 0.75700  0.98680  0.83660  Biso   1.000  H
  H46      1.0000 0.83810  0.96770  0.85580  Biso   1.000  H
  C67      1.0000 0.64790  0.91840  0.09690  Biso   1.000  C
  H47      1.0000 0.69020  0.94410  0.09940  Biso   1.000  H
  H48      1.0000 0.64530  0.90430  0.06580  Biso   1.000  H
  H49      1.0000 0.65570  0.88810  0.11800  Biso   1.000  H
  C68      1.0000 0.57090  0.94840  0.10880  Biso   1.000  C
  C69      1.0000 0.91560  0.66530  0.69040  Biso   1.000  C
  C70      1.0000 0.74820  0.91980  0.88110  Biso   1.000  C
  H50      1.0000 0.69490  0.91320  0.87160  Biso   1.000  H
  H51      1.0000 0.74710  0.94070  0.90980  Biso   1.000  H
  C71      1.0000 0.89310  0.75810  0.72150  Biso   1.000  C
  C72      1.0000 0.89870  0.21060  0.73890  Biso   1.000  C
  H52      1.0000 0.87870  0.18960  0.76330  Biso   1.000  H
  C73      1.0000 0.93040  0.04170  0.64350  Biso   1.000  C
  C74      1.0000 0.63140  0.94040  0.28110  Biso   1.000  C
  H53      1.0000 0.62660  0.95970  0.30890  Biso   1.000  H
  C75      1.0000 0.91540  0.78330  0.67850  Biso   1.000  C
  C76      1.0000 0.84460  0.86690  0.81110  Biso   1.000  C
  H54      1.0000 0.89460  0.87640  0.82520  Biso   1.000  H
  C77      1.0000 0.61120  0.96900  0.24070  Biso   1.000  C
  C78      1.0000 0.68440  0.72970  0.27450  Biso   1.000  C
  H55      1.0000 0.70650  0.70950  0.29860  Biso   1.000  H
  C79      1.0000 0.80190  0.92210  0.80160  Biso   1.000  C
  H56      1.0000 0.75050  0.91220  0.78970  Biso   1.000  H
  C80      1.0000 0.78830  0.86350  0.88960  Biso   1.000  C
  H57      1.0000 0.83810  0.86990  0.90440  Biso   1.000  H
  H58      1.0000 0.75680  0.84150  0.91060  Biso   1.000  H
  C81      1.0000 0.50350  0.90620  0.11010  Biso   1.000  C
  H59      1.0000 0.51260  0.87970  0.13440  Biso   1.000  H
  H60      1.0000 0.50050  0.88710  0.08090  Biso   1.000  H
  H61      1.0000 0.45560  0.92540  0.11580  Biso   1.000  H
  C82      1.0000 0.80050  0.83220  0.84640  Biso   1.000  C
  H62      1.0000 0.75060  0.82160  0.83350  Biso   1.000  H
  H63      1.0000 0.82940  0.79850  0.85300  Biso   1.000  H
  C83      1.0000 0.95770  0.56960  0.66640  Biso   1.000  C
  H64      1.0000 0.98870  0.58450  0.64310  Biso   1.000  H
  O12      1.0000 0.90720  0.95280  0.67350  Biso   1.000  O
  C84      1.0000 0.59880  0.75670  0.09370  Biso   1.000  C
  H65      1.0000 0.61460  0.78660  0.11360  Biso   1.000  H
  H66      1.0000 0.57320  0.77150  0.06690  Biso   1.000  H
  H67      1.0000 0.64360  0.73590  0.08420  Biso   1.000  H
  C85      1.0000 0.95660  0.06360  0.55790  Biso   1.000  C
  H68      1.0000 0.91430  0.08960  0.55820  Biso   1.000  H
  H69      1.0000 0.00390  0.08260  0.56570  Biso   1.000  H
  H70      1.0000 0.96130  0.04740  0.52760  Biso   1.000  H
  C86      1.0000 0.78280  0.31780  0.07090  Biso   1.000  C
  H71      1.0000 0.81150  0.29930  0.09340  Biso   1.000  H
  C87      1.0000 0.90870  0.37990  0.89270  Biso   1.000  C
  H72      1.0000 0.96160  0.38530  0.88800  Biso   1.000  H
  C88      1.0000 0.54240  0.71800  0.12030  Biso   1.000  C
  C89      1.0000 0.51050  0.67580  0.08770  Biso   1.000  C
  H73      1.0000 0.54630  0.64540  0.08500  Biso   1.000  H
  H74      1.0000 0.50280  0.69240  0.05780  Biso   1.000  H
  H75      1.0000 0.46180  0.66230  0.09930  Biso   1.000  H
  C90      1.0000 0.94130  0.01760  0.59360  Biso   1.000  C
  C91      1.0000 0.81530  0.32640  0.02690  Biso   1.000  C
  H76      1.0000 0.86630  0.31580  0.02120  Biso   1.000  H
  C92      1.0000 0.55470  0.99180  0.07160  Biso   1.000  C
  H77      1.0000 0.50460  0.00810  0.07680  Biso   1.000  H
  H78      1.0000 0.55570  0.97440  0.04160  Biso   1.000  H
  H79      1.0000 0.59380  0.02030  0.07290  Biso   1.000  H
  C93      1.0000 0.86030  0.00020  0.76100  Biso   1.000  C
  H80      1.0000 0.84990  0.01980  0.78810  Biso   1.000  H
  C94      1.0000 0.93320  0.74870  0.63950  Biso   1.000  C
  C95      1.0000 0.47310  0.75520  0.13660  Biso   1.000  C
  H81      1.0000 0.42800  0.73240  0.14130  Biso   1.000  H
  H82      1.0000 0.46230  0.78280  0.11350  Biso   1.000  H
  H83      1.0000 0.48660  0.77320  0.16520  Biso   1.000  H
  C96      1.0000 0.58780  0.34360  0.39200  Biso   1.000  C
  H84      1.0000 0.53530  0.34840  0.38570  Biso   1.000  H
  C97      1.0000 0.70840  0.33640  0.08120  Biso   1.000  C
  C98      1.0000 0.86480  0.98770  0.57830  Biso   1.000  C
  H85      1.0000 0.86230  0.95160  0.59240  Biso   1.000  H
  H86      1.0000 0.86420  0.98390  0.54520  Biso   1.000  H
  H87      1.0000 0.82080  0.00940  0.58800  Biso   1.000  H
  C99      1.0000 0.95070  0.77440  0.59130  Biso   1.000  C
  C100     1.0000 0.87890  0.80640  0.57650  Biso   1.000  C
  H88      1.0000 0.83950  0.78080  0.56660  Biso   1.000  H
  H89      1.0000 0.89180  0.83090  0.55140  Biso   1.000  H
  H90      1.0000 0.85990  0.82780  0.60220  Biso   1.000  H
  C101     1.0000 0.02040  0.81390  0.59400  Biso   1.000  C
  H91      1.0000 0.00250  0.85110  0.59980  Biso   1.000  H
  H92      1.0000 0.04830  0.81300  0.56520  Biso   1.000  H
  H93      1.0000 0.05420  0.80240  0.61870  Biso   1.000  H
  C102     1.0000 0.01020  0.97630  0.59260  Biso   1.000  C
  H94      1.0000 0.05740  0.99570  0.59980  Biso   1.000  H
  H95      1.0000 0.01420  0.96000  0.56230  Biso   1.000  H
  H96      1.0000 0.00180  0.94750  0.61510  Biso   1.000  H
  C103     1.0000 0.86990  0.78940  0.76280  Biso   1.000  C
  H97      1.0000 0.86030  0.76910  0.78960  Biso   1.000  H
  C104     1.0000 0.96710  0.72970  0.55790  Biso   1.000  C
  H98      1.0000 0.01260  0.70970  0.56750  Biso   1.000  H
  H99      1.0000 0.92370  0.70470  0.55660  Biso   1.000  H
  H100     1.0000 0.97570  0.74550  0.52780  Biso   1.000  H
  V2       1.0000 0.85870  0.89282  0.70730  Biso   1.000  V
  V3       1.0000 0.59860  0.82970  0.23650  Biso   1.000  V
  V4       1.0000 0.91310  0.89670  0.72250  Biso   1.000  V
  Cd3      1.0000 0.09167  0.39461  0.79036  Biso   1.000  Cd
  Cd4      1.0000 0.40779  0.33387  0.28931  Biso   1.000  Cd
  O13      1.0000 0.39880  0.88950  0.30660  Biso   1.000  O
  N9       1.0000 0.07460  0.29960  0.79040  Biso   1.000  N
  N10      1.0000 0.40490  0.42990  0.28480  Biso   1.000  N
  V5       1.0000 0.32933  0.83941  0.27405  Biso   1.000  V
  N11      1.0000 0.08530  0.49060  0.79510  Biso   1.000  N
  N12      1.0000 0.41810  0.23900  0.28800  Biso   1.000  N
  O14      1.0000 0.33180  0.33160  0.22420  Biso   1.000  O
  O15      1.0000 0.10370  0.38840  0.86970  Biso   1.000  O
  O16      1.0000 0.39960  0.33600  0.36800  Biso   1.000  O
  C105     1.0000 0.38500  0.33370  0.19300  Biso   1.000  C
  O17      1.0000 0.45550  0.33830  0.20360  Biso   1.000  O
  O18      1.0000 0.04390  0.39860  0.70150  Biso   1.000  O
  C106     1.0000 0.11410  0.39270  0.69360  Biso   1.000  C
  O19      1.0000 0.16370  0.39390  0.72430  Biso   1.000  O
  O20      1.0000 0.38180  0.77960  0.30660  Biso   1.000  O
  O21      1.0000 0.21490  0.37690  0.83400  Biso   1.000  O
  C107     1.0000 0.17510  0.37590  0.86950  Biso   1.000  C
  C108     1.0000 0.39680  0.54700  0.28730  Biso   1.000  C
  C109     1.0000 0.35880  0.33430  0.14420  Biso   1.000  C
  O22      1.0000 0.08400  0.83730  0.82600  Biso   1.000  O
  C110     1.0000 0.14160  0.38190  0.64490  Biso   1.000  C
  C111     1.0000 0.11910  0.36980  0.56270  Biso   1.000  C
  H101     1.0000 0.08470  0.36940  0.53780  Biso   1.000  H
  C112     1.0000 0.37810  0.20740  0.25720  Biso   1.000  C
  H102     1.0000 0.34940  0.22540  0.23440  Biso   1.000  H
  C113     1.0000 0.38420  0.34560  0.06210  Biso   1.000  C
  H103     1.0000 0.41900  0.35170  0.03800  Biso   1.000  H
  O23      1.0000 0.28440  0.32410  0.33710  Biso   1.000  O
  C114     1.0000 0.21940  0.37180  0.63720  Biso   1.000  C
  H104     1.0000 0.25370  0.37110  0.66210  Biso   1.000  H
  C115     1.0000 0.37760  0.15090  0.25770  Biso   1.000  C
  H105     1.0000 0.34960  0.13140  0.23540  Biso   1.000  H
  C116     1.0000 0.32690  0.33080  0.37090  Biso   1.000  C
  N13      1.0000 0.15540  0.94950  0.73780  Biso   1.000  N
  C117     1.0000 0.38330  0.72460  0.30230  Biso   1.000  C
  N14      1.0000 0.34350  0.88930  0.21650  Biso   1.000  N
  C118     1.0000 0.12610  0.52320  0.76590  Biso   1.000  C
  H106     1.0000 0.15790  0.50660  0.74380  Biso   1.000  H
  C119     1.0000 0.41920  0.12170  0.29190  Biso   1.000  C
  C120     1.0000 0.45940  0.46110  0.30640  Biso   1.000  C
  H107     1.0000 0.50040  0.44280  0.32080  Biso   1.000  H
  C121     1.0000 0.30430  0.36970  0.49690  Biso   1.000  C
  H108     1.0000 0.33330  0.38820  0.51940  Biso   1.000  H
  C122     1.0000 0.08300  0.60440  0.80520  Biso   1.000  C
  C123     1.0000 0.12220  0.57800  0.76770  Biso   1.000  C
  H109     1.0000 0.14500  0.59930  0.74450  Biso   1.000  H
  C124     1.0000 0.42220  0.63540  0.32930  Biso   1.000  C
  H110     1.0000 0.44620  0.61330  0.35150  Biso   1.000  H
  C125     1.0000 0.06520  0.69270  0.85310  Biso   1.000  C
  H111     1.0000 0.05070  0.67020  0.87790  Biso   1.000  H
  C126     1.0000 0.25560  0.32860  0.08930  Biso   1.000  C
  H112     1.0000 0.20310  0.32320  0.08350  Biso   1.000  H
  C127     1.0000 0.07000  0.18290  0.79930  Biso   1.000  C
  C128     1.0000 0.28160  0.32640  0.13360  Biso   1.000  C
  H113     1.0000 0.24650  0.31950  0.15740  Biso   1.000  H
  C129     1.0000 0.30600  0.33860  0.05190  Biso   1.000  C
  C130     1.0000 0.41560  0.05990  0.29450  Biso   1.000  C
  C131     1.0000 0.08890  0.00670  0.82020  Biso   1.000  C
  C132     1.0000 0.04630  0.51220  0.82840  Biso   1.000  C
  H114     1.0000 0.02030  0.48930  0.84920  Biso   1.000  H
  N15      1.0000 0.31170  0.78270  0.22260  Biso   1.000  N
  C133     1.0000 0.34870  0.45720  0.26390  Biso   1.000  C
  H115     1.0000 0.31200  0.43680  0.24750  Biso   1.000  H
  C134     1.0000 0.39630  0.02790  0.25610  Biso   1.000  C
  H116     1.0000 0.38820  0.04530  0.22770  Biso   1.000  H
  C135     1.0000 0.45760  0.51790  0.30810  Biso   1.000  C
  H117     1.0000 0.49700  0.53720  0.32330  Biso   1.000  H
  C136     1.0000 0.22830  0.35080  0.50820  Biso   1.000  C
  C137     1.0000 0.19320  0.35930  0.00010  Biso   1.000  C
  H118     1.0000 0.16140  0.35960  0.02620  Biso   1.000  H
  C138     1.0000 0.16150  0.36760  0.95640  Biso   1.000  C
  H119     1.0000 0.10840  0.37340  0.95310  Biso   1.000  H
  C139     1.0000 0.20910  0.36720  0.91750  Biso   1.000  C
  C140     1.0000 0.28850  0.35850  0.92233  Biso   1.000  C
  H120     1.0000 0.32030  0.35820  0.89630  Biso   1.000  H
  C141     1.0000 0.32020  0.35020  0.96610  Biso   1.000  C
  H121     1.0000 0.37330  0.34440  0.96940  Biso   1.000  H
  C142     1.0000 0.27260  0.35060  0.00502  Biso   1.000  C
  C143     1.0000 0.33600  0.36140  0.45390  Biso   1.000  C
  H122     1.0000 0.38680  0.37230  0.44790  Biso   1.000  H
  C144     1.0000 0.24690  0.36260  0.59260  Biso   1.000  C
  H123     1.0000 0.29990  0.35770  0.58800  Biso   1.000  H
  C145     1.0000 0.35060  0.69820  0.26230  Biso   1.000  C
  C146     1.0000 0.40360  0.94260  0.30310  Biso   1.000  C
  C147     1.0000 0.41970  0.69170  0.33700  Biso   1.000  C
  C148     1.0000 0.10610  0.70060  0.77250  Biso   1.000  C
  H124     1.0000 0.11990  0.68530  0.74410  Biso   1.000  H
  C149     1.0000 0.39120  0.60930  0.29050  Biso   1.000  C
  C150     1.0000 0.45970  0.21100  0.31910  Biso   1.000  C
  H125     1.0000 0.49010  0.23140  0.33950  Biso   1.000  H
  C151     1.0000 0.35530  0.64070  0.25840  Biso   1.000  C
  H126     1.0000 0.33290  0.62340  0.23280  Biso   1.000  H
  C152     1.0000 0.28680  0.89840  0.13530  Biso   1.000  C
  H127     1.0000 0.23740  0.91170  0.14700  Biso   1.000  H
  H128     1.0000 0.31910  0.93030  0.12810  Biso   1.000  H
  C153     1.0000 0.09850  0.08880  0.77060  Biso   1.000  C
  H129     1.0000 0.10920  0.10470  0.74190  Biso   1.000  H
  C154     1.0000 0.42910  0.03330  0.33650  Biso   1.000  C
  H130     1.0000 0.44400  0.05450  0.36200  Biso   1.000  H
  C155     1.0000 0.32650  0.86240  0.17210  Biso   1.000  C
  H131     1.0000 0.37550  0.84870  0.15910  Biso   1.000  H
  C156     1.0000 0.34090  0.51460  0.26490  Biso   1.000  C
  H132     1.0000 0.29850  0.53140  0.25080  Biso   1.000  H
  C157     1.0000 0.42100  0.97560  0.34200  Biso   1.000  C
  C158     1.0000 0.46100  0.15350  0.32330  Biso   1.000  C
  H133     1.0000 0.48950  0.13660  0.34680  Biso   1.000  H
  C159     1.0000 0.25700  0.77720  0.13980  Biso   1.000  C
  H134     1.0000 0.30420  0.75980  0.12860  Biso   1.000  H
  H135     1.0000 0.22020  0.74810  0.14760  Biso   1.000  H
  C160     1.0000 0.10870  0.03150  0.77560  Biso   1.000  C
  C161     1.0000 0.22320  0.81430  0.10240  Biso   1.000  C
  H136     1.0000 0.17230  0.82700  0.11210  Biso   1.000  H
  H137     1.0000 0.21690  0.79290  0.07420  Biso   1.000  H
  C162     1.0000 0.19770  0.36050  0.55490  Biso   1.000  C
  C163     1.0000 0.03460  0.21920  0.83260  Biso   1.000  C
  H138     1.0000 0.00900  0.20440  0.85820  Biso   1.000  H
  C164     1.0000 0.03840  0.27500  0.82680  Biso   1.000  C
  H139     1.0000 0.01490  0.29760  0.84890  Biso   1.000  H
  C165     1.0000 0.27460  0.81180  0.18270  Biso   1.000  C
  H140     1.0000 0.22490  0.82640  0.19380  Biso   1.000  H
  C166     1.0000 0.10390  0.26640  0.75810  Biso   1.000  C
  H141     1.0000 0.12720  0.28240  0.73220  Biso   1.000  H
  C167     1.0000 0.05970  0.09720  0.84910  Biso   1.000  C
  H142     1.0000 0.04330  0.11940  0.87370  Biso   1.000  H
  N16      1.0000 0.13810  0.84010  0.73470  Biso   1.000  N
  C168     1.0000 0.27420  0.86430  0.09250  Biso   1.000  C
  H143     1.0000 0.32390  0.85180  0.08060  Biso   1.000  H
  H144     1.0000 0.24990  0.88720  0.06890  Biso   1.000  H
  C169     1.0000 0.07360  0.12270  0.80540  Biso   1.000  C
  C170     1.0000 0.21130  0.95460  0.65610  Biso   1.000  C
  H145     1.0000 0.24300  0.98680  0.66340  Biso   1.000  H
  H146     1.0000 0.16190  0.96770  0.64420  Biso   1.000  H
  C171     1.0000 0.35210  0.91840  0.40310  Biso   1.000  C
  H147     1.0000 0.30980  0.94410  0.40060  Biso   1.000  H
  H148     1.0000 0.35470  0.90430  0.43420  Biso   1.000  H
  H149     1.0000 0.34430  0.88810  0.38200  Biso   1.000  H
  C172     1.0000 0.42910  0.94840  0.39120  Biso   1.000  C
  C173     1.0000 0.08440  0.66530  0.80960  Biso   1.000  C
  C174     1.0000 0.25180  0.91980  0.61890  Biso   1.000  C
  H150     1.0000 0.30510  0.91320  0.62840  Biso   1.000  H
  H151     1.0000 0.25290  0.94070  0.59020  Biso   1.000  H
  C175     1.0000 0.10690  0.75810  0.77850  Biso   1.000  C
  C176     1.0000 0.10130  0.21060  0.76110  Biso   1.000  C
  H152     1.0000 0.12130  0.18960  0.73670  Biso   1.000  H
  C177     1.0000 0.06960  0.04170  0.85650  Biso   1.000  C
  C178     1.0000 0.36860  0.94040  0.21890  Biso   1.000  C
  H153     1.0000 0.37340  0.95970  0.19110  Biso   1.000  H
  C179     1.0000 0.08460  0.78330  0.82150  Biso   1.000  C
  C180     1.0000 0.15540  0.86690  0.68890  Biso   1.000  C
  H154     1.0000 0.10540  0.87640  0.67480  Biso   1.000  H
  C181     1.0000 0.38880  0.96900  0.25930  Biso   1.000  C
  C182     1.0000 0.31560  0.72970  0.22550  Biso   1.000  C
  H155     1.0000 0.29350  0.70950  0.20140  Biso   1.000  H
  C183     1.0000 0.19810  0.92210  0.69840  Biso   1.000  C
  H156     1.0000 0.24950  0.91220  0.71030  Biso   1.000  H
  C184     1.0000 0.21170  0.86350  0.61040  Biso   1.000  C
  H157     1.0000 0.16190  0.86990  0.59560  Biso   1.000  H
  H158     1.0000 0.24320  0.84150  0.58940  Biso   1.000  H
  C185     1.0000 0.49650  0.90620  0.38990  Biso   1.000  C
  H159     1.0000 0.48740  0.87970  0.36560  Biso   1.000  H
  H160     1.0000 0.49950  0.88710  0.41910  Biso   1.000  H
  H161     1.0000 0.54440  0.92540  0.38420  Biso   1.000  H
  C186     1.0000 0.19950  0.83220  0.65360  Biso   1.000  C
  H162     1.0000 0.24940  0.82160  0.66650  Biso   1.000  H
  H163     1.0000 0.17060  0.79850  0.64700  Biso   1.000  H
  C187     1.0000 0.04230  0.56960  0.83360  Biso   1.000  C
  H164     1.0000 0.01130  0.58450  0.85690  Biso   1.000  H
  O24      1.0000 0.09280  0.95280  0.82650  Biso   1.000  O
  C188     1.0000 0.40120  0.75670  0.40630  Biso   1.000  C
  H165     1.0000 0.38540  0.78660  0.38640  Biso   1.000  H
  H166     1.0000 0.42680  0.77150  0.43310  Biso   1.000  H
  H167     1.0000 0.35640  0.73590  0.41580  Biso   1.000  H
  C189     1.0000 0.04340  0.06360  0.94210  Biso   1.000  C
  H168     1.0000 0.08570  0.08960  0.94180  Biso   1.000  H
  H169     1.0000 0.99610  0.08260  0.93430  Biso   1.000  H
  H170     1.0000 0.03870  0.04740  0.97240  Biso   1.000  H
  C190     1.0000 0.21720  0.31780  0.42910  Biso   1.000  C
  H171     1.0000 0.18850  0.29930  0.40660  Biso   1.000  H
  C191     1.0000 0.09130  0.37990  0.60730  Biso   1.000  C
  H172     1.0000 0.03840  0.38530  0.61200  Biso   1.000  H
  C192     1.0000 0.45760  0.71800  0.37970  Biso   1.000  C
  C193     1.0000 0.48950  0.67580  0.41230  Biso   1.000  C
  H173     1.0000 0.45370  0.64540  0.41500  Biso   1.000  H
  H174     1.0000 0.49720  0.69240  0.44220  Biso   1.000  H
  H175     1.0000 0.53820  0.66230  0.40070  Biso   1.000  H
  C194     1.0000 0.05870  0.01760  0.90640  Biso   1.000  C
  C195     1.0000 0.18470  0.32640  0.47310  Biso   1.000  C
  H176     1.0000 0.13370  0.31580  0.47880  Biso   1.000  H
  C196     1.0000 0.44530  0.99180  0.42840  Biso   1.000  C
  H177     1.0000 0.49540  0.00810  0.42320  Biso   1.000  H
  H178     1.0000 0.44430  0.97440  0.45840  Biso   1.000  H
  H179     1.0000 0.40620  0.02030  0.42710  Biso   1.000  H
  C197     1.0000 0.13970  0.00020  0.73900  Biso   1.000  C
  H180     1.0000 0.15010  0.01980  0.71190  Biso   1.000  H
  C198     1.0000 0.06680  0.74870  0.86050  Biso   1.000  C
  C199     1.0000 0.52690  0.75520  0.36340  Biso   1.000  C
  H181     1.0000 0.57200  0.73240  0.35870  Biso   1.000  H
  H182     1.0000 0.53770  0.78280  0.38650  Biso   1.000  H
  H183     1.0000 0.51340  0.77320  0.33480  Biso   1.000  H
  C200     1.0000 0.41220  0.34360  0.10800  Biso   1.000  C
  H184     1.0000 0.46470  0.34840  0.11430  Biso   1.000  H
  C201     1.0000 0.29160  0.33640  0.41880  Biso   1.000  C
  C202     1.0000 0.13520  0.98770  0.92170  Biso   1.000  C
  H185     1.0000 0.13770  0.95160  0.90760  Biso   1.000  H
  H186     1.0000 0.13580  0.98390  0.95480  Biso   1.000  H
  H187     1.0000 0.17920  0.00940  0.91200  Biso   1.000  H
  C203     1.0000 0.04930  0.77440  0.90870  Biso   1.000  C
  C204     1.0000 0.12110  0.80640  0.92350  Biso   1.000  C
  H188     1.0000 0.16050  0.78080  0.93340  Biso   1.000  H
  H189     1.0000 0.10820  0.83090  0.94860  Biso   1.000  H
  H190     1.0000 0.14010  0.82780  0.89780  Biso   1.000  H
  C205     1.0000 0.97960  0.81390  0.90600  Biso   1.000  C
  H191     1.0000 0.99750  0.85110  0.90020  Biso   1.000  H
  H192     1.0000 0.95170  0.81300  0.93480  Biso   1.000  H
  H193     1.0000 0.94580  0.80240  0.88130  Biso   1.000  H
  C206     1.0000 0.98980  0.97630  0.90740  Biso   1.000  C
  H194     1.0000 0.94260  0.99570  0.90020  Biso   1.000  H
  H195     1.0000 0.98580  0.96000  0.93770  Biso   1.000  H
  H196     1.0000 0.99820  0.94750  0.88490  Biso   1.000  H
  C207     1.0000 0.13010  0.78940  0.73720  Biso   1.000  C
  H197     1.0000 0.13970  0.76910  0.71040  Biso   1.000  H
  C208     1.0000 0.03290  0.72970  0.94210  Biso   1.000  C
  H198     1.0000 0.98740  0.70970  0.93250  Biso   1.000  H
  H199     1.0000 0.07630  0.70470  0.94340  Biso   1.000  H
  H200     1.0000 0.02430  0.74550  0.97220  Biso   1.000  H
  V6       1.0000 0.14130  0.89282  0.79270  Biso   1.000  V
  V7       1.0000 0.40140  0.82970  0.26350  Biso   1.000  V
  V8       1.0000 0.08690  0.89670  0.77750  Biso   1.000  V
  O25      1.0000 0.00000  0.90320  0.75000  Biso   1.000  O
  O26      1.0000 0.50000  0.81780  0.25000  Biso   1.000  O
  Cd5      1.0000 0.09167  0.60539  0.20964  Biso   1.000  Cd
  Cd6      1.0000 0.40779  0.66613  0.71069  Biso   1.000  Cd
  O27      1.0000 0.39880  0.11050  0.69340  Biso   1.000  O
  N17      1.0000 0.07460  0.70040  0.20960  Biso   1.000  N
  N18      1.0000 0.40490  0.57010  0.71520  Biso   1.000  N
  V9       1.0000 0.32933  0.16059  0.72595  Biso   1.000  V
  N19      1.0000 0.08530  0.50940  0.20490  Biso   1.000  N
  N20      1.0000 0.41810  0.76100  0.71200  Biso   1.000  N
  O28      1.0000 0.33180  0.66840  0.77580  Biso   1.000  O
  O29      1.0000 0.10370  0.61160  0.13030  Biso   1.000  O
  O30      1.0000 0.39960  0.66400  0.63200  Biso   1.000  O
  C209     1.0000 0.38500  0.66630  0.80700  Biso   1.000  C
  O31      1.0000 0.45550  0.66170  0.79640  Biso   1.000  O
  O32      1.0000 0.04390  0.60140  0.29850  Biso   1.000  O
  C210     1.0000 0.11410  0.60730  0.30640  Biso   1.000  C
  O33      1.0000 0.16370  0.60610  0.27570  Biso   1.000  O
  O34      1.0000 0.38180  0.22040  0.69340  Biso   1.000  O
  O35      1.0000 0.21490  0.62310  0.16600  Biso   1.000  O
  C211     1.0000 0.17510  0.62410  0.13050  Biso   1.000  C
  C212     1.0000 0.39680  0.45300  0.71270  Biso   1.000  C
  C213     1.0000 0.35880  0.66570  0.85580  Biso   1.000  C
  O36      1.0000 0.08400  0.16270  0.17400  Biso   1.000  O
  C214     1.0000 0.14160  0.61810  0.35510  Biso   1.000  C
  C215     1.0000 0.11910  0.63020  0.43730  Biso   1.000  C
  H201     1.0000 0.08470  0.63060  0.46220  Biso   1.000  H
  C216     1.0000 0.37810  0.79260  0.74280  Biso   1.000  C
  H202     1.0000 0.34940  0.77460  0.76560  Biso   1.000  H
  C217     1.0000 0.38420  0.65440  0.93790  Biso   1.000  C
  H203     1.0000 0.41900  0.64830  0.96200  Biso   1.000  H
  O37      1.0000 0.28440  0.67590  0.66290  Biso   1.000  O
  C218     1.0000 0.21940  0.62820  0.36280  Biso   1.000  C
  H204     1.0000 0.25370  0.62890  0.33790  Biso   1.000  H
  C219     1.0000 0.37760  0.84910  0.74230  Biso   1.000  C
  H205     1.0000 0.34960  0.86860  0.76460  Biso   1.000  H
  C220     1.0000 0.32690  0.66920  0.62910  Biso   1.000  C
  N21      1.0000 0.15540  0.05050  0.26220  Biso   1.000  N
  C221     1.0000 0.38330  0.27540  0.69770  Biso   1.000  C
  N22      1.0000 0.34350  0.11070  0.78350  Biso   1.000  N
  C222     1.0000 0.12610  0.47680  0.23410  Biso   1.000  C
  H206     1.0000 0.15790  0.49340  0.25620  Biso   1.000  H
  C223     1.0000 0.41920  0.87830  0.70810  Biso   1.000  C
  C224     1.0000 0.45940  0.53890  0.69360  Biso   1.000  C
  H207     1.0000 0.50040  0.55720  0.67920  Biso   1.000  H
  C225     1.0000 0.30430  0.63030  0.50310  Biso   1.000  C
  H208     1.0000 0.33330  0.61180  0.48060  Biso   1.000  H
  C226     1.0000 0.08300  0.39560  0.19480  Biso   1.000  C
  C227     1.0000 0.12220  0.42200  0.23230  Biso   1.000  C
  H209     1.0000 0.14500  0.40070  0.25550  Biso   1.000  H
  C228     1.0000 0.42220  0.36460  0.67070  Biso   1.000  C
  H210     1.0000 0.44620  0.38670  0.64850  Biso   1.000  H
  C229     1.0000 0.06520  0.30730  0.14690  Biso   1.000  C
  H211     1.0000 0.05070  0.32980  0.12210  Biso   1.000  H
  C230     1.0000 0.25560  0.67140  0.91070  Biso   1.000  C
  H212     1.0000 0.20310  0.67680  0.91650  Biso   1.000  H
  C231     1.0000 0.07000  0.81710  0.20070  Biso   1.000  C
  C232     1.0000 0.28160  0.67360  0.86640  Biso   1.000  C
  H213     1.0000 0.24650  0.68050  0.84260  Biso   1.000  H
  C233     1.0000 0.30600  0.66140  0.94810  Biso   1.000  C
  C234     1.0000 0.41560  0.94010  0.70550  Biso   1.000  C
  C235     1.0000 0.08890  0.99330  0.17980  Biso   1.000  C
  C236     1.0000 0.04630  0.48780  0.17160  Biso   1.000  C
  H214     1.0000 0.02030  0.51070  0.15080  Biso   1.000  H
  N23      1.0000 0.31170  0.21730  0.77740  Biso   1.000  N
  C237     1.0000 0.34870  0.54280  0.73610  Biso   1.000  C
  H215     1.0000 0.31200  0.56320  0.75250  Biso   1.000  H
  C238     1.0000 0.39630  0.97210  0.74390  Biso   1.000  C
  H216     1.0000 0.38820  0.95470  0.77230  Biso   1.000  H
  C239     1.0000 0.45760  0.48210  0.69190  Biso   1.000  C
  H217     1.0000 0.49700  0.46280  0.67670  Biso   1.000  H
  C240     1.0000 0.22830  0.64920  0.49180  Biso   1.000  C
  C241     1.0000 0.19320  0.64070  0.99990  Biso   1.000  C
  H218     1.0000 0.16140  0.64040  0.97380  Biso   1.000  H
  C242     1.0000 0.16150  0.63240  0.04360  Biso   1.000  C
  H219     1.0000 0.10840  0.62660  0.04690  Biso   1.000  H
  C243     1.0000 0.20910  0.63280  0.08250  Biso   1.000  C
  C244     1.0000 0.28850  0.64150  0.07767  Biso   1.000  C
  H220     1.0000 0.32030  0.64180  0.10370  Biso   1.000  H
  C245     1.0000 0.32020  0.64980  0.03390  Biso   1.000  C
  H221     1.0000 0.37330  0.65560  0.03060  Biso   1.000  H
  C246     1.0000 0.27260  0.64940  0.99498  Biso   1.000  C
  C247     1.0000 0.33600  0.63860  0.54610  Biso   1.000  C
  H222     1.0000 0.38680  0.62770  0.55210  Biso   1.000  H
  C248     1.0000 0.24690  0.63740  0.40740  Biso   1.000  C
  H223     1.0000 0.29990  0.64230  0.41200  Biso   1.000  H
  C249     1.0000 0.35060  0.30180  0.73770  Biso   1.000  C
  C250     1.0000 0.40360  0.05740  0.69690  Biso   1.000  C
  C251     1.0000 0.41970  0.30830  0.66300  Biso   1.000  C
  C252     1.0000 0.10610  0.29940  0.22750  Biso   1.000  C
  H224     1.0000 0.11990  0.31470  0.25590  Biso   1.000  H
  C253     1.0000 0.39120  0.39070  0.70950  Biso   1.000  C
  C254     1.0000 0.45970  0.78900  0.68090  Biso   1.000  C
  H225     1.0000 0.49010  0.76860  0.66050  Biso   1.000  H
  C255     1.0000 0.35530  0.35930  0.74160  Biso   1.000  C
  H226     1.0000 0.33290  0.37660  0.76720  Biso   1.000  H
  C256     1.0000 0.28680  0.10160  0.86470  Biso   1.000  C
  H227     1.0000 0.23740  0.08830  0.85300  Biso   1.000  H
  H228     1.0000 0.31910  0.06970  0.87190  Biso   1.000  H
  C257     1.0000 0.09850  0.91120  0.22940  Biso   1.000  C
  H229     1.0000 0.10920  0.89530  0.25810  Biso   1.000  H
  C258     1.0000 0.42910  0.96670  0.66350  Biso   1.000  C
  H230     1.0000 0.44400  0.94550  0.63800  Biso   1.000  H
  C259     1.0000 0.32650  0.13760  0.82790  Biso   1.000  C
  H231     1.0000 0.37550  0.15130  0.84090  Biso   1.000  H
  C260     1.0000 0.34090  0.48540  0.73510  Biso   1.000  C
  H232     1.0000 0.29850  0.46860  0.74920  Biso   1.000  H
  C261     1.0000 0.42100  0.02440  0.65800  Biso   1.000  C
  C262     1.0000 0.46100  0.84650  0.67670  Biso   1.000  C
  H233     1.0000 0.48950  0.86340  0.65320  Biso   1.000  H
  C263     1.0000 0.25700  0.22280  0.86020  Biso   1.000  C
  H234     1.0000 0.30420  0.24020  0.87140  Biso   1.000  H
  H235     1.0000 0.22020  0.25190  0.85240  Biso   1.000  H
  C264     1.0000 0.10870  0.96850  0.22440  Biso   1.000  C
  C265     1.0000 0.22320  0.18570  0.89760  Biso   1.000  C
  H236     1.0000 0.17230  0.17300  0.88790  Biso   1.000  H
  H237     1.0000 0.21690  0.20710  0.92580  Biso   1.000  H
  C266     1.0000 0.19770  0.63950  0.44510  Biso   1.000  C
  C267     1.0000 0.03460  0.78080  0.16740  Biso   1.000  C
  H238     1.0000 0.00900  0.79560  0.14180  Biso   1.000  H
  C268     1.0000 0.03840  0.72500  0.17320  Biso   1.000  C
  H239     1.0000 0.01490  0.70240  0.15110  Biso   1.000  H
  C269     1.0000 0.27460  0.18820  0.81730  Biso   1.000  C
  H240     1.0000 0.22490  0.17360  0.80620  Biso   1.000  H
  C270     1.0000 0.10390  0.73360  0.24190  Biso   1.000  C
  H241     1.0000 0.12720  0.71760  0.26780  Biso   1.000  H
  C271     1.0000 0.05970  0.90280  0.15090  Biso   1.000  C
  H242     1.0000 0.04330  0.88060  0.12630  Biso   1.000  H
  N24      1.0000 0.13810  0.15990  0.26530  Biso   1.000  N
  C272     1.0000 0.27420  0.13570  0.90750  Biso   1.000  C
  H243     1.0000 0.32390  0.14820  0.91940  Biso   1.000  H
  H244     1.0000 0.24990  0.11280  0.93110  Biso   1.000  H
  C273     1.0000 0.07360  0.87730  0.19460  Biso   1.000  C
  C274     1.0000 0.21130  0.04540  0.34390  Biso   1.000  C
  H245     1.0000 0.24300  0.01320  0.33660  Biso   1.000  H
  H246     1.0000 0.16190  0.03230  0.35580  Biso   1.000  H
  C275     1.0000 0.35210  0.08160  0.59690  Biso   1.000  C
  H247     1.0000 0.30980  0.05590  0.59940  Biso   1.000  H
  H248     1.0000 0.35470  0.09570  0.56580  Biso   1.000  H
  H249     1.0000 0.34430  0.11190  0.61800  Biso   1.000  H
  C276     1.0000 0.42910  0.05160  0.60880  Biso   1.000  C
  C277     1.0000 0.08440  0.33470  0.19040  Biso   1.000  C
  C278     1.0000 0.25180  0.08020  0.38110  Biso   1.000  C
  H250     1.0000 0.30510  0.08680  0.37160  Biso   1.000  H
  H251     1.0000 0.25290  0.05930  0.40980  Biso   1.000  H
  C279     1.0000 0.10690  0.24190  0.22150  Biso   1.000  C
  C280     1.0000 0.10130  0.78940  0.23890  Biso   1.000  C
  H252     1.0000 0.12130  0.81040  0.26330  Biso   1.000  H
  C281     1.0000 0.06960  0.95830  0.14350  Biso   1.000  C
  C282     1.0000 0.36860  0.05960  0.78110  Biso   1.000  C
  H253     1.0000 0.37340  0.04030  0.80890  Biso   1.000  H
  C283     1.0000 0.08460  0.21670  0.17850  Biso   1.000  C
  C284     1.0000 0.15540  0.13310  0.31110  Biso   1.000  C
  H254     1.0000 0.10540  0.12360  0.32520  Biso   1.000  H
  C285     1.0000 0.38880  0.03100  0.74070  Biso   1.000  C
  C286     1.0000 0.31560  0.27030  0.77450  Biso   1.000  C
  H255     1.0000 0.29350  0.29050  0.79860  Biso   1.000  H
  C287     1.0000 0.19810  0.07790  0.30160  Biso   1.000  C
  H256     1.0000 0.24950  0.08780  0.28970  Biso   1.000  H
  C288     1.0000 0.21170  0.13650  0.38960  Biso   1.000  C
  H257     1.0000 0.16190  0.13010  0.40440  Biso   1.000  H
  H258     1.0000 0.24320  0.15850  0.41060  Biso   1.000  H
  C289     1.0000 0.49650  0.09380  0.61010  Biso   1.000  C
  H259     1.0000 0.48740  0.12030  0.63440  Biso   1.000  H
  H260     1.0000 0.49950  0.11290  0.58090  Biso   1.000  H
  H261     1.0000 0.54440  0.07460  0.61580  Biso   1.000  H
  C290     1.0000 0.19950  0.16780  0.34640  Biso   1.000  C
  H262     1.0000 0.24940  0.17840  0.33350  Biso   1.000  H
  H263     1.0000 0.17060  0.20150  0.35300  Biso   1.000  H
  C291     1.0000 0.04230  0.43040  0.16640  Biso   1.000  C
  H264     1.0000 0.01130  0.41550  0.14310  Biso   1.000  H
  O38      1.0000 0.09280  0.04720  0.17350  Biso   1.000  O
  C292     1.0000 0.40120  0.24330  0.59370  Biso   1.000  C
  H265     1.0000 0.38540  0.21340  0.61360  Biso   1.000  H
  H266     1.0000 0.42680  0.22850  0.56690  Biso   1.000  H
  H267     1.0000 0.35640  0.26410  0.58420  Biso   1.000  H
  C293     1.0000 0.04340  0.93640  0.05790  Biso   1.000  C
  H268     1.0000 0.08570  0.91040  0.05820  Biso   1.000  H
  H269     1.0000 0.99610  0.91740  0.06570  Biso   1.000  H
  H270     1.0000 0.03870  0.95260  0.02760  Biso   1.000  H
  C294     1.0000 0.21720  0.68220  0.57090  Biso   1.000  C
  H271     1.0000 0.18850  0.70070  0.59340  Biso   1.000  H
  C295     1.0000 0.09130  0.62010  0.39270  Biso   1.000  C
  H272     1.0000 0.03840  0.61470  0.38800  Biso   1.000  H
  C296     1.0000 0.45760  0.28200  0.62030  Biso   1.000  C
  C297     1.0000 0.48950  0.32420  0.58770  Biso   1.000  C
  H273     1.0000 0.45370  0.35460  0.58500  Biso   1.000  H
  H274     1.0000 0.49720  0.30760  0.55780  Biso   1.000  H
  H275     1.0000 0.53820  0.33770  0.59930  Biso   1.000  H
  C298     1.0000 0.05870  0.98240  0.09360  Biso   1.000  C
  C299     1.0000 0.18470  0.67360  0.52690  Biso   1.000  C
  H276     1.0000 0.13370  0.68420  0.52120  Biso   1.000  H
  C300     1.0000 0.44530  0.00820  0.57160  Biso   1.000  C
  H277     1.0000 0.49540  0.99190  0.57680  Biso   1.000  H
  H278     1.0000 0.44430  0.02560  0.54160  Biso   1.000  H
  H279     1.0000 0.40620  0.97970  0.57290  Biso   1.000  H
  C301     1.0000 0.13970  0.99980  0.26100  Biso   1.000  C
  H280     1.0000 0.15010  0.98020  0.28810  Biso   1.000  H
  C302     1.0000 0.06680  0.25130  0.13950  Biso   1.000  C
  C303     1.0000 0.52690  0.24480  0.63660  Biso   1.000  C
  H281     1.0000 0.57200  0.26760  0.64130  Biso   1.000  H
  H282     1.0000 0.53770  0.21720  0.61350  Biso   1.000  H
  H283     1.0000 0.51340  0.22680  0.66520  Biso   1.000  H
  C304     1.0000 0.41220  0.65640  0.89200  Biso   1.000  C
  H284     1.0000 0.46470  0.65160  0.88570  Biso   1.000  H
  C305     1.0000 0.29160  0.66360  0.58120  Biso   1.000  C
  C306     1.0000 0.13520  0.01230  0.07830  Biso   1.000  C
  H285     1.0000 0.13770  0.04840  0.09240  Biso   1.000  H
  H286     1.0000 0.13580  0.01610  0.04520  Biso   1.000  H
  H287     1.0000 0.17920  0.99060  0.08800  Biso   1.000  H
  C307     1.0000 0.04930  0.22560  0.09130  Biso   1.000  C
  C308     1.0000 0.12110  0.19360  0.07650  Biso   1.000  C
  H288     1.0000 0.16050  0.21920  0.06660  Biso   1.000  H
  H289     1.0000 0.10820  0.16910  0.05140  Biso   1.000  H
  H290     1.0000 0.14010  0.17220  0.10220  Biso   1.000  H
  C309     1.0000 0.97960  0.18610  0.09400  Biso   1.000  C
  H291     1.0000 0.99750  0.14890  0.09980  Biso   1.000  H
  H292     1.0000 0.95170  0.18700  0.06520  Biso   1.000  H
  H293     1.0000 0.94580  0.19760  0.11870  Biso   1.000  H
  C310     1.0000 0.98980  0.02370  0.09260  Biso   1.000  C
  H294     1.0000 0.94260  0.00430  0.09980  Biso   1.000  H
  H295     1.0000 0.98580  0.04000  0.06230  Biso   1.000  H
  H296     1.0000 0.99820  0.05250  0.11510  Biso   1.000  H
  C311     1.0000 0.13010  0.21060  0.26280  Biso   1.000  C
  H297     1.0000 0.13970  0.23090  0.28960  Biso   1.000  H
  C312     1.0000 0.03290  0.27030  0.05790  Biso   1.000  C
  H298     1.0000 0.98740  0.29030  0.06750  Biso   1.000  H
  H299     1.0000 0.07630  0.29530  0.05660  Biso   1.000  H
  H300     1.0000 0.02430  0.25450  0.02780  Biso   1.000  H
  V10      1.0000 0.14130  0.10718  0.20730  Biso   1.000  V
  V11      1.0000 0.40140  0.17030  0.73650  Biso   1.000  V
  V12      1.0000 0.08690  0.10330  0.22250  Biso   1.000  V
  Cd7      1.0000 0.90833  0.60539  0.29036  Biso   1.000  Cd
  Cd8      1.0000 0.59221  0.66613  0.78931  Biso   1.000  Cd
  O39      1.0000 0.60120  0.11050  0.80660  Biso   1.000  O
  N25      1.0000 0.92540  0.70040  0.29040  Biso   1.000  N
  N26      1.0000 0.59510  0.57010  0.78480  Biso   1.000  N
  V13      1.0000 0.67067  0.16059  0.77405  Biso   1.000  V
  N27      1.0000 0.91470  0.50940  0.29510  Biso   1.000  N
  N28      1.0000 0.58190  0.76100  0.78800  Biso   1.000  N
  O40      1.0000 0.66820  0.66840  0.72420  Biso   1.000  O
  O41      1.0000 0.89630  0.61160  0.36970  Biso   1.000  O
  O42      1.0000 0.60040  0.66400  0.86800  Biso   1.000  O
  C313     1.0000 0.61500  0.66630  0.69300  Biso   1.000  C
  O43      1.0000 0.54450  0.66170  0.70360  Biso   1.000  O
  O44      1.0000 0.95610  0.60140  0.20150  Biso   1.000  O
  C314     1.0000 0.88590  0.60730  0.19360  Biso   1.000  C
  O45      1.0000 0.83630  0.60610  0.22430  Biso   1.000  O
  O46      1.0000 0.61820  0.22040  0.80660  Biso   1.000  O
  O47      1.0000 0.78510  0.62310  0.33400  Biso   1.000  O
  C315     1.0000 0.82490  0.62410  0.36950  Biso   1.000  C
  C316     1.0000 0.60320  0.45300  0.78730  Biso   1.000  C
  C317     1.0000 0.64120  0.66570  0.64420  Biso   1.000  C
  O48      1.0000 0.91600  0.16270  0.32600  Biso   1.000  O
  C318     1.0000 0.85840  0.61810  0.14490  Biso   1.000  C
  C319     1.0000 0.88090  0.63020  0.06270  Biso   1.000  C
  H301     1.0000 0.91530  0.63060  0.03780  Biso   1.000  H
  C320     1.0000 0.62190  0.79260  0.75720  Biso   1.000  C
  H302     1.0000 0.65060  0.77460  0.73440  Biso   1.000  H
  C321     1.0000 0.61580  0.65440  0.56210  Biso   1.000  C
  H303     1.0000 0.58100  0.64830  0.53800  Biso   1.000  H
  O49      1.0000 0.71560  0.67590  0.83710  Biso   1.000  O
  C322     1.0000 0.78060  0.62820  0.13720  Biso   1.000  C
  H304     1.0000 0.74630  0.62890  0.16210  Biso   1.000  H
  C323     1.0000 0.62240  0.84910  0.75770  Biso   1.000  C
  H305     1.0000 0.65040  0.86860  0.73540  Biso   1.000  H
  C324     1.0000 0.67310  0.66920  0.87090  Biso   1.000  C
  N29      1.0000 0.84460  0.05050  0.23780  Biso   1.000  N
  C325     1.0000 0.61670  0.27540  0.80230  Biso   1.000  C
  N30      1.0000 0.65650  0.11070  0.71650  Biso   1.000  N
  C326     1.0000 0.87390  0.47680  0.26590  Biso   1.000  C
  H306     1.0000 0.84210  0.49340  0.24380  Biso   1.000  H
  C327     1.0000 0.58080  0.87830  0.79190  Biso   1.000  C
  C328     1.0000 0.54060  0.53890  0.80640  Biso   1.000  C
  H307     1.0000 0.49960  0.55720  0.82080  Biso   1.000  H
  C329     1.0000 0.69570  0.63030  0.99690  Biso   1.000  C
  H308     1.0000 0.66670  0.61180  0.01940  Biso   1.000  H
  C330     1.0000 0.91700  0.39560  0.30520  Biso   1.000  C
  C331     1.0000 0.87780  0.42200  0.26770  Biso   1.000  C
  H309     1.0000 0.85500  0.40070  0.24450  Biso   1.000  H
  C332     1.0000 0.57780  0.36460  0.82930  Biso   1.000  C
  H310     1.0000 0.55380  0.38670  0.85150  Biso   1.000  H
  C333     1.0000 0.93480  0.30730  0.35310  Biso   1.000  C
  H311     1.0000 0.94930  0.32980  0.37790  Biso   1.000  H
  C334     1.0000 0.74440  0.67140  0.58930  Biso   1.000  C
  H312     1.0000 0.79690  0.67680  0.58350  Biso   1.000  H
  C335     1.0000 0.93000  0.81710  0.29930  Biso   1.000  C
  C336     1.0000 0.71840  0.67360  0.63360  Biso   1.000  C
  H313     1.0000 0.75350  0.68050  0.65740  Biso   1.000  H
  C337     1.0000 0.69400  0.66140  0.55190  Biso   1.000  C
  C338     1.0000 0.58440  0.94010  0.79450  Biso   1.000  C
  C339     1.0000 0.91110  0.99330  0.32020  Biso   1.000  C
  C340     1.0000 0.95370  0.48780  0.32840  Biso   1.000  C
  H314     1.0000 0.97970  0.51070  0.34920  Biso   1.000  H
  N31      1.0000 0.68830  0.21730  0.72260  Biso   1.000  N
  C341     1.0000 0.65130  0.54280  0.76390  Biso   1.000  C
  H315     1.0000 0.68800  0.56320  0.74750  Biso   1.000  H
  C342     1.0000 0.60370  0.97210  0.75610  Biso   1.000  C
  H316     1.0000 0.61180  0.95470  0.72770  Biso   1.000  H
  C343     1.0000 0.54240  0.48210  0.80810  Biso   1.000  C
  H317     1.0000 0.50300  0.46280  0.82330  Biso   1.000  H
  C344     1.0000 0.77170  0.64920  0.00820  Biso   1.000  C
  C345     1.0000 0.80680  0.64070  0.50010  Biso   1.000  C
  H318     1.0000 0.83860  0.64040  0.52620  Biso   1.000  H
  C346     1.0000 0.83850  0.63240  0.45640  Biso   1.000  C
  H319     1.0000 0.89160  0.62660  0.45310  Biso   1.000  H
  C347     1.0000 0.79090  0.63280  0.41750  Biso   1.000  C
  C348     1.0000 0.71150  0.64150  0.42233  Biso   1.000  C
  H320     1.0000 0.67970  0.64180  0.39630  Biso   1.000  H
  C349     1.0000 0.67980  0.64980  0.46610  Biso   1.000  C
  H321     1.0000 0.62670  0.65560  0.46940  Biso   1.000  H
  C350     1.0000 0.72740  0.64940  0.50502  Biso   1.000  C
  C351     1.0000 0.66400  0.63860  0.95390  Biso   1.000  C
  H322     1.0000 0.61320  0.62770  0.94790  Biso   1.000  H
  C352     1.0000 0.75310  0.63740  0.09260  Biso   1.000  C
  H323     1.0000 0.70010  0.64230  0.08800  Biso   1.000  H
  C353     1.0000 0.64940  0.30180  0.76230  Biso   1.000  C
  C354     1.0000 0.59640  0.05740  0.80310  Biso   1.000  C
  C355     1.0000 0.58030  0.30830  0.83700  Biso   1.000  C
  C356     1.0000 0.89390  0.29940  0.27250  Biso   1.000  C
  H324     1.0000 0.88010  0.31470  0.24410  Biso   1.000  H
  C357     1.0000 0.60880  0.39070  0.79050  Biso   1.000  C
  C358     1.0000 0.54030  0.78900  0.81910  Biso   1.000  C
  H325     1.0000 0.50990  0.76860  0.83950  Biso   1.000  H
  C359     1.0000 0.64470  0.35930  0.75840  Biso   1.000  C
  H326     1.0000 0.66710  0.37660  0.73280  Biso   1.000  H
  C360     1.0000 0.71320  0.10160  0.63530  Biso   1.000  C
  H327     1.0000 0.76260  0.08830  0.64700  Biso   1.000  H
  H328     1.0000 0.68090  0.06970  0.62810  Biso   1.000  H
  C361     1.0000 0.90150  0.91120  0.27060  Biso   1.000  C
  H329     1.0000 0.89080  0.89530  0.24190  Biso   1.000  H
  C362     1.0000 0.57090  0.96670  0.83650  Biso   1.000  C
  H330     1.0000 0.55600  0.94550  0.86200  Biso   1.000  H
  C363     1.0000 0.67350  0.13760  0.67210  Biso   1.000  C
  H331     1.0000 0.62450  0.15130  0.65910  Biso   1.000  H
  C364     1.0000 0.65910  0.48540  0.76490  Biso   1.000  C
  H332     1.0000 0.70150  0.46860  0.75080  Biso   1.000  H
  C365     1.0000 0.57900  0.02440  0.84200  Biso   1.000  C
  C366     1.0000 0.53900  0.84650  0.82330  Biso   1.000  C
  H333     1.0000 0.51050  0.86340  0.84680  Biso   1.000  H
  C367     1.0000 0.74300  0.22280  0.63980  Biso   1.000  C
  H334     1.0000 0.69580  0.24020  0.62860  Biso   1.000  H
  H335     1.0000 0.77980  0.25190  0.64760  Biso   1.000  H
  C368     1.0000 0.89130  0.96850  0.27560  Biso   1.000  C
  C369     1.0000 0.77680  0.18570  0.60240  Biso   1.000  C
  H336     1.0000 0.82770  0.17300  0.61210  Biso   1.000  H
  H337     1.0000 0.78310  0.20710  0.57420  Biso   1.000  H
  C370     1.0000 0.80230  0.63950  0.05490  Biso   1.000  C
  C371     1.0000 0.96540  0.78080  0.33260  Biso   1.000  C
  H338     1.0000 0.99100  0.79560  0.35820  Biso   1.000  H
  C372     1.0000 0.96160  0.72500  0.32680  Biso   1.000  C
  H339     1.0000 0.98510  0.70240  0.34890  Biso   1.000  H
  C373     1.0000 0.72540  0.18820  0.68270  Biso   1.000  C
  H340     1.0000 0.77510  0.17360  0.69380  Biso   1.000  H
  C374     1.0000 0.89610  0.73360  0.25810  Biso   1.000  C
  H341     1.0000 0.87280  0.71760  0.23220  Biso   1.000  H
  C375     1.0000 0.94030  0.90280  0.34910  Biso   1.000  C
  H342     1.0000 0.95670  0.88060  0.37370  Biso   1.000  H
  N32      1.0000 0.86190  0.15990  0.23470  Biso   1.000  N
  C376     1.0000 0.72580  0.13570  0.59250  Biso   1.000  C
  H343     1.0000 0.67610  0.14820  0.58060  Biso   1.000  H
  H344     1.0000 0.75010  0.11280  0.56890  Biso   1.000  H
  C377     1.0000 0.92640  0.87730  0.30540  Biso   1.000  C
  C378     1.0000 0.78870  0.04540  0.15610  Biso   1.000  C
  H345     1.0000 0.75700  0.01320  0.16340  Biso   1.000  H
  H346     1.0000 0.83810  0.03230  0.14420  Biso   1.000  H
  C379     1.0000 0.64790  0.08160  0.90310  Biso   1.000  C
  H347     1.0000 0.69020  0.05590  0.90060  Biso   1.000  H
  H348     1.0000 0.64530  0.09570  0.93420  Biso   1.000  H
  H349     1.0000 0.65570  0.11190  0.88200  Biso   1.000  H
  C380     1.0000 0.57090  0.05160  0.89120  Biso   1.000  C
  C381     1.0000 0.91560  0.33470  0.30960  Biso   1.000  C
  C382     1.0000 0.74820  0.08020  0.11890  Biso   1.000  C
  H350     1.0000 0.69490  0.08680  0.12840  Biso   1.000  H
  H351     1.0000 0.74710  0.05930  0.09020  Biso   1.000  H
  C383     1.0000 0.89310  0.24190  0.27850  Biso   1.000  C
  C384     1.0000 0.89870  0.78940  0.26110  Biso   1.000  C
  H352     1.0000 0.87870  0.81040  0.23670  Biso   1.000  H
  C385     1.0000 0.93040  0.95830  0.35650  Biso   1.000  C
  C386     1.0000 0.63140  0.05960  0.71890  Biso   1.000  C
  H353     1.0000 0.62660  0.04030  0.69110  Biso   1.000  H
  C387     1.0000 0.91540  0.21670  0.32150  Biso   1.000  C
  C388     1.0000 0.84460  0.13310  0.18890  Biso   1.000  C
  H354     1.0000 0.89460  0.12360  0.17480  Biso   1.000  H
  C389     1.0000 0.61120  0.03100  0.75930  Biso   1.000  C
  C390     1.0000 0.68440  0.27030  0.72550  Biso   1.000  C
  H355     1.0000 0.70650  0.29050  0.70140  Biso   1.000  H
  C391     1.0000 0.80190  0.07790  0.19840  Biso   1.000  C
  H356     1.0000 0.75050  0.08780  0.21030  Biso   1.000  H
  C392     1.0000 0.78830  0.13650  0.11040  Biso   1.000  C
  H357     1.0000 0.83810  0.13010  0.09560  Biso   1.000  H
  H358     1.0000 0.75680  0.15850  0.08940  Biso   1.000  H
  C393     1.0000 0.50350  0.09380  0.88990  Biso   1.000  C
  H359     1.0000 0.51260  0.12030  0.86560  Biso   1.000  H
  H360     1.0000 0.50050  0.11290  0.91910  Biso   1.000  H
  H361     1.0000 0.45560  0.07460  0.88420  Biso   1.000  H
  C394     1.0000 0.80050  0.16780  0.15360  Biso   1.000  C
  H362     1.0000 0.75060  0.17840  0.16650  Biso   1.000  H
  H363     1.0000 0.82940  0.20150  0.14700  Biso   1.000  H
  C395     1.0000 0.95770  0.43040  0.33360  Biso   1.000  C
  H364     1.0000 0.98870  0.41550  0.35690  Biso   1.000  H
  O50      1.0000 0.90720  0.04720  0.32650  Biso   1.000  O
  C396     1.0000 0.59880  0.24330  0.90630  Biso   1.000  C
  H365     1.0000 0.61460  0.21340  0.88640  Biso   1.000  H
  H366     1.0000 0.57320  0.22850  0.93310  Biso   1.000  H
  H367     1.0000 0.64360  0.26410  0.91580  Biso   1.000  H
  C397     1.0000 0.95660  0.93640  0.44210  Biso   1.000  C
  H368     1.0000 0.91430  0.91040  0.44180  Biso   1.000  H
  H369     1.0000 0.00390  0.91740  0.43430  Biso   1.000  H
  H370     1.0000 0.96130  0.95260  0.47240  Biso   1.000  H
  C398     1.0000 0.78280  0.68220  0.92910  Biso   1.000  C
  H371     1.0000 0.81150  0.70070  0.90660  Biso   1.000  H
  C399     1.0000 0.90870  0.62010  0.10730  Biso   1.000  C
  H372     1.0000 0.96160  0.61470  0.11200  Biso   1.000  H
  C400     1.0000 0.54240  0.28200  0.87970  Biso   1.000  C
  C401     1.0000 0.51050  0.32420  0.91230  Biso   1.000  C
  H373     1.0000 0.54630  0.35460  0.91500  Biso   1.000  H
  H374     1.0000 0.50280  0.30760  0.94220  Biso   1.000  H
  H375     1.0000 0.46180  0.33770  0.90070  Biso   1.000  H
  C402     1.0000 0.94130  0.98240  0.40640  Biso   1.000  C
  C403     1.0000 0.81530  0.67360  0.97310  Biso   1.000  C
  H376     1.0000 0.86630  0.68420  0.97880  Biso   1.000  H
  C404     1.0000 0.55470  0.00820  0.92840  Biso   1.000  C
  H377     1.0000 0.50460  0.99190  0.92320  Biso   1.000  H
  H378     1.0000 0.55570  0.02560  0.95840  Biso   1.000  H
  H379     1.0000 0.59380  0.97970  0.92710  Biso   1.000  H
  C405     1.0000 0.86030  0.99980  0.23900  Biso   1.000  C
  H380     1.0000 0.84990  0.98020  0.21190  Biso   1.000  H
  C406     1.0000 0.93320  0.25130  0.36050  Biso   1.000  C
  C407     1.0000 0.47310  0.24480  0.86340  Biso   1.000  C
  H381     1.0000 0.42800  0.26760  0.85870  Biso   1.000  H
  H382     1.0000 0.46230  0.21720  0.88650  Biso   1.000  H
  H383     1.0000 0.48660  0.22680  0.83480  Biso   1.000  H
  C408     1.0000 0.58780  0.65640  0.60800  Biso   1.000  C
  H384     1.0000 0.53530  0.65160  0.61430  Biso   1.000  H
  C409     1.0000 0.70840  0.66360  0.91880  Biso   1.000  C
  C410     1.0000 0.86480  0.01230  0.42170  Biso   1.000  C
  H385     1.0000 0.86230  0.04840  0.40760  Biso   1.000  H
  H386     1.0000 0.86420  0.01610  0.45480  Biso   1.000  H
  H387     1.0000 0.82080  0.99060  0.41200  Biso   1.000  H
  C411     1.0000 0.95070  0.22560  0.40870  Biso   1.000  C
  C412     1.0000 0.87890  0.19360  0.42350  Biso   1.000  C
  H388     1.0000 0.83950  0.21920  0.43340  Biso   1.000  H
  H389     1.0000 0.89180  0.16910  0.44860  Biso   1.000  H
  H390     1.0000 0.85990  0.17220  0.39780  Biso   1.000  H
  C413     1.0000 0.02040  0.18610  0.40600  Biso   1.000  C
  H391     1.0000 0.00250  0.14890  0.40020  Biso   1.000  H
  H392     1.0000 0.04830  0.18700  0.43480  Biso   1.000  H
  H393     1.0000 0.05420  0.19760  0.38130  Biso   1.000  H
  C414     1.0000 0.01020  0.02370  0.40740  Biso   1.000  C
  H394     1.0000 0.05740  0.00430  0.40020  Biso   1.000  H
  H395     1.0000 0.01420  0.04000  0.43770  Biso   1.000  H
  H396     1.0000 0.00180  0.05250  0.38490  Biso   1.000  H
  C415     1.0000 0.86990  0.21060  0.23720  Biso   1.000  C
  H397     1.0000 0.86030  0.23090  0.21040  Biso   1.000  H
  C416     1.0000 0.96710  0.27030  0.44210  Biso   1.000  C
  H398     1.0000 0.01260  0.29030  0.43250  Biso   1.000  H
  H399     1.0000 0.92370  0.29530  0.44340  Biso   1.000  H
  H400     1.0000 0.97570  0.25450  0.47220  Biso   1.000  H
  V14      1.0000 0.85870  0.10718  0.29270  Biso   1.000  V
  V15      1.0000 0.59860  0.17030  0.76350  Biso   1.000  V
  V16      1.0000 0.91310  0.10330  0.27750  Biso   1.000  V
  O51      1.0000 0.00000  0.09680  0.25000  Biso   1.000  O
  O52      1.0000 0.50000  0.18220  0.75000  Biso   1.000  O
