data_image0
_cell_length_a       38.648
_cell_length_b       38.648
_cell_length_c       59.844
_cell_angle_alpha    90
_cell_angle_beta     90
_cell_angle_gamma    120

_symmetry_space_group_name_H-M    "P 1"
_symmetry_int_tables_number       1

loop_
  _symmetry_equiv_pos_as_xyz
  'x, y, z'

loop_
  _atom_site_label
  _atom_site_occupancy
  _atom_site_fract_x
  _atom_site_fract_y
  _atom_site_fract_z
  _atom_site_thermal_displace_type
  _atom_site_B_iso_or_equiv
  _atom_site_type_symbol
  C1       1.0000 0.30716  0.20870  0.36996  Biso   1.000  C
  C2       1.0000 0.29562  0.23883  0.37339  Biso   1.000  C
  C3       1.0000 0.31793  0.27102  0.38776  Biso   1.000  C
  H1       1.0000 0.33750  0.27080  0.39670  Biso   1.000  H
  C4       1.0000 0.31167  0.30247  0.38891  Biso   1.000  C
  H2       1.0000 0.32680  0.32370  0.39850  Biso   1.000  H
  C5       1.0000 0.28356  0.30270  0.37616  Biso   1.000  C
  H3       1.0000 0.27950  0.32440  0.37680  Biso   1.000  H
  C6       1.0000 0.25988  0.27072  0.36166  Biso   1.000  C
  C7       1.0000 0.26616  0.23886  0.36032  Biso   1.000  C
  H4       1.0000 0.25080  0.21760  0.35080  Biso   1.000  H
  C8       1.0000 0.20654  0.24459  0.33486  Biso   1.000  C
  H5       1.0000 0.18980  0.21970  0.34270  Biso   1.000  H
  H6       1.0000 0.22200  0.24000  0.32370  Biso   1.000  H
  C9       1.0000 0.18106  0.25958  0.32389  Biso   1.000  C
  C10      1.0000 0.15188  0.26169  0.33631  Biso   1.000  C
  C11      1.0000 0.13284  0.28025  0.32709  Biso   1.000  C
  C12      1.0000 0.13947  0.29290  0.30493  Biso   1.000  C
  C13      1.0000 0.16791  0.28930  0.29271  Biso   1.000  C
  C14      1.0000 0.19098  0.27401  0.30286  Biso   1.000  C
  C15      1.0000 0.22445  0.27436  0.28958  Biso   1.000  C
  H7       1.0000 0.24660  0.28060  0.29930  Biso   1.000  H
  H8       1.0000 0.23280  0.29410  0.27800  Biso   1.000  H
  H9       1.0000 0.21520  0.24850  0.28300  Biso   1.000  H
  C16      1.0000 0.13993  0.24361  0.35970  Biso   1.000  C
  H10      1.0000 0.13640  0.21720  0.35970  Biso   1.000  H
  H11      1.0000 0.11540  0.24230  0.36400  Biso   1.000  H
  H12      1.0000 0.16050  0.26000  0.37010  Biso   1.000  H
  C17      1.0000 0.11684  0.31098  0.29479  Biso   1.000  C
  H13      1.0000 0.09270  0.30270  0.30310  Biso   1.000  H
  H14      1.0000 0.11030  0.30230  0.27960  Biso   1.000  H
  H15      1.0000 0.13300  0.33960  0.29520  Biso   1.000  H
  C18      1.0000 0.10433  0.28741  0.34065  Biso   1.000  C
  H16      1.0000 0.11070  0.28860  0.35640  Biso   1.000  H
  H17      1.0000 0.10650  0.31260  0.33640  Biso   1.000  H
  C19      1.0000 0.03501  0.25876  0.34714  Biso   1.000  C
  C20      1.0000 0.04203  0.29112  0.36044  Biso   1.000  C
  H18      1.0000 0.06800  0.31170  0.36290  Biso   1.000  H
  C21      1.0000 0.01017  0.29274  0.37011  Biso   1.000  C
  H19      1.0000 0.01490  0.31440  0.37900  Biso   1.000  H
  C22      1.0000 0.97128  0.26200  0.36647  Biso   1.000  C
  H20      1.0000 0.95000  0.26310  0.37290  Biso   1.000  H
  C23      1.0000 0.96426  0.22963  0.35317  Biso   1.000  C
  C24      1.0000 0.99612  0.22801  0.34350  Biso   1.000  C
  H21      1.0000 0.99140  0.20640  0.33460  Biso   1.000  H
  C25      1.0000 0.92310  0.19716  0.34934  Biso   1.000  C
  C26      1.0000 0.17627  0.30412  0.26873  Biso   1.000  C
  H22      1.0000 0.18730  0.29020  0.26060  Biso   1.000  H
  H23      1.0000 0.15150  0.29860  0.26150  Biso   1.000  H
  C27      1.0000 0.20964  0.36455  0.24860  Biso   1.000  C
  C28      1.0000 0.23607  0.40542  0.24946  Biso   1.000  C
  H24      1.0000 0.24790  0.41730  0.26300  Biso   1.000  H
  C29      1.0000 0.24489  0.42843  0.23054  Biso   1.000  C
  H25      1.0000 0.26200  0.45590  0.23130  Biso   1.000  H
  C30      1.0000 0.22798  0.41034  0.21006  Biso   1.000  C
  H26      1.0000 0.23470  0.42560  0.19710  Biso   1.000  H
  C31      1.0000 0.20133  0.36989  0.20922  Biso   1.000  C
  C32      1.0000 0.19331  0.34728  0.22864  Biso   1.000  C
  H27      1.0000 0.17640  0.31980  0.22790  Biso   1.000  H
  C33      1.0000 0.18305  0.34978  0.18755  Biso   1.000  C
  C34      1.0000 0.17085  0.12994  0.34342  Biso   1.000  C
  C35      1.0000 0.14841  0.13367  0.36261  Biso   1.000  C
  C36      1.0000 0.10783  0.12062  0.36100  Biso   1.000  C
  H28      1.0000 0.09390  0.10800  0.34800  Biso   1.000  H
  C37      1.0000 0.08804  0.12635  0.37875  Biso   1.000  C
  H29      1.0000 0.06090  0.11760  0.37770  Biso   1.000  H
  C38      1.0000 0.10883  0.14514  0.39812  Biso   1.000  C
  H30      1.0000 0.09560  0.14900  0.41000  Biso   1.000  H
  C39      1.0000 0.14941  0.15819  0.39973  Biso   1.000  C
  C40      1.0000 0.16920  0.15246  0.38197  Biso   1.000  C
  H31      1.0000 0.19630  0.16120  0.38300  Biso   1.000  H
  C41      1.0000 0.20834  0.19668  0.41937  Biso   1.000  C
  H32      1.0000 0.21820  0.21150  0.40550  Biso   1.000  H
  H33      1.0000 0.21840  0.17830  0.42060  Biso   1.000  H
  C42      1.0000 0.22275  0.22549  0.43921  Biso   1.000  C
  C43      1.0000 0.22240  0.26084  0.43792  Biso   1.000  C
  C44      1.0000 0.24136  0.28945  0.45523  Biso   1.000  C
  C45      1.0000 0.26073  0.28217  0.47205  Biso   1.000  C
  C46      1.0000 0.25912  0.24531  0.47404  Biso   1.000  C
  C47      1.0000 0.23809  0.21552  0.45841  Biso   1.000  C
  C48      1.0000 0.23321  0.17443  0.46059  Biso   1.000  C
  H34      1.0000 0.20840  0.15510  0.45390  Biso   1.000  H
  H35      1.0000 0.23320  0.16820  0.47610  Biso   1.000  H
  H36      1.0000 0.25490  0.17390  0.45310  Biso   1.000  H
  C49      1.0000 0.20505  0.27063  0.41906  Biso   1.000  C
  H37      1.0000 0.22600  0.28870  0.40920  Biso   1.000  H
  H38      1.0000 0.19040  0.28300  0.42440  Biso   1.000  H
  H39      1.0000 0.18730  0.24660  0.41110  Biso   1.000  H
  C50      1.0000 0.28494  0.31570  0.48889  Biso   1.000  C
  H40      1.0000 0.30230  0.33990  0.48100  Biso   1.000  H
  H41      1.0000 0.30060  0.30830  0.49810  Biso   1.000  H
  H42      1.0000 0.26700  0.31980  0.49810  Biso   1.000  H
  C51      1.0000 0.24209  0.32833  0.45386  Biso   1.000  C
  H43      1.0000 0.22130  0.32630  0.44400  Biso   1.000  H
  H44      1.0000 0.23840  0.33680  0.46850  Biso   1.000  H
  C52      1.0000 0.29389  0.39519  0.44724  Biso   1.000  C
  C53      1.0000 0.33438  0.42118  0.44366  Biso   1.000  C
  H45      1.0000 0.35140  0.41110  0.44090  Biso   1.000  H
  C54      1.0000 0.34952  0.46223  0.44424  Biso   1.000  C
  H46      1.0000 0.37660  0.47960  0.44180  Biso   1.000  H
  C55      1.0000 0.32416  0.47729  0.44839  Biso   1.000  C
  H47      1.0000 0.33430  0.50480  0.44880  Biso   1.000  H
  C56      1.0000 0.28366  0.45131  0.45196  Biso   1.000  C
  C57      1.0000 0.26852  0.41026  0.45138  Biso   1.000  C
  H48      1.0000 0.24140  0.39290  0.45380  Biso   1.000  H
  C58      1.0000 0.25761  0.46730  0.45607  Biso   1.000  C
  C59      1.0000 0.28493  0.24152  0.49129  Biso   1.000  C
  H49      1.0000 0.28450  0.21650  0.48910  Biso   1.000  H
  H50      1.0000 0.31220  0.26300  0.48930  Biso   1.000  H
  C60      1.0000 0.30198  0.25719  0.52925  Biso   1.000  C
  C61      1.0000 0.29184  0.26797  0.54931  Biso   1.000  C
  H51      1.0000 0.26670  0.26520  0.55110  Biso   1.000  H
  C62      1.0000 0.31930  0.28287  0.56671  Biso   1.000  C
  H52      1.0000 0.31250  0.29010  0.58010  Biso   1.000  H
  C63      1.0000 0.35691  0.28697  0.56406  Biso   1.000  C
  H53      1.0000 0.37530  0.29690  0.57570  Biso   1.000  H
  C64      1.0000 0.36705  0.27619  0.54400  Biso   1.000  C
  C65      1.0000 0.33959  0.26129  0.52660  Biso   1.000  C
  H54      1.0000 0.34640  0.25410  0.51320  Biso   1.000  H
  C66      1.0000 0.40685  0.27991  0.54130  Biso   1.000  C
  Mn1      1.0000 0.34302  0.16450  0.36098  Biso   1.000  Mn
  Mn2      1.0000 0.25527  0.13998  0.32848  Biso   1.000  Mn
  Mn3      1.0000 0.18567  0.13994  0.29248  Biso   1.000  Mn
  O1       1.0000 0.33681  0.21141  0.38050  Biso   1.000  O
  O2       1.0000 0.29018  0.18155  0.35647  Biso   1.000  O
  O3       1.0000 0.23277  0.27502  0.35037  Biso   1.000  O
  O4       1.0000 0.20306  0.34488  0.26826  Biso   1.000  O
  O5       1.0000 0.15873  0.31303  0.18854  Biso   1.000  O
  O6       1.0000 0.19296  0.37026  0.17037  Biso   1.000  O
  O7       1.0000 0.06431  0.25511  0.33659  Biso   1.000  O
  O8       1.0000 0.91666  0.16536  0.34100  Biso   1.000  O
  O9       1.0000 0.89625  0.20384  0.35650  Biso   1.000  O
  O10      1.0000 0.20188  0.13110  0.34750  Biso   1.000  O
  O11      1.0000 0.15533  0.12555  0.32491  Biso   1.000  O
  O12      1.0000 0.16623  0.17539  0.41935  Biso   1.000  O
  O13      1.0000 0.28201  0.35645  0.44490  Biso   1.000  O
  O14      1.0000 0.22228  0.44321  0.46240  Biso   1.000  O
  O15      1.0000 0.26738  0.50275  0.45256  Biso   1.000  O
  O16      1.0000 0.27271  0.24279  0.51330  Biso   1.000  O
  O17      1.0000 0.41716  0.27428  0.52263  Biso   1.000  O
  O18      1.0000 0.42934  0.28863  0.55833  Biso   1.000  O
  O19      1.0000 0.39680  0.16990  0.37130  Biso   1.000  O
  O20      1.0000 0.39990  0.16460  0.36840  Biso   1.000  O
  H55      1.0000 0.42100  0.19120  0.37090  Biso   1.000  H
  H56      1.0000 0.39720  0.14860  0.38120  Biso   1.000  H
  H57      1.0000 0.39510  0.13790  0.36750  Biso   1.000  H
  H58      1.0000 0.41890  0.18060  0.35720  Biso   1.000  H
  H59      1.0000 0.41600  0.19720  0.37410  Biso   1.000  H
  H60      1.0000 0.39170  0.15500  0.38490  Biso   1.000  H
  H61      1.0000 0.39360  0.14380  0.37210  Biso   1.000  H
  H62      1.0000 0.41800  0.18600  0.36130  Biso   1.000  H
  C67      1.0000 0.97383  0.54203  0.70329  Biso   1.000  C
  C68      1.0000 0.96229  0.57216  0.70672  Biso   1.000  C
  C69      1.0000 0.98460  0.60435  0.72109  Biso   1.000  C
  H63      1.0000 0.00417  0.60413  0.73003  Biso   1.000  H
  C70      1.0000 0.97834  0.63580  0.72224  Biso   1.000  C
  H64      1.0000 0.99347  0.65703  0.73183  Biso   1.000  H
  C71      1.0000 0.95023  0.63603  0.70949  Biso   1.000  C
  H65      1.0000 0.94617  0.65773  0.71013  Biso   1.000  H
  C72      1.0000 0.92655  0.60405  0.69499  Biso   1.000  C
  C73      1.0000 0.93283  0.57219  0.69365  Biso   1.000  C
  H66      1.0000 0.91747  0.55093  0.68413  Biso   1.000  H
  C74      1.0000 0.87321  0.57792  0.66819  Biso   1.000  C
  H67      1.0000 0.85647  0.55303  0.67603  Biso   1.000  H
  H68      1.0000 0.88867  0.57333  0.65703  Biso   1.000  H
  C75      1.0000 0.84773  0.59291  0.65722  Biso   1.000  C
  C76      1.0000 0.81855  0.59502  0.66964  Biso   1.000  C
  C77      1.0000 0.79951  0.61358  0.66042  Biso   1.000  C
  C78      1.0000 0.80614  0.62623  0.63826  Biso   1.000  C
  C79      1.0000 0.83458  0.62263  0.62604  Biso   1.000  C
  C80      1.0000 0.85765  0.60734  0.63619  Biso   1.000  C
  C81      1.0000 0.89112  0.60769  0.62291  Biso   1.000  C
  H69      1.0000 0.91327  0.61393  0.63263  Biso   1.000  H
  H70      1.0000 0.89947  0.62743  0.61133  Biso   1.000  H
  H71      1.0000 0.88187  0.58183  0.61633  Biso   1.000  H
  C82      1.0000 0.80660  0.57694  0.69303  Biso   1.000  C
  H72      1.0000 0.80307  0.55053  0.69303  Biso   1.000  H
  H73      1.0000 0.78207  0.57563  0.69733  Biso   1.000  H
  H74      1.0000 0.82717  0.59333  0.70343  Biso   1.000  H
  C83      1.0000 0.78351  0.64431  0.62812  Biso   1.000  C
  H75      1.0000 0.75937  0.63603  0.63643  Biso   1.000  H
  H76      1.0000 0.77697  0.63563  0.61293  Biso   1.000  H
  H77      1.0000 0.79967  0.67293  0.62853  Biso   1.000  H
  C84      1.0000 0.77100  0.62074  0.67398  Biso   1.000  C
  H78      1.0000 0.77737  0.62193  0.68973  Biso   1.000  H
  H79      1.0000 0.77317  0.64593  0.66973  Biso   1.000  H
  C85      1.0000 0.70168  0.59209  0.68047  Biso   1.000  C
  C86      1.0000 0.70870  0.62445  0.69377  Biso   1.000  C
  H80      1.0000 0.73467  0.64503  0.69623  Biso   1.000  H
  C87      1.0000 0.67684  0.62607  0.70344  Biso   1.000  C
  H81      1.0000 0.68157  0.64773  0.71233  Biso   1.000  H
  C88      1.0000 0.63795  0.59533  0.69980  Biso   1.000  C
  H82      1.0000 0.61667  0.59643  0.70623  Biso   1.000  H
  C89      1.0000 0.63093  0.56296  0.68650  Biso   1.000  C
  C90      1.0000 0.66279  0.56134  0.67683  Biso   1.000  C
  H83      1.0000 0.65807  0.53973  0.66793  Biso   1.000  H
  C91      1.0000 0.58977  0.53049  0.68267  Biso   1.000  C
  C92      1.0000 0.84294  0.63745  0.60206  Biso   1.000  C
  H84      1.0000 0.85397  0.62353  0.59393  Biso   1.000  H
  H85      1.0000 0.81817  0.63193  0.59483  Biso   1.000  H
  C93      1.0000 0.87631  0.69788  0.58193  Biso   1.000  C
  C94      1.0000 0.90274  0.73875  0.58279  Biso   1.000  C
  H86      1.0000 0.91457  0.75063  0.59633  Biso   1.000  H
  C95      1.0000 0.91156  0.76176  0.56387  Biso   1.000  C
  H87      1.0000 0.92867  0.78923  0.56463  Biso   1.000  H
  C96      1.0000 0.89465  0.74367  0.54339  Biso   1.000  C
  H88      1.0000 0.90137  0.75893  0.53043  Biso   1.000  H
  C97      1.0000 0.86800  0.70322  0.54255  Biso   1.000  C
  C98      1.0000 0.85998  0.68061  0.56197  Biso   1.000  C
  H89      1.0000 0.84307  0.65313  0.56123  Biso   1.000  H
  C99      1.0000 0.84972  0.68311  0.52088  Biso   1.000  C
  C100     1.0000 0.83752  0.46327  0.67675  Biso   1.000  C
  C101     1.0000 0.81508  0.46700  0.69594  Biso   1.000  C
  C102     1.0000 0.77450  0.45395  0.69433  Biso   1.000  C
  H90      1.0000 0.76057  0.44133  0.68133  Biso   1.000  H
  C103     1.0000 0.75471  0.45968  0.71208  Biso   1.000  C
  H91      1.0000 0.72757  0.45093  0.71103  Biso   1.000  H
  C104     1.0000 0.77550  0.47847  0.73145  Biso   1.000  C
  H92      1.0000 0.76227  0.48233  0.74333  Biso   1.000  H
  C105     1.0000 0.81608  0.49152  0.73306  Biso   1.000  C
  C106     1.0000 0.83587  0.48579  0.71530  Biso   1.000  C
  H93      1.0000 0.86297  0.49453  0.71633  Biso   1.000  H
  C107     1.0000 0.87501  0.53001  0.75270  Biso   1.000  C
  H94      1.0000 0.88487  0.54483  0.73883  Biso   1.000  H
  H95      1.0000 0.88507  0.51163  0.75393  Biso   1.000  H
  C108     1.0000 0.88942  0.55882  0.77254  Biso   1.000  C
  C109     1.0000 0.88907  0.59417  0.77125  Biso   1.000  C
  C110     1.0000 0.90803  0.62278  0.78856  Biso   1.000  C
  C111     1.0000 0.92740  0.61550  0.80538  Biso   1.000  C
  C112     1.0000 0.92579  0.57864  0.80737  Biso   1.000  C
  C113     1.0000 0.90476  0.54885  0.79174  Biso   1.000  C
  C114     1.0000 0.89988  0.50776  0.79392  Biso   1.000  C
  H96      1.0000 0.87507  0.48843  0.78723  Biso   1.000  H
  H97      1.0000 0.89987  0.50153  0.80943  Biso   1.000  H
  H98      1.0000 0.92157  0.50723  0.78643  Biso   1.000  H
  C115     1.0000 0.87172  0.60396  0.75239  Biso   1.000  C
  H99      1.0000 0.89267  0.62203  0.74253  Biso   1.000  H
  H100     1.0000 0.85707  0.61633  0.75773  Biso   1.000  H
  H101     1.0000 0.85397  0.57993  0.74443  Biso   1.000  H
  C116     1.0000 0.95161  0.64903  0.82222  Biso   1.000  C
  H102     1.0000 0.96897  0.67323  0.81433  Biso   1.000  H
  H103     1.0000 0.96727  0.64163  0.83143  Biso   1.000  H
  H104     1.0000 0.93367  0.65313  0.83143  Biso   1.000  H
  C117     1.0000 0.90876  0.66166  0.78719  Biso   1.000  C
  H105     1.0000 0.88797  0.65963  0.77733  Biso   1.000  H
  H106     1.0000 0.90507  0.67013  0.80183  Biso   1.000  H
  C118     1.0000 0.96056  0.72852  0.78057  Biso   1.000  C
  C119     1.0000 0.00105  0.75451  0.77699  Biso   1.000  C
  H107     1.0000 0.01807  0.74443  0.77423  Biso   1.000  H
  C120     1.0000 0.01619  0.79556  0.77757  Biso   1.000  C
  H108     1.0000 0.04327  0.81293  0.77513  Biso   1.000  H
  C121     1.0000 0.99083  0.81062  0.78172  Biso   1.000  C
  H109     1.0000 0.00097  0.83813  0.78213  Biso   1.000  H
  C122     1.0000 0.95033  0.78464  0.78529  Biso   1.000  C
  C123     1.0000 0.93519  0.74359  0.78471  Biso   1.000  C
  H110     1.0000 0.90807  0.72623  0.78713  Biso   1.000  H
  C124     1.0000 0.92428  0.80063  0.78940  Biso   1.000  C
  C125     1.0000 0.95160  0.57485  0.82462  Biso   1.000  C
  H111     1.0000 0.95117  0.54983  0.82243  Biso   1.000  H
  H112     1.0000 0.97887  0.59633  0.82263  Biso   1.000  H
  C126     1.0000 0.96865  0.59052  0.86258  Biso   1.000  C
  C127     1.0000 0.95851  0.60130  0.88264  Biso   1.000  C
  H113     1.0000 0.93337  0.59853  0.88443  Biso   1.000  H
  C128     1.0000 0.98597  0.61620  0.90004  Biso   1.000  C
  H114     1.0000 0.97917  0.62343  0.91343  Biso   1.000  H
  C129     1.0000 0.02358  0.62030  0.89739  Biso   1.000  C
  H115     1.0000 0.04197  0.63023  0.90903  Biso   1.000  H
  C130     1.0000 0.03372  0.60952  0.87733  Biso   1.000  C
  C131     1.0000 0.00626  0.59462  0.85993  Biso   1.000  C
  H116     1.0000 0.01307  0.58743  0.84653  Biso   1.000  H
  C132     1.0000 0.07352  0.61324  0.87463  Biso   1.000  C
  Mn4      1.0000 0.00968  0.49784  0.69431  Biso   1.000  Mn
  Mn5      1.0000 0.92194  0.47331  0.66182  Biso   1.000  Mn
  Mn6      1.0000 0.85234  0.47328  0.62582  Biso   1.000  Mn
  O21      1.0000 0.00348  0.54474  0.71383  Biso   1.000  O
  O22      1.0000 0.95685  0.51488  0.68980  Biso   1.000  O
  O23      1.0000 0.89944  0.60835  0.68370  Biso   1.000  O
  O24      1.0000 0.86973  0.67821  0.60159  Biso   1.000  O
  O25      1.0000 0.82540  0.64636  0.52187  Biso   1.000  O
  O26      1.0000 0.85963  0.70359  0.50370  Biso   1.000  O
  O27      1.0000 0.73098  0.58844  0.66992  Biso   1.000  O
  O28      1.0000 0.58333  0.49869  0.67433  Biso   1.000  O
  O29      1.0000 0.56292  0.53717  0.68983  Biso   1.000  O
  O30      1.0000 0.86855  0.46443  0.68083  Biso   1.000  O
  O31      1.0000 0.82200  0.45888  0.65824  Biso   1.000  O
  O32      1.0000 0.83290  0.50872  0.75268  Biso   1.000  O
  O33      1.0000 0.94868  0.68978  0.77823  Biso   1.000  O
  O34      1.0000 0.88895  0.77654  0.79573  Biso   1.000  O
  O35      1.0000 0.93405  0.83608  0.78589  Biso   1.000  O
  O36      1.0000 0.93938  0.57612  0.84663  Biso   1.000  O
  O37      1.0000 0.08383  0.60761  0.85596  Biso   1.000  O
  O38      1.0000 0.09601  0.62196  0.89166  Biso   1.000  O
  O39      1.0000 0.06347  0.50323  0.70463  Biso   1.000  O
  O40      1.0000 0.06657  0.49793  0.70173  Biso   1.000  O
  H117     1.0000 0.08767  0.52453  0.70423  Biso   1.000  H
  H118     1.0000 0.06387  0.48193  0.71453  Biso   1.000  H
  H119     1.0000 0.06177  0.47123  0.70083  Biso   1.000  H
  H120     1.0000 0.08557  0.51393  0.69053  Biso   1.000  H
  H121     1.0000 0.08267  0.53053  0.70743  Biso   1.000  H
  H122     1.0000 0.05837  0.48833  0.71823  Biso   1.000  H
  H123     1.0000 0.06027  0.47713  0.70543  Biso   1.000  H
  H124     1.0000 0.08467  0.51933  0.69463  Biso   1.000  H
  C133     1.0000 0.64049  0.87537  0.03663  Biso   1.000  C
  C134     1.0000 0.62895  0.90550  0.04006  Biso   1.000  C
  C135     1.0000 0.65126  0.93769  0.05443  Biso   1.000  C
  H125     1.0000 0.67083  0.93747  0.06337  Biso   1.000  H
  C136     1.0000 0.64500  0.96914  0.05558  Biso   1.000  C
  H126     1.0000 0.66013  0.99037  0.06517  Biso   1.000  H
  C137     1.0000 0.61689  0.96937  0.04283  Biso   1.000  C
  H127     1.0000 0.61283  0.99107  0.04347  Biso   1.000  H
  C138     1.0000 0.59321  0.93739  0.02833  Biso   1.000  C
  C139     1.0000 0.59949  0.90553  0.02699  Biso   1.000  C
  H128     1.0000 0.58413  0.88427  0.01747  Biso   1.000  H
  C140     1.0000 0.53987  0.91126  0.00153  Biso   1.000  C
  H129     1.0000 0.52313  0.88637  0.00937  Biso   1.000  H
  H130     1.0000 0.55533  0.90667  0.99037  Biso   1.000  H
  C141     1.0000 0.51439  0.92625  0.99056  Biso   1.000  C
  C142     1.0000 0.48521  0.92836  0.00298  Biso   1.000  C
  C143     1.0000 0.46617  0.94692  0.99376  Biso   1.000  C
  C144     1.0000 0.47280  0.95957  0.97160  Biso   1.000  C
  C145     1.0000 0.50124  0.95597  0.95938  Biso   1.000  C
  C146     1.0000 0.52431  0.94068  0.96953  Biso   1.000  C
  C147     1.0000 0.55778  0.94103  0.95625  Biso   1.000  C
  H131     1.0000 0.57993  0.94727  0.96597  Biso   1.000  H
  H132     1.0000 0.56613  0.96077  0.94467  Biso   1.000  H
  H133     1.0000 0.54853  0.91517  0.94967  Biso   1.000  H
  C148     1.0000 0.47326  0.91028  0.02637  Biso   1.000  C
  H134     1.0000 0.46973  0.88387  0.02637  Biso   1.000  H
  H135     1.0000 0.44873  0.90897  0.03067  Biso   1.000  H
  H136     1.0000 0.49383  0.92667  0.03677  Biso   1.000  H
  C149     1.0000 0.45017  0.97765  0.96146  Biso   1.000  C
  H137     1.0000 0.42603  0.96937  0.96977  Biso   1.000  H
  H138     1.0000 0.44363  0.96897  0.94627  Biso   1.000  H
  H139     1.0000 0.46633  0.00627  0.96187  Biso   1.000  H
  C150     1.0000 0.43766  0.95408  0.00732  Biso   1.000  C
  H140     1.0000 0.44403  0.95527  0.02307  Biso   1.000  H
  H141     1.0000 0.43983  0.97927  0.00307  Biso   1.000  H
  C151     1.0000 0.36834  0.92543  0.01381  Biso   1.000  C
  C152     1.0000 0.37536  0.95779  0.02711  Biso   1.000  C
  H142     1.0000 0.40133  0.97837  0.02957  Biso   1.000  H
  C153     1.0000 0.34350  0.95941  0.03678  Biso   1.000  C
  H143     1.0000 0.34823  0.98107  0.04567  Biso   1.000  H
  C154     1.0000 0.30461  0.92867  0.03314  Biso   1.000  C
  H144     1.0000 0.28333  0.92977  0.03957  Biso   1.000  H
  C155     1.0000 0.29759  0.89630  0.01984  Biso   1.000  C
  C156     1.0000 0.32945  0.89468  0.01017  Biso   1.000  C
  H145     1.0000 0.32473  0.87307  0.00127  Biso   1.000  H
  C157     1.0000 0.25643  0.86383  0.01601  Biso   1.000  C
  C158     1.0000 0.50960  0.97079  0.93540  Biso   1.000  C
  H146     1.0000 0.52063  0.95687  0.92727  Biso   1.000  H
  H147     1.0000 0.48483  0.96527  0.92817  Biso   1.000  H
  C159     1.0000 0.54297  0.03122  0.91527  Biso   1.000  C
  C160     1.0000 0.56940  0.07209  0.91613  Biso   1.000  C
  H148     1.0000 0.58123  0.08397  0.92967  Biso   1.000  H
  C161     1.0000 0.57822  0.09510  0.89721  Biso   1.000  C
  H149     1.0000 0.59533  0.12257  0.89797  Biso   1.000  H
  C162     1.0000 0.56131  0.07701  0.87673  Biso   1.000  C
  H150     1.0000 0.56803  0.09227  0.86377  Biso   1.000  H
  C163     1.0000 0.53466  0.03656  0.87589  Biso   1.000  C
  C164     1.0000 0.52664  0.01395  0.89531  Biso   1.000  C
  H151     1.0000 0.50973  0.98647  0.89457  Biso   1.000  H
  C165     1.0000 0.51638  0.01645  0.85422  Biso   1.000  C
  C166     1.0000 0.50418  0.79661  0.01009  Biso   1.000  C
  C167     1.0000 0.48174  0.80034  0.02928  Biso   1.000  C
  C168     1.0000 0.44116  0.78729  0.02767  Biso   1.000  C
  H152     1.0000 0.42723  0.77467  0.01467  Biso   1.000  H
  C169     1.0000 0.42137  0.79302  0.04542  Biso   1.000  C
  H153     1.0000 0.39423  0.78427  0.04437  Biso   1.000  H
  C170     1.0000 0.44216  0.81181  0.06479  Biso   1.000  C
  H154     1.0000 0.42893  0.81567  0.07667  Biso   1.000  H
  C171     1.0000 0.48274  0.82486  0.06640  Biso   1.000  C
  C172     1.0000 0.50253  0.81913  0.04864  Biso   1.000  C
  H155     1.0000 0.52963  0.82787  0.04967  Biso   1.000  H
  C173     1.0000 0.54167  0.86335  0.08604  Biso   1.000  C
  H156     1.0000 0.55153  0.87817  0.07217  Biso   1.000  H
  H157     1.0000 0.55173  0.84497  0.08727  Biso   1.000  H
  C174     1.0000 0.55608  0.89216  0.10588  Biso   1.000  C
  C175     1.0000 0.55573  0.92751  0.10459  Biso   1.000  C
  C176     1.0000 0.57469  0.95612  0.12190  Biso   1.000  C
  C177     1.0000 0.59406  0.94884  0.13872  Biso   1.000  C
  C178     1.0000 0.59245  0.91198  0.14071  Biso   1.000  C
  C179     1.0000 0.57142  0.88219  0.12508  Biso   1.000  C
  C180     1.0000 0.56654  0.84110  0.12726  Biso   1.000  C
  H158     1.0000 0.54173  0.82177  0.12057  Biso   1.000  H
  H159     1.0000 0.56653  0.83487  0.14277  Biso   1.000  H
  H160     1.0000 0.58823  0.84057  0.11977  Biso   1.000  H
  C181     1.0000 0.53838  0.93730  0.08573  Biso   1.000  C
  H161     1.0000 0.55933  0.95537  0.07587  Biso   1.000  H
  H162     1.0000 0.52373  0.94967  0.09107  Biso   1.000  H
  H163     1.0000 0.52063  0.91327  0.07777  Biso   1.000  H
  C182     1.0000 0.61827  0.98237  0.15556  Biso   1.000  C
  H164     1.0000 0.63563  0.00657  0.14767  Biso   1.000  H
  H165     1.0000 0.63393  0.97497  0.16477  Biso   1.000  H
  H166     1.0000 0.60033  0.98647  0.16477  Biso   1.000  H
  C183     1.0000 0.57542  0.99500  0.12053  Biso   1.000  C
  H167     1.0000 0.55463  0.99297  0.11067  Biso   1.000  H
  H168     1.0000 0.57173  0.00347  0.13517  Biso   1.000  H
  C184     1.0000 0.62722  0.06186  0.11391  Biso   1.000  C
  C185     1.0000 0.66771  0.08785  0.11033  Biso   1.000  C
  H169     1.0000 0.68473  0.07777  0.10757  Biso   1.000  H
  C186     1.0000 0.68285  0.12890  0.11091  Biso   1.000  C
  H170     1.0000 0.70993  0.14627  0.10847  Biso   1.000  H
  C187     1.0000 0.65749  0.14396  0.11506  Biso   1.000  C
  H171     1.0000 0.66763  0.17147  0.11547  Biso   1.000  H
  C188     1.0000 0.61699  0.11798  0.11863  Biso   1.000  C
  C189     1.0000 0.60185  0.07693  0.11805  Biso   1.000  C
  H172     1.0000 0.57473  0.05957  0.12047  Biso   1.000  H
  C190     1.0000 0.59094  0.13397  0.12274  Biso   1.000  C
  C191     1.0000 0.61826  0.90819  0.15796  Biso   1.000  C
  H173     1.0000 0.61783  0.88317  0.15577  Biso   1.000  H
  H174     1.0000 0.64553  0.92967  0.15597  Biso   1.000  H
  C192     1.0000 0.63531  0.92386  0.19592  Biso   1.000  C
  C193     1.0000 0.62517  0.93464  0.21598  Biso   1.000  C
  H175     1.0000 0.60003  0.93187  0.21777  Biso   1.000  H
  C194     1.0000 0.65263  0.94954  0.23338  Biso   1.000  C
  H176     1.0000 0.64583  0.95677  0.24677  Biso   1.000  H
  C195     1.0000 0.69024  0.95364  0.23073  Biso   1.000  C
  H177     1.0000 0.70863  0.96357  0.24237  Biso   1.000  H
  C196     1.0000 0.70038  0.94286  0.21067  Biso   1.000  C
  C197     1.0000 0.67292  0.92796  0.19327  Biso   1.000  C
  H178     1.0000 0.67973  0.92077  0.17987  Biso   1.000  H
  C198     1.0000 0.74018  0.94658  0.20797  Biso   1.000  C
  Mn7      1.0000 0.67635  0.83117  0.02765  Biso   1.000  Mn
  Mn8      1.0000 0.58861  0.80665  0.99515  Biso   1.000  Mn
  Mn9      1.0000 0.51900  0.80661  0.95915  Biso   1.000  Mn
  O41      1.0000 0.67014  0.87808  0.04717  Biso   1.000  O
  O42      1.0000 0.62351  0.84822  0.02314  Biso   1.000  O
  O43      1.0000 0.56610  0.94169  0.01704  Biso   1.000  O
  O44      1.0000 0.53639  0.01155  0.93493  Biso   1.000  O
  O45      1.0000 0.49206  0.97970  0.85521  Biso   1.000  O
  O46      1.0000 0.52629  0.03693  0.83704  Biso   1.000  O
  O47      1.0000 0.39764  0.92178  0.00326  Biso   1.000  O
  O48      1.0000 0.24999  0.83203  0.00767  Biso   1.000  O
  O49      1.0000 0.22958  0.87051  0.02317  Biso   1.000  O
  O50      1.0000 0.53521  0.79777  0.01417  Biso   1.000  O
  O51      1.0000 0.48866  0.79222  0.99158  Biso   1.000  O
  O52      1.0000 0.49956  0.84206  0.08602  Biso   1.000  O
  O53      1.0000 0.61534  0.02312  0.11157  Biso   1.000  O
  O54      1.0000 0.55561  0.10988  0.12907  Biso   1.000  O
  O55      1.0000 0.60071  0.16942  0.11923  Biso   1.000  O
  O56      1.0000 0.60604  0.90946  0.17997  Biso   1.000  O
  O57      1.0000 0.75049  0.94095  0.18930  Biso   1.000  O
  O58      1.0000 0.76267  0.95530  0.22500  Biso   1.000  O
  O59      1.0000 0.73013  0.83657  0.03797  Biso   1.000  O
  O60      1.0000 0.73323  0.83127  0.03507  Biso   1.000  O
  H179     1.0000 0.75433  0.85787  0.03757  Biso   1.000  H
  H180     1.0000 0.73053  0.81527  0.04787  Biso   1.000  H
  H181     1.0000 0.72843  0.80457  0.03417  Biso   1.000  H
  H182     1.0000 0.75223  0.84727  0.02387  Biso   1.000  H
  H183     1.0000 0.74933  0.86387  0.04077  Biso   1.000  H
  H184     1.0000 0.72503  0.82167  0.05157  Biso   1.000  H
  H185     1.0000 0.72693  0.81047  0.03877  Biso   1.000  H
  H186     1.0000 0.75133  0.85267  0.02797  Biso   1.000  H
  C199     1.0000 0.79130  0.09846  0.36996  Biso   1.000  C
  C200     1.0000 0.76117  0.05679  0.37339  Biso   1.000  C
  C201     1.0000 0.72898  0.04691  0.38776  Biso   1.000  C
  H187     1.0000 0.72920  0.06670  0.39670  Biso   1.000  H
  C202     1.0000 0.69753  0.00920  0.38891  Biso   1.000  C
  H188     1.0000 0.67630  0.00310  0.39850  Biso   1.000  H
  C203     1.0000 0.69730  0.98086  0.37616  Biso   1.000  C
  H189     1.0000 0.67560  0.95510  0.37680  Biso   1.000  H
  C204     1.0000 0.72928  0.98916  0.36166  Biso   1.000  C
  C205     1.0000 0.76114  0.02730  0.36032  Biso   1.000  C
  H190     1.0000 0.78240  0.03320  0.35080  Biso   1.000  H
  C206     1.0000 0.75541  0.96195  0.33486  Biso   1.000  C
  H191     1.0000 0.78030  0.97010  0.34270  Biso   1.000  H
  H192     1.0000 0.76000  0.98200  0.32370  Biso   1.000  H
  C207     1.0000 0.74042  0.92148  0.32389  Biso   1.000  C
  C208     1.0000 0.73831  0.89019  0.33631  Biso   1.000  C
  C209     1.0000 0.71975  0.85259  0.32709  Biso   1.000  C
  C210     1.0000 0.70710  0.84657  0.30493  Biso   1.000  C
  C211     1.0000 0.71070  0.87861  0.29271  Biso   1.000  C
  C212     1.0000 0.72599  0.91697  0.30286  Biso   1.000  C
  C213     1.0000 0.72564  0.95009  0.28958  Biso   1.000  C
  H193     1.0000 0.71940  0.96600  0.29930  Biso   1.000  H
  H194     1.0000 0.70590  0.93870  0.27800  Biso   1.000  H
  H195     1.0000 0.75150  0.96670  0.28300  Biso   1.000  H
  C214     1.0000 0.75639  0.89632  0.35970  Biso   1.000  C
  H196     1.0000 0.78280  0.91920  0.35970  Biso   1.000  H
  H197     1.0000 0.75770  0.87310  0.36400  Biso   1.000  H
  H198     1.0000 0.74000  0.90050  0.37010  Biso   1.000  H
  C215     1.0000 0.68902  0.80586  0.29479  Biso   1.000  C
  H199     1.0000 0.69730  0.79000  0.30310  Biso   1.000  H
  H200     1.0000 0.69770  0.80800  0.27960  Biso   1.000  H
  H201     1.0000 0.66040  0.79340  0.29520  Biso   1.000  H
  C216     1.0000 0.71259  0.81692  0.34065  Biso   1.000  C
  H202     1.0000 0.71140  0.82210  0.35640  Biso   1.000  H
  H203     1.0000 0.68740  0.79390  0.33640  Biso   1.000  H
  C217     1.0000 0.74124  0.77625  0.34714  Biso   1.000  C
  C218     1.0000 0.70888  0.75091  0.36044  Biso   1.000  C
  H204     1.0000 0.68830  0.75630  0.36290  Biso   1.000  H
  C219     1.0000 0.70726  0.71743  0.37011  Biso   1.000  C
  H205     1.0000 0.68560  0.70050  0.37900  Biso   1.000  H
  C220     1.0000 0.73800  0.70928  0.36647  Biso   1.000  C
  H206     1.0000 0.73690  0.68690  0.37290  Biso   1.000  H
  C221     1.0000 0.77037  0.73463  0.35317  Biso   1.000  C
  C222     1.0000 0.77199  0.76811  0.34350  Biso   1.000  C
  H207     1.0000 0.79360  0.78500  0.33460  Biso   1.000  H
  C223     1.0000 0.80284  0.72594  0.34934  Biso   1.000  C
  C224     1.0000 0.69588  0.87215  0.26873  Biso   1.000  C
  H208     1.0000 0.70980  0.89710  0.26060  Biso   1.000  H
  H209     1.0000 0.70140  0.85290  0.26150  Biso   1.000  H
  C225     1.0000 0.63545  0.84509  0.24860  Biso   1.000  C
  C226     1.0000 0.59458  0.83065  0.24946  Biso   1.000  C
  H210     1.0000 0.58270  0.83060  0.26300  Biso   1.000  H
  C227     1.0000 0.57157  0.81646  0.23054  Biso   1.000  C
  H211     1.0000 0.54410  0.80610  0.23130  Biso   1.000  H
  C228     1.0000 0.58966  0.81764  0.21006  Biso   1.000  C
  H212     1.0000 0.57440  0.80910  0.19710  Biso   1.000  H
  C229     1.0000 0.63011  0.83144  0.20922  Biso   1.000  C
  C230     1.0000 0.65272  0.84603  0.22864  Biso   1.000  C
  H213     1.0000 0.68020  0.85660  0.22790  Biso   1.000  H
  C231     1.0000 0.65022  0.83327  0.18755  Biso   1.000  C
  C232     1.0000 0.87006  0.04091  0.34342  Biso   1.000  C
  C233     1.0000 0.86633  0.01474  0.36261  Biso   1.000  C
  C234     1.0000 0.87938  0.98721  0.36100  Biso   1.000  C
  H214     1.0000 0.89200  0.98590  0.34800  Biso   1.000  H
  C235     1.0000 0.87365  0.96169  0.37875  Biso   1.000  C
  H215     1.0000 0.88240  0.94330  0.37770  Biso   1.000  H
  C236     1.0000 0.85486  0.96369  0.39812  Biso   1.000  C
  H216     1.0000 0.85100  0.94660  0.41000  Biso   1.000  H
  C237     1.0000 0.84181  0.99122  0.39973  Biso   1.000  C
  C238     1.0000 0.84754  0.01674  0.38197  Biso   1.000  C
  H217     1.0000 0.83880  0.03510  0.38300  Biso   1.000  H
  C239     1.0000 0.80332  0.01166  0.41937  Biso   1.000  C
  H218     1.0000 0.78850  0.00670  0.40550  Biso   1.000  H
  H219     1.0000 0.82170  0.04010  0.42060  Biso   1.000  H
  C240     1.0000 0.77451  0.99726  0.43921  Biso   1.000  C
  C241     1.0000 0.73916  0.96156  0.43792  Biso   1.000  C
  C242     1.0000 0.71055  0.95191  0.45523  Biso   1.000  C
  C243     1.0000 0.71783  0.97856  0.47205  Biso   1.000  C
  C244     1.0000 0.75469  0.01381  0.47404  Biso   1.000  C
  C245     1.0000 0.78448  0.02257  0.45841  Biso   1.000  C
  C246     1.0000 0.82557  0.05878  0.46059  Biso   1.000  C
  H220     1.0000 0.84490  0.05330  0.45390  Biso   1.000  H
  H221     1.0000 0.83180  0.06500  0.47610  Biso   1.000  H
  H222     1.0000 0.82610  0.08100  0.45310  Biso   1.000  H
  C247     1.0000 0.72937  0.93442  0.41906  Biso   1.000  C
  H223     1.0000 0.71130  0.93730  0.40920  Biso   1.000  H
  H224     1.0000 0.71700  0.90740  0.42440  Biso   1.000  H
  H225     1.0000 0.75340  0.94070  0.41110  Biso   1.000  H
  C248     1.0000 0.68430  0.96924  0.48889  Biso   1.000  C
  H226     1.0000 0.66010  0.96240  0.48100  Biso   1.000  H
  H227     1.0000 0.69170  0.99230  0.49810  Biso   1.000  H
  H228     1.0000 0.68020  0.94720  0.49810  Biso   1.000  H
  C249     1.0000 0.67167  0.91376  0.45386  Biso   1.000  C
  H229     1.0000 0.67370  0.89500  0.44400  Biso   1.000  H
  H230     1.0000 0.66320  0.90160  0.46850  Biso   1.000  H
  C250     1.0000 0.60481  0.89870  0.44724  Biso   1.000  C
  C251     1.0000 0.57882  0.91320  0.44366  Biso   1.000  C
  H231     1.0000 0.58890  0.94030  0.44090  Biso   1.000  H
  C252     1.0000 0.53777  0.88729  0.44424  Biso   1.000  C
  H232     1.0000 0.52040  0.89700  0.44180  Biso   1.000  H
  C253     1.0000 0.52271  0.84687  0.44839  Biso   1.000  C
  H233     1.0000 0.49520  0.82950  0.44880  Biso   1.000  H
  C254     1.0000 0.54869  0.83235  0.45196  Biso   1.000  C
  C255     1.0000 0.58974  0.85826  0.45138  Biso   1.000  C
  H234     1.0000 0.60710  0.84850  0.45380  Biso   1.000  H
  C256     1.0000 0.53270  0.79031  0.45607  Biso   1.000  C
  C257     1.0000 0.75848  0.04341  0.49129  Biso   1.000  C
  H235     1.0000 0.78350  0.06800  0.48910  Biso   1.000  H
  H236     1.0000 0.73700  0.04920  0.48930  Biso   1.000  H
  C258     1.0000 0.74281  0.04479  0.52925  Biso   1.000  C
  C259     1.0000 0.73203  0.02387  0.54931  Biso   1.000  C
  H237     1.0000 0.73480  0.00150  0.55110  Biso   1.000  H
  C260     1.0000 0.71713  0.03643  0.56671  Biso   1.000  C
  H238     1.0000 0.70990  0.02240  0.58010  Biso   1.000  H
  C261     1.0000 0.71303  0.06994  0.56406  Biso   1.000  C
  H239     1.0000 0.70310  0.07840  0.57570  Biso   1.000  H
  C262     1.0000 0.72381  0.09086  0.54400  Biso   1.000  C
  C263     1.0000 0.73871  0.07830  0.52660  Biso   1.000  C
  H240     1.0000 0.74590  0.09230  0.51320  Biso   1.000  H
  C264     1.0000 0.72009  0.12694  0.54130  Biso   1.000  C
  Mn10     1.0000 0.83550  0.17851  0.36098  Biso   1.000  Mn
  Mn11     1.0000 0.86002  0.11529  0.32848  Biso   1.000  Mn
  Mn12     1.0000 0.86006  0.04573  0.29248  Biso   1.000  Mn
  O61      1.0000 0.78859  0.12540  0.38050  Biso   1.000  O
  O62      1.0000 0.81845  0.10863  0.35647  Biso   1.000  O
  O63      1.0000 0.72498  0.95775  0.35037  Biso   1.000  O
  O64      1.0000 0.65512  0.85818  0.26826  Biso   1.000  O
  O65      1.0000 0.68697  0.84570  0.18854  Biso   1.000  O
  O66      1.0000 0.62974  0.82270  0.17037  Biso   1.000  O
  O67      1.0000 0.74489  0.80920  0.33659  Biso   1.000  O
  O68      1.0000 0.83464  0.75130  0.34100  Biso   1.000  O
  O69      1.0000 0.79616  0.69241  0.35650  Biso   1.000  O
  O70      1.0000 0.86890  0.07078  0.34750  Biso   1.000  O
  O71      1.0000 0.87445  0.02978  0.32491  Biso   1.000  O
  O72      1.0000 0.82461  0.99084  0.41935  Biso   1.000  O
  O73      1.0000 0.64355  0.92556  0.44490  Biso   1.000  O
  O74      1.0000 0.55679  0.77907  0.46240  Biso   1.000  O
  O75      1.0000 0.49725  0.76463  0.45256  Biso   1.000  O
  O76      1.0000 0.75721  0.02992  0.51330  Biso   1.000  O
  O77      1.0000 0.72572  0.14288  0.52263  Biso   1.000  O
  O78      1.0000 0.71137  0.14071  0.55833  Biso   1.000  O
  O79      1.0000 0.83010  0.22690  0.37130  Biso   1.000  O
  O80      1.0000 0.83540  0.23530  0.36840  Biso   1.000  O
  H241     1.0000 0.80880  0.22980  0.37090  Biso   1.000  H
  H242     1.0000 0.85140  0.24860  0.38120  Biso   1.000  H
  H243     1.0000 0.86210  0.25720  0.36750  Biso   1.000  H
  H244     1.0000 0.81940  0.23830  0.35720  Biso   1.000  H
  H245     1.0000 0.80280  0.21880  0.37410  Biso   1.000  H
  H246     1.0000 0.84500  0.23670  0.38490  Biso   1.000  H
  H247     1.0000 0.85620  0.24980  0.37210  Biso   1.000  H
  H248     1.0000 0.81400  0.23200  0.36130  Biso   1.000  H
  C265     1.0000 0.45797  0.43179  0.70329  Biso   1.000  C
  C266     1.0000 0.42784  0.39012  0.70672  Biso   1.000  C
  C267     1.0000 0.39565  0.38024  0.72109  Biso   1.000  C
  H249     1.0000 0.39587  0.40003  0.73003  Biso   1.000  H
  C268     1.0000 0.36420  0.34253  0.72224  Biso   1.000  C
  H250     1.0000 0.34297  0.33643  0.73183  Biso   1.000  H
  C269     1.0000 0.36397  0.31419  0.70949  Biso   1.000  C
  H251     1.0000 0.34227  0.28843  0.71013  Biso   1.000  H
  C270     1.0000 0.39595  0.32249  0.69499  Biso   1.000  C
  C271     1.0000 0.42781  0.36063  0.69365  Biso   1.000  C
  H252     1.0000 0.44907  0.36653  0.68413  Biso   1.000  H
  C272     1.0000 0.42208  0.29528  0.66819  Biso   1.000  C
  H253     1.0000 0.44697  0.30343  0.67603  Biso   1.000  H
  H254     1.0000 0.42667  0.31533  0.65703  Biso   1.000  H
  C273     1.0000 0.40709  0.25481  0.65722  Biso   1.000  C
  C274     1.0000 0.40498  0.22352  0.66964  Biso   1.000  C
  C275     1.0000 0.38642  0.18592  0.66042  Biso   1.000  C
  C276     1.0000 0.37377  0.17990  0.63826  Biso   1.000  C
  C277     1.0000 0.37737  0.21194  0.62604  Biso   1.000  C
  C278     1.0000 0.39266  0.25030  0.63619  Biso   1.000  C
  C279     1.0000 0.39231  0.28342  0.62291  Biso   1.000  C
  H255     1.0000 0.38607  0.29933  0.63263  Biso   1.000  H
  H256     1.0000 0.37257  0.27203  0.61133  Biso   1.000  H
  H257     1.0000 0.41817  0.30003  0.61633  Biso   1.000  H
  C280     1.0000 0.42306  0.22965  0.69303  Biso   1.000  C
  H258     1.0000 0.44947  0.25253  0.69303  Biso   1.000  H
  H259     1.0000 0.42437  0.20643  0.69733  Biso   1.000  H
  H260     1.0000 0.40667  0.23383  0.70343  Biso   1.000  H
  C281     1.0000 0.35569  0.13919  0.62812  Biso   1.000  C
  H261     1.0000 0.36397  0.12333  0.63643  Biso   1.000  H
  H262     1.0000 0.36437  0.14133  0.61293  Biso   1.000  H
  H263     1.0000 0.32707  0.12673  0.62853  Biso   1.000  H
  C282     1.0000 0.37926  0.15025  0.67398  Biso   1.000  C
  H264     1.0000 0.37807  0.15543  0.68973  Biso   1.000  H
  H265     1.0000 0.35407  0.12723  0.66973  Biso   1.000  H
  C283     1.0000 0.40791  0.10958  0.68047  Biso   1.000  C
  C284     1.0000 0.37555  0.08424  0.69377  Biso   1.000  C
  H266     1.0000 0.35497  0.08963  0.69623  Biso   1.000  H
  C285     1.0000 0.37393  0.05076  0.70344  Biso   1.000  C
  H267     1.0000 0.35227  0.03383  0.71233  Biso   1.000  H
  C286     1.0000 0.40467  0.04261  0.69980  Biso   1.000  C
  H268     1.0000 0.40357  0.02023  0.70623  Biso   1.000  H
  C287     1.0000 0.43704  0.06796  0.68650  Biso   1.000  C
  C288     1.0000 0.43866  0.10144  0.67683  Biso   1.000  C
  H269     1.0000 0.46027  0.11833  0.66793  Biso   1.000  H
  C289     1.0000 0.46951  0.05927  0.68267  Biso   1.000  C
  C290     1.0000 0.36255  0.20548  0.60206  Biso   1.000  C
  H270     1.0000 0.37647  0.23043  0.59393  Biso   1.000  H
  H271     1.0000 0.36807  0.18623  0.59483  Biso   1.000  H
  C291     1.0000 0.30212  0.17842  0.58193  Biso   1.000  C
  C292     1.0000 0.26125  0.16398  0.58279  Biso   1.000  C
  H272     1.0000 0.24937  0.16393  0.59633  Biso   1.000  H
  C293     1.0000 0.23824  0.14979  0.56387  Biso   1.000  C
  H273     1.0000 0.21077  0.13943  0.56463  Biso   1.000  H
  C294     1.0000 0.25633  0.15097  0.54339  Biso   1.000  C
  H274     1.0000 0.24107  0.14243  0.53043  Biso   1.000  H
  C295     1.0000 0.29678  0.16477  0.54255  Biso   1.000  C
  C296     1.0000 0.31939  0.17936  0.56197  Biso   1.000  C
  H275     1.0000 0.34687  0.18993  0.56123  Biso   1.000  H
  C297     1.0000 0.31689  0.16660  0.52088  Biso   1.000  C
  C298     1.0000 0.53673  0.37424  0.67675  Biso   1.000  C
  C299     1.0000 0.53300  0.34807  0.69594  Biso   1.000  C
  C300     1.0000 0.54605  0.32054  0.69433  Biso   1.000  C
  H276     1.0000 0.55867  0.31923  0.68133  Biso   1.000  H
  C301     1.0000 0.54032  0.29502  0.71208  Biso   1.000  C
  H277     1.0000 0.54907  0.27663  0.71103  Biso   1.000  H
  C302     1.0000 0.52153  0.29702  0.73145  Biso   1.000  C
  H278     1.0000 0.51767  0.27993  0.74333  Biso   1.000  H
  C303     1.0000 0.50848  0.32455  0.73306  Biso   1.000  C
  C304     1.0000 0.51421  0.35007  0.71530  Biso   1.000  C
  H279     1.0000 0.50547  0.36843  0.71633  Biso   1.000  H
  C305     1.0000 0.46999  0.34499  0.75270  Biso   1.000  C
  H280     1.0000 0.45517  0.34003  0.73883  Biso   1.000  H
  H281     1.0000 0.48837  0.37343  0.75393  Biso   1.000  H
  C306     1.0000 0.44118  0.33059  0.77254  Biso   1.000  C
  C307     1.0000 0.40583  0.29489  0.77125  Biso   1.000  C
  C308     1.0000 0.37722  0.28524  0.78856  Biso   1.000  C
  C309     1.0000 0.38450  0.31189  0.80538  Biso   1.000  C
  C310     1.0000 0.42136  0.34714  0.80737  Biso   1.000  C
  C311     1.0000 0.45115  0.35590  0.79174  Biso   1.000  C
  C312     1.0000 0.49224  0.39211  0.79392  Biso   1.000  C
  H282     1.0000 0.51157  0.38663  0.78723  Biso   1.000  H
  H283     1.0000 0.49847  0.39833  0.80943  Biso   1.000  H
  H284     1.0000 0.49277  0.41433  0.78643  Biso   1.000  H
  C313     1.0000 0.39604  0.26775  0.75239  Biso   1.000  C
  H285     1.0000 0.37797  0.27063  0.74253  Biso   1.000  H
  H286     1.0000 0.38367  0.24073  0.75773  Biso   1.000  H
  H287     1.0000 0.42007  0.27403  0.74443  Biso   1.000  H
  C314     1.0000 0.35097  0.30257  0.82222  Biso   1.000  C
  H288     1.0000 0.32677  0.29573  0.81433  Biso   1.000  H
  H289     1.0000 0.35837  0.32563  0.83143  Biso   1.000  H
  H290     1.0000 0.34687  0.28053  0.83143  Biso   1.000  H
  C315     1.0000 0.33834  0.24709  0.78719  Biso   1.000  C
  H291     1.0000 0.34037  0.22833  0.77733  Biso   1.000  H
  H292     1.0000 0.32987  0.23493  0.80183  Biso   1.000  H
  C316     1.0000 0.27148  0.23203  0.78057  Biso   1.000  C
  C317     1.0000 0.24549  0.24653  0.77699  Biso   1.000  C
  H293     1.0000 0.25557  0.27363  0.77423  Biso   1.000  H
  C318     1.0000 0.20444  0.22062  0.77757  Biso   1.000  C
  H294     1.0000 0.18707  0.23033  0.77513  Biso   1.000  H
  C319     1.0000 0.18938  0.18020  0.78172  Biso   1.000  C
  H295     1.0000 0.16187  0.16283  0.78213  Biso   1.000  H
  C320     1.0000 0.21536  0.16568  0.78529  Biso   1.000  C
  C321     1.0000 0.25641  0.19159  0.78471  Biso   1.000  C
  H296     1.0000 0.27377  0.18183  0.78713  Biso   1.000  H
  C322     1.0000 0.19937  0.12364  0.78940  Biso   1.000  C
  C323     1.0000 0.42515  0.37674  0.82462  Biso   1.000  C
  H297     1.0000 0.45017  0.40133  0.82243  Biso   1.000  H
  H298     1.0000 0.40367  0.38253  0.82263  Biso   1.000  H
  C324     1.0000 0.40948  0.37812  0.86258  Biso   1.000  C
  C325     1.0000 0.39870  0.35720  0.88264  Biso   1.000  C
  H299     1.0000 0.40147  0.33483  0.88443  Biso   1.000  H
  C326     1.0000 0.38380  0.36976  0.90004  Biso   1.000  C
  H300     1.0000 0.37657  0.35573  0.91343  Biso   1.000  H
  C327     1.0000 0.37970  0.40327  0.89739  Biso   1.000  C
  H301     1.0000 0.36977  0.41173  0.90903  Biso   1.000  H
  C328     1.0000 0.39048  0.42419  0.87733  Biso   1.000  C
  C329     1.0000 0.40538  0.41163  0.85993  Biso   1.000  C
  H302     1.0000 0.41257  0.42563  0.84653  Biso   1.000  H
  C330     1.0000 0.38676  0.46027  0.87463  Biso   1.000  C
  Mn13     1.0000 0.50216  0.51185  0.69431  Biso   1.000  Mn
  Mn14     1.0000 0.52669  0.44863  0.66182  Biso   1.000  Mn
  Mn15     1.0000 0.52672  0.37906  0.62582  Biso   1.000  Mn
  O81      1.0000 0.45526  0.45873  0.71383  Biso   1.000  O
  O82      1.0000 0.48512  0.44196  0.68980  Biso   1.000  O
  O83      1.0000 0.39165  0.29108  0.68370  Biso   1.000  O
  O84      1.0000 0.32179  0.19151  0.60159  Biso   1.000  O
  O85      1.0000 0.35364  0.17903  0.52187  Biso   1.000  O
  O86      1.0000 0.29641  0.15603  0.50370  Biso   1.000  O
  O87      1.0000 0.41156  0.14253  0.66992  Biso   1.000  O
  O88      1.0000 0.50131  0.08463  0.67433  Biso   1.000  O
  O89      1.0000 0.46283  0.02574  0.68983  Biso   1.000  O
  O90      1.0000 0.53557  0.40411  0.68083  Biso   1.000  O
  O91      1.0000 0.54112  0.36311  0.65824  Biso   1.000  O
  O92      1.0000 0.49128  0.32417  0.75268  Biso   1.000  O
  O93      1.0000 0.31022  0.25889  0.77823  Biso   1.000  O
  O94      1.0000 0.22346  0.11240  0.79573  Biso   1.000  O
  O95      1.0000 0.16392  0.09796  0.78589  Biso   1.000  O
  O96      1.0000 0.42388  0.36325  0.84663  Biso   1.000  O
  O97      1.0000 0.39239  0.47621  0.85596  Biso   1.000  O
  O98      1.0000 0.37804  0.47404  0.89166  Biso   1.000  O
  O99      1.0000 0.49677  0.56023  0.70463  Biso   1.000  O
  O100     1.0000 0.50207  0.56863  0.70173  Biso   1.000  O
  H303     1.0000 0.47547  0.56313  0.70423  Biso   1.000  H
  H304     1.0000 0.51807  0.58193  0.71453  Biso   1.000  H
  H305     1.0000 0.52877  0.59053  0.70083  Biso   1.000  H
  H306     1.0000 0.48607  0.57163  0.69053  Biso   1.000  H
  H307     1.0000 0.46947  0.55213  0.70743  Biso   1.000  H
  H308     1.0000 0.51167  0.57003  0.71823  Biso   1.000  H
  H309     1.0000 0.52287  0.58313  0.70543  Biso   1.000  H
  H310     1.0000 0.48067  0.56533  0.69463  Biso   1.000  H
  C331     1.0000 0.12463  0.76513  0.03663  Biso   1.000  C
  C332     1.0000 0.09450  0.72346  0.04006  Biso   1.000  C
  C333     1.0000 0.06231  0.71358  0.05443  Biso   1.000  C
  H311     1.0000 0.06253  0.73337  0.06337  Biso   1.000  H
  C334     1.0000 0.03086  0.67587  0.05558  Biso   1.000  C
  H312     1.0000 0.00963  0.66977  0.06517  Biso   1.000  H
  C335     1.0000 0.03063  0.64753  0.04283  Biso   1.000  C
  H313     1.0000 0.00893  0.62177  0.04347  Biso   1.000  H
  C336     1.0000 0.06261  0.65583  0.02833  Biso   1.000  C
  C337     1.0000 0.09447  0.69397  0.02699  Biso   1.000  C
  H314     1.0000 0.11573  0.69987  0.01747  Biso   1.000  H
  C338     1.0000 0.08874  0.62862  0.00153  Biso   1.000  C
  H315     1.0000 0.11363  0.63677  0.00937  Biso   1.000  H
  H316     1.0000 0.09333  0.64867  0.99037  Biso   1.000  H
  C339     1.0000 0.07375  0.58815  0.99056  Biso   1.000  C
  C340     1.0000 0.07164  0.55686  0.00298  Biso   1.000  C
  C341     1.0000 0.05308  0.51926  0.99376  Biso   1.000  C
  C342     1.0000 0.04043  0.51324  0.97160  Biso   1.000  C
  C343     1.0000 0.04403  0.54528  0.95938  Biso   1.000  C
  C344     1.0000 0.05932  0.58364  0.96953  Biso   1.000  C
  C345     1.0000 0.05897  0.61676  0.95625  Biso   1.000  C
  H317     1.0000 0.05273  0.63267  0.96597  Biso   1.000  H
  H318     1.0000 0.03923  0.60537  0.94467  Biso   1.000  H
  H319     1.0000 0.08483  0.63337  0.94967  Biso   1.000  H
  C346     1.0000 0.08972  0.56299  0.02637  Biso   1.000  C
  H320     1.0000 0.11613  0.58587  0.02637  Biso   1.000  H
  H321     1.0000 0.09103  0.53977  0.03067  Biso   1.000  H
  H322     1.0000 0.07333  0.56717  0.03677  Biso   1.000  H
  C347     1.0000 0.02235  0.47253  0.96146  Biso   1.000  C
  H323     1.0000 0.03063  0.45667  0.96977  Biso   1.000  H
  H324     1.0000 0.03103  0.47467  0.94627  Biso   1.000  H
  H325     1.0000 0.99373  0.46007  0.96187  Biso   1.000  H
  C348     1.0000 0.04592  0.48359  0.00732  Biso   1.000  C
  H326     1.0000 0.04473  0.48877  0.02307  Biso   1.000  H
  H327     1.0000 0.02073  0.46057  0.00307  Biso   1.000  H
  C349     1.0000 0.07457  0.44292  0.01381  Biso   1.000  C
  C350     1.0000 0.04221  0.41758  0.02711  Biso   1.000  C
  H328     1.0000 0.02163  0.42297  0.02957  Biso   1.000  H
  C351     1.0000 0.04059  0.38410  0.03678  Biso   1.000  C
  H329     1.0000 0.01893  0.36717  0.04567  Biso   1.000  H
  C352     1.0000 0.07133  0.37595  0.03314  Biso   1.000  C
  H330     1.0000 0.07023  0.35357  0.03957  Biso   1.000  H
  C353     1.0000 0.10370  0.40130  0.01984  Biso   1.000  C
  C354     1.0000 0.10532  0.43478  0.01017  Biso   1.000  C
  H331     1.0000 0.12693  0.45167  0.00127  Biso   1.000  H
  C355     1.0000 0.13617  0.39261  0.01601  Biso   1.000  C
  C356     1.0000 0.02921  0.53882  0.93540  Biso   1.000  C
  H332     1.0000 0.04313  0.56377  0.92727  Biso   1.000  H
  H333     1.0000 0.03473  0.51957  0.92817  Biso   1.000  H
  C357     1.0000 0.96878  0.51176  0.91527  Biso   1.000  C
  C358     1.0000 0.92791  0.49732  0.91613  Biso   1.000  C
  H334     1.0000 0.91603  0.49727  0.92967  Biso   1.000  H
  C359     1.0000 0.90490  0.48313  0.89721  Biso   1.000  C
  H335     1.0000 0.87743  0.47277  0.89797  Biso   1.000  H
  C360     1.0000 0.92299  0.48431  0.87673  Biso   1.000  C
  H336     1.0000 0.90773  0.47577  0.86377  Biso   1.000  H
  C361     1.0000 0.96344  0.49811  0.87589  Biso   1.000  C
  C362     1.0000 0.98605  0.51270  0.89531  Biso   1.000  C
  H337     1.0000 0.01353  0.52327  0.89457  Biso   1.000  H
  C363     1.0000 0.98355  0.49994  0.85422  Biso   1.000  C
  C364     1.0000 0.20339  0.70758  0.01009  Biso   1.000  C
  C365     1.0000 0.19966  0.68141  0.02928  Biso   1.000  C
  C366     1.0000 0.21271  0.65388  0.02767  Biso   1.000  C
  H338     1.0000 0.22533  0.65257  0.01467  Biso   1.000  H
  C367     1.0000 0.20698  0.62836  0.04542  Biso   1.000  C
  H339     1.0000 0.21573  0.60997  0.04437  Biso   1.000  H
  C368     1.0000 0.18819  0.63036  0.06479  Biso   1.000  C
  H340     1.0000 0.18433  0.61327  0.07667  Biso   1.000  H
  C369     1.0000 0.17514  0.65789  0.06640  Biso   1.000  C
  C370     1.0000 0.18087  0.68341  0.04864  Biso   1.000  C
  H341     1.0000 0.17213  0.70177  0.04967  Biso   1.000  H
  C371     1.0000 0.13665  0.67833  0.08604  Biso   1.000  C
  H342     1.0000 0.12183  0.67337  0.07217  Biso   1.000  H
  H343     1.0000 0.15503  0.70677  0.08727  Biso   1.000  H
  C372     1.0000 0.10784  0.66393  0.10588  Biso   1.000  C
  C373     1.0000 0.07249  0.62823  0.10459  Biso   1.000  C
  C374     1.0000 0.04388  0.61858  0.12190  Biso   1.000  C
  C375     1.0000 0.05116  0.64523  0.13872  Biso   1.000  C
  C376     1.0000 0.08802  0.68048  0.14071  Biso   1.000  C
  C377     1.0000 0.11781  0.68924  0.12508  Biso   1.000  C
  C378     1.0000 0.15890  0.72545  0.12726  Biso   1.000  C
  H344     1.0000 0.17823  0.71997  0.12057  Biso   1.000  H
  H345     1.0000 0.16513  0.73167  0.14277  Biso   1.000  H
  H346     1.0000 0.15943  0.74767  0.11977  Biso   1.000  H
  C379     1.0000 0.06270  0.60109  0.08573  Biso   1.000  C
  H347     1.0000 0.04463  0.60397  0.07587  Biso   1.000  H
  H348     1.0000 0.05033  0.57407  0.09107  Biso   1.000  H
  H349     1.0000 0.08673  0.60737  0.07777  Biso   1.000  H
  C380     1.0000 0.01763  0.63591  0.15556  Biso   1.000  C
  H350     1.0000 0.99343  0.62907  0.14767  Biso   1.000  H
  H351     1.0000 0.02503  0.65897  0.16477  Biso   1.000  H
  H352     1.0000 0.01353  0.61387  0.16477  Biso   1.000  H
  C381     1.0000 0.00500  0.58043  0.12053  Biso   1.000  C
  H353     1.0000 0.00703  0.56167  0.11067  Biso   1.000  H
  H354     1.0000 0.99653  0.56827  0.13517  Biso   1.000  H
  C382     1.0000 0.93814  0.56537  0.11391  Biso   1.000  C
  C383     1.0000 0.91215  0.57987  0.11033  Biso   1.000  C
  H355     1.0000 0.92223  0.60697  0.10757  Biso   1.000  H
  C384     1.0000 0.87110  0.55396  0.11091  Biso   1.000  C
  H356     1.0000 0.85373  0.56367  0.10847  Biso   1.000  H
  C385     1.0000 0.85604  0.51354  0.11506  Biso   1.000  C
  H357     1.0000 0.82853  0.49617  0.11547  Biso   1.000  H
  C386     1.0000 0.88202  0.49902  0.11863  Biso   1.000  C
  C387     1.0000 0.92307  0.52493  0.11805  Biso   1.000  C
  H358     1.0000 0.94043  0.51517  0.12047  Biso   1.000  H
  C388     1.0000 0.86603  0.45698  0.12274  Biso   1.000  C
  C389     1.0000 0.09181  0.71008  0.15796  Biso   1.000  C
  H359     1.0000 0.11683  0.73467  0.15577  Biso   1.000  H
  H360     1.0000 0.07033  0.71587  0.15597  Biso   1.000  H
  C390     1.0000 0.07614  0.71146  0.19592  Biso   1.000  C
  C391     1.0000 0.06536  0.69054  0.21598  Biso   1.000  C
  H361     1.0000 0.06813  0.66817  0.21777  Biso   1.000  H
  C392     1.0000 0.05046  0.70310  0.23338  Biso   1.000  C
  H362     1.0000 0.04323  0.68907  0.24677  Biso   1.000  H
  C393     1.0000 0.04636  0.73661  0.23073  Biso   1.000  C
  H363     1.0000 0.03643  0.74507  0.24237  Biso   1.000  H
  C394     1.0000 0.05714  0.75753  0.21067  Biso   1.000  C
  C395     1.0000 0.07204  0.74497  0.19327  Biso   1.000  C
  H364     1.0000 0.07923  0.75897  0.17987  Biso   1.000  H
  C396     1.0000 0.05342  0.79361  0.20797  Biso   1.000  C
  Mn16     1.0000 0.16883  0.84518  0.02765  Biso   1.000  Mn
  Mn17     1.0000 0.19335  0.78196  0.99515  Biso   1.000  Mn
  Mn18     1.0000 0.19339  0.71239  0.95915  Biso   1.000  Mn
  O101     1.0000 0.12192  0.79207  0.04717  Biso   1.000  O
  O102     1.0000 0.15178  0.77530  0.02314  Biso   1.000  O
  O103     1.0000 0.05831  0.62442  0.01704  Biso   1.000  O
  O104     1.0000 0.98845  0.52485  0.93493  Biso   1.000  O
  O105     1.0000 0.02030  0.51237  0.85521  Biso   1.000  O
  O106     1.0000 0.96307  0.48937  0.83704  Biso   1.000  O
  O107     1.0000 0.07822  0.47587  0.00326  Biso   1.000  O
  O108     1.0000 0.16797  0.41797  0.00767  Biso   1.000  O
  O109     1.0000 0.12949  0.35908  0.02317  Biso   1.000  O
  O110     1.0000 0.20223  0.73745  0.01417  Biso   1.000  O
  O111     1.0000 0.20778  0.69645  0.99158  Biso   1.000  O
  O112     1.0000 0.15794  0.65751  0.08602  Biso   1.000  O
  O113     1.0000 0.97688  0.59223  0.11157  Biso   1.000  O
  O114     1.0000 0.89012  0.44574  0.12907  Biso   1.000  O
  O115     1.0000 0.83058  0.43130  0.11923  Biso   1.000  O
  O116     1.0000 0.09054  0.69659  0.17997  Biso   1.000  O
  O117     1.0000 0.05905  0.80955  0.18930  Biso   1.000  O
  O118     1.0000 0.04470  0.80738  0.22500  Biso   1.000  O
  O119     1.0000 0.16343  0.89357  0.03797  Biso   1.000  O
  O120     1.0000 0.16873  0.90197  0.03507  Biso   1.000  O
  H365     1.0000 0.14213  0.89647  0.03757  Biso   1.000  H
  H366     1.0000 0.18473  0.91527  0.04787  Biso   1.000  H
  H367     1.0000 0.19543  0.92387  0.03417  Biso   1.000  H
  H368     1.0000 0.15273  0.90497  0.02387  Biso   1.000  H
  H369     1.0000 0.13613  0.88547  0.04077  Biso   1.000  H
  H370     1.0000 0.17833  0.90337  0.05157  Biso   1.000  H
  H371     1.0000 0.18953  0.91647  0.03877  Biso   1.000  H
  H372     1.0000 0.14733  0.89867  0.02797  Biso   1.000  H
  C397     1.0000 0.90154  0.69284  0.36996  Biso   1.000  C
  C398     1.0000 0.94321  0.70438  0.37339  Biso   1.000  C
  C399     1.0000 0.95309  0.68207  0.38776  Biso   1.000  C
  H373     1.0000 0.93330  0.66250  0.39670  Biso   1.000  H
  C400     1.0000 0.99080  0.68833  0.38891  Biso   1.000  C
  H374     1.0000 0.99690  0.67320  0.39850  Biso   1.000  H
  C401     1.0000 0.01914  0.71644  0.37616  Biso   1.000  C
  H375     1.0000 0.04490  0.72050  0.37680  Biso   1.000  H
  C402     1.0000 0.01084  0.74012  0.36166  Biso   1.000  C
  C403     1.0000 0.97270  0.73384  0.36032  Biso   1.000  C
  H376     1.0000 0.96680  0.74920  0.35080  Biso   1.000  H
  C404     1.0000 0.03805  0.79346  0.33486  Biso   1.000  C
  H377     1.0000 0.02990  0.81020  0.34270  Biso   1.000  H
  H378     1.0000 0.01800  0.77800  0.32370  Biso   1.000  H
  C405     1.0000 0.07852  0.81894  0.32389  Biso   1.000  C
  C406     1.0000 0.10981  0.84812  0.33631  Biso   1.000  C
  C407     1.0000 0.14741  0.86716  0.32709  Biso   1.000  C
  C408     1.0000 0.15343  0.86053  0.30493  Biso   1.000  C
  C409     1.0000 0.12139  0.83209  0.29271  Biso   1.000  C
  C410     1.0000 0.08303  0.80902  0.30286  Biso   1.000  C
  C411     1.0000 0.04991  0.77555  0.28958  Biso   1.000  C
  H379     1.0000 0.03400  0.75340  0.29930  Biso   1.000  H
  H380     1.0000 0.06130  0.76720  0.27800  Biso   1.000  H
  H381     1.0000 0.03330  0.78480  0.28300  Biso   1.000  H
  C412     1.0000 0.10368  0.86007  0.35970  Biso   1.000  C
  H382     1.0000 0.08080  0.86360  0.35970  Biso   1.000  H
  H383     1.0000 0.12690  0.88460  0.36400  Biso   1.000  H
  H384     1.0000 0.09950  0.83950  0.37010  Biso   1.000  H
  C413     1.0000 0.19414  0.88316  0.29479  Biso   1.000  C
  H385     1.0000 0.21000  0.90730  0.30310  Biso   1.000  H
  H386     1.0000 0.19200  0.88970  0.27960  Biso   1.000  H
  H387     1.0000 0.20660  0.86700  0.29520  Biso   1.000  H
  C414     1.0000 0.18308  0.89567  0.34065  Biso   1.000  C
  H388     1.0000 0.17790  0.88930  0.35640  Biso   1.000  H
  H389     1.0000 0.20610  0.89350  0.33640  Biso   1.000  H
  C415     1.0000 0.22375  0.96499  0.34714  Biso   1.000  C
  C416     1.0000 0.24909  0.95797  0.36044  Biso   1.000  C
  H390     1.0000 0.24370  0.93200  0.36290  Biso   1.000  H
  C417     1.0000 0.28257  0.98983  0.37011  Biso   1.000  C
  H391     1.0000 0.29950  0.98510  0.37900  Biso   1.000  H
  C418     1.0000 0.29072  0.02872  0.36647  Biso   1.000  C
  H392     1.0000 0.31310  0.05000  0.37290  Biso   1.000  H
  C419     1.0000 0.26537  0.03574  0.35317  Biso   1.000  C
  C420     1.0000 0.23189  0.00388  0.34350  Biso   1.000  C
  H393     1.0000 0.21500  0.00860  0.33460  Biso   1.000  H
  C421     1.0000 0.27406  0.07690  0.34934  Biso   1.000  C
  C422     1.0000 0.12785  0.82373  0.26873  Biso   1.000  C
  H394     1.0000 0.10290  0.81270  0.26060  Biso   1.000  H
  H395     1.0000 0.14710  0.84850  0.26150  Biso   1.000  H
  C423     1.0000 0.15491  0.79036  0.24860  Biso   1.000  C
  C424     1.0000 0.16935  0.76393  0.24946  Biso   1.000  C
  H396     1.0000 0.16940  0.75210  0.26300  Biso   1.000  H
  C425     1.0000 0.18354  0.75511  0.23054  Biso   1.000  C
  H397     1.0000 0.19390  0.73800  0.23130  Biso   1.000  H
  C426     1.0000 0.18236  0.77202  0.21006  Biso   1.000  C
  H398     1.0000 0.19090  0.76530  0.19710  Biso   1.000  H
  C427     1.0000 0.16856  0.79867  0.20922  Biso   1.000  C
  C428     1.0000 0.15397  0.80669  0.22864  Biso   1.000  C
  H399     1.0000 0.14340  0.82360  0.22790  Biso   1.000  H
  C429     1.0000 0.16673  0.81695  0.18755  Biso   1.000  C
  C430     1.0000 0.95909  0.82915  0.34342  Biso   1.000  C
  C431     1.0000 0.98526  0.85159  0.36261  Biso   1.000  C
  C432     1.0000 0.01279  0.89217  0.36100  Biso   1.000  C
  H400     1.0000 0.01410  0.90610  0.34800  Biso   1.000  H
  C433     1.0000 0.03831  0.91196  0.37875  Biso   1.000  C
  H401     1.0000 0.05670  0.93910  0.37770  Biso   1.000  H
  C434     1.0000 0.03631  0.89117  0.39812  Biso   1.000  C
  H402     1.0000 0.05340  0.90440  0.41000  Biso   1.000  H
  C435     1.0000 0.00878  0.85059  0.39973  Biso   1.000  C
  C436     1.0000 0.98326  0.83080  0.38197  Biso   1.000  C
  H403     1.0000 0.96490  0.80370  0.38300  Biso   1.000  H
  C437     1.0000 0.98834  0.79166  0.41937  Biso   1.000  C
  H404     1.0000 0.99330  0.78180  0.40550  Biso   1.000  H
  H405     1.0000 0.95990  0.78160  0.42060  Biso   1.000  H
  C438     1.0000 0.00274  0.77725  0.43921  Biso   1.000  C
  C439     1.0000 0.03844  0.77760  0.43792  Biso   1.000  C
  C440     1.0000 0.04809  0.75864  0.45523  Biso   1.000  C
  C441     1.0000 0.02144  0.73927  0.47205  Biso   1.000  C
  C442     1.0000 0.98619  0.74088  0.47404  Biso   1.000  C
  C443     1.0000 0.97743  0.76191  0.45841  Biso   1.000  C
  C444     1.0000 0.94122  0.76679  0.46059  Biso   1.000  C
  H406     1.0000 0.94670  0.79160  0.45390  Biso   1.000  H
  H407     1.0000 0.93500  0.76680  0.47610  Biso   1.000  H
  H408     1.0000 0.91900  0.74510  0.45310  Biso   1.000  H
  C445     1.0000 0.06558  0.79495  0.41906  Biso   1.000  C
  H409     1.0000 0.06270  0.77400  0.40920  Biso   1.000  H
  H410     1.0000 0.09260  0.80960  0.42440  Biso   1.000  H
  H411     1.0000 0.05930  0.81270  0.41110  Biso   1.000  H
  C446     1.0000 0.03076  0.71506  0.48889  Biso   1.000  C
  H412     1.0000 0.03760  0.69770  0.48100  Biso   1.000  H
  H413     1.0000 0.00770  0.69940  0.49810  Biso   1.000  H
  H414     1.0000 0.05280  0.73300  0.49810  Biso   1.000  H
  C447     1.0000 0.08624  0.75791  0.45386  Biso   1.000  C
  H415     1.0000 0.10500  0.77870  0.44400  Biso   1.000  H
  H416     1.0000 0.09840  0.76160  0.46850  Biso   1.000  H
  C448     1.0000 0.10130  0.70611  0.44724  Biso   1.000  C
  C449     1.0000 0.08680  0.66562  0.44366  Biso   1.000  C
  H417     1.0000 0.05970  0.64860  0.44090  Biso   1.000  H
  C450     1.0000 0.11271  0.65048  0.44424  Biso   1.000  C
  H418     1.0000 0.10300  0.62340  0.44180  Biso   1.000  H
  C451     1.0000 0.15313  0.67584  0.44839  Biso   1.000  C
  H419     1.0000 0.17050  0.66570  0.44880  Biso   1.000  H
  C452     1.0000 0.16765  0.71634  0.45196  Biso   1.000  C
  C453     1.0000 0.14174  0.73148  0.45138  Biso   1.000  C
  H420     1.0000 0.15150  0.75860  0.45380  Biso   1.000  H
  C454     1.0000 0.20969  0.74239  0.45607  Biso   1.000  C
  C455     1.0000 0.95659  0.71507  0.49129  Biso   1.000  C
  H421     1.0000 0.93200  0.71550  0.48910  Biso   1.000  H
  H422     1.0000 0.95080  0.68780  0.48930  Biso   1.000  H
  C456     1.0000 0.95521  0.69802  0.52925  Biso   1.000  C
  C457     1.0000 0.97613  0.70816  0.54931  Biso   1.000  C
  H423     1.0000 0.99850  0.73330  0.55110  Biso   1.000  H
  C458     1.0000 0.96357  0.68070  0.56671  Biso   1.000  C
  H424     1.0000 0.97760  0.68750  0.58010  Biso   1.000  H
  C459     1.0000 0.93006  0.64309  0.56406  Biso   1.000  C
  H425     1.0000 0.92160  0.62470  0.57570  Biso   1.000  H
  C460     1.0000 0.90914  0.63295  0.54400  Biso   1.000  C
  C461     1.0000 0.92170  0.66041  0.52660  Biso   1.000  C
  H426     1.0000 0.90770  0.65360  0.51320  Biso   1.000  H
  C462     1.0000 0.87306  0.59315  0.54130  Biso   1.000  C
  Mn19     1.0000 0.82149  0.65698  0.36098  Biso   1.000  Mn
  Mn20     1.0000 0.88471  0.74473  0.32848  Biso   1.000  Mn
  Mn21     1.0000 0.95427  0.81433  0.29248  Biso   1.000  Mn
  O121     1.0000 0.87460  0.66319  0.38050  Biso   1.000  O
  O122     1.0000 0.89137  0.70982  0.35647  Biso   1.000  O
  O123     1.0000 0.04225  0.76723  0.35037  Biso   1.000  O
  O124     1.0000 0.14182  0.79694  0.26826  Biso   1.000  O
  O125     1.0000 0.15430  0.84127  0.18854  Biso   1.000  O
  O126     1.0000 0.17730  0.80704  0.17037  Biso   1.000  O
  O127     1.0000 0.19080  0.93569  0.33659  Biso   1.000  O
  O128     1.0000 0.24870  0.08334  0.34100  Biso   1.000  O
  O129     1.0000 0.30759  0.10375  0.35650  Biso   1.000  O
  O130     1.0000 0.92922  0.79812  0.34750  Biso   1.000  O
  O131     1.0000 0.97022  0.84467  0.32491  Biso   1.000  O
  O132     1.0000 0.00916  0.83377  0.41935  Biso   1.000  O
  O133     1.0000 0.07444  0.71799  0.44490  Biso   1.000  O
  O134     1.0000 0.22093  0.77772  0.46240  Biso   1.000  O
  O135     1.0000 0.23537  0.73262  0.45256  Biso   1.000  O
  O136     1.0000 0.97008  0.72729  0.51330  Biso   1.000  O
  O137     1.0000 0.85712  0.58284  0.52263  Biso   1.000  O
  O138     1.0000 0.85929  0.57066  0.55833  Biso   1.000  O
  O139     1.0000 0.77310  0.60320  0.37130  Biso   1.000  O
  O140     1.0000 0.76470  0.60010  0.36840  Biso   1.000  O
  H427     1.0000 0.77020  0.57900  0.37090  Biso   1.000  H
  H428     1.0000 0.75140  0.60280  0.38120  Biso   1.000  H
  H429     1.0000 0.74280  0.60490  0.36750  Biso   1.000  H
  H430     1.0000 0.76170  0.58110  0.35720  Biso   1.000  H
  H431     1.0000 0.78120  0.58400  0.37410  Biso   1.000  H
  H432     1.0000 0.76330  0.60830  0.38490  Biso   1.000  H
  H433     1.0000 0.75020  0.60640  0.37210  Biso   1.000  H
  H434     1.0000 0.76800  0.58200  0.36130  Biso   1.000  H
  C463     1.0000 0.56821  0.02617  0.70329  Biso   1.000  C
  C464     1.0000 0.60988  0.03771  0.70672  Biso   1.000  C
  C465     1.0000 0.61976  0.01540  0.72109  Biso   1.000  C
  H435     1.0000 0.59997  0.99583  0.73003  Biso   1.000  H
  C466     1.0000 0.65747  0.02166  0.72224  Biso   1.000  C
  H436     1.0000 0.66357  0.00653  0.73183  Biso   1.000  H
  C467     1.0000 0.68581  0.04977  0.70949  Biso   1.000  C
  H437     1.0000 0.71157  0.05383  0.71013  Biso   1.000  H
  C468     1.0000 0.67751  0.07345  0.69499  Biso   1.000  C
  C469     1.0000 0.63937  0.06717  0.69365  Biso   1.000  C
  H438     1.0000 0.63347  0.08253  0.68413  Biso   1.000  H
  C470     1.0000 0.70472  0.12679  0.66819  Biso   1.000  C
  H439     1.0000 0.69657  0.14353  0.67603  Biso   1.000  H
  H440     1.0000 0.68467  0.11133  0.65703  Biso   1.000  H
  C471     1.0000 0.74519  0.15227  0.65722  Biso   1.000  C
  C472     1.0000 0.77648  0.18145  0.66964  Biso   1.000  C
  C473     1.0000 0.81408  0.20049  0.66042  Biso   1.000  C
  C474     1.0000 0.82010  0.19386  0.63826  Biso   1.000  C
  C475     1.0000 0.78806  0.16542  0.62604  Biso   1.000  C
  C476     1.0000 0.74970  0.14235  0.63619  Biso   1.000  C
  C477     1.0000 0.71658  0.10888  0.62291  Biso   1.000  C
  H441     1.0000 0.70067  0.08673  0.63263  Biso   1.000  H
  H442     1.0000 0.72797  0.10053  0.61133  Biso   1.000  H
  H443     1.0000 0.69997  0.11813  0.61633  Biso   1.000  H
  C478     1.0000 0.77035  0.19340  0.69303  Biso   1.000  C
  H444     1.0000 0.74747  0.19693  0.69303  Biso   1.000  H
  H445     1.0000 0.79357  0.21793  0.69733  Biso   1.000  H
  H446     1.0000 0.76617  0.17283  0.70343  Biso   1.000  H
  C479     1.0000 0.86081  0.21649  0.62812  Biso   1.000  C
  H447     1.0000 0.87667  0.24063  0.63643  Biso   1.000  H
  H448     1.0000 0.85867  0.22303  0.61293  Biso   1.000  H
  H449     1.0000 0.87327  0.20033  0.62853  Biso   1.000  H
  C480     1.0000 0.84975  0.22900  0.67398  Biso   1.000  C
  H450     1.0000 0.84457  0.22263  0.68973  Biso   1.000  H
  H451     1.0000 0.87277  0.22683  0.66973  Biso   1.000  H
  C481     1.0000 0.89042  0.29832  0.68047  Biso   1.000  C
  C482     1.0000 0.91576  0.29130  0.69377  Biso   1.000  C
  H452     1.0000 0.91037  0.26533  0.69623  Biso   1.000  H
  C483     1.0000 0.94924  0.32316  0.70344  Biso   1.000  C
  H453     1.0000 0.96617  0.31843  0.71233  Biso   1.000  H
  C484     1.0000 0.95739  0.36205  0.69980  Biso   1.000  C
  H454     1.0000 0.97977  0.38333  0.70623  Biso   1.000  H
  C485     1.0000 0.93204  0.36907  0.68650  Biso   1.000  C
  C486     1.0000 0.89856  0.33721  0.67683  Biso   1.000  C
  H455     1.0000 0.88167  0.34193  0.66793  Biso   1.000  H
  C487     1.0000 0.94073  0.41023  0.68267  Biso   1.000  C
  C488     1.0000 0.79452  0.15706  0.60206  Biso   1.000  C
  H456     1.0000 0.76957  0.14603  0.59393  Biso   1.000  H
  H457     1.0000 0.81377  0.18183  0.59483  Biso   1.000  H
  C489     1.0000 0.82158  0.12369  0.58193  Biso   1.000  C
  C490     1.0000 0.83602  0.09726  0.58279  Biso   1.000  C
  H458     1.0000 0.83607  0.08543  0.59633  Biso   1.000  H
  C491     1.0000 0.85021  0.08844  0.56387  Biso   1.000  C
  H459     1.0000 0.86057  0.07133  0.56463  Biso   1.000  H
  C492     1.0000 0.84903  0.10535  0.54339  Biso   1.000  C
  H460     1.0000 0.85757  0.09863  0.53043  Biso   1.000  H
  C493     1.0000 0.83523  0.13200  0.54255  Biso   1.000  C
  C494     1.0000 0.82064  0.14002  0.56197  Biso   1.000  C
  H461     1.0000 0.81007  0.15693  0.56123  Biso   1.000  H
  C495     1.0000 0.83340  0.15028  0.52088  Biso   1.000  C
  C496     1.0000 0.62576  0.16248  0.67675  Biso   1.000  C
  C497     1.0000 0.65193  0.18492  0.69594  Biso   1.000  C
  C498     1.0000 0.67946  0.22550  0.69433  Biso   1.000  C
  H462     1.0000 0.68077  0.23943  0.68133  Biso   1.000  H
  C499     1.0000 0.70498  0.24529  0.71208  Biso   1.000  C
  H463     1.0000 0.72337  0.27243  0.71103  Biso   1.000  H
  C500     1.0000 0.70298  0.22450  0.73145  Biso   1.000  C
  H464     1.0000 0.72007  0.23773  0.74333  Biso   1.000  H
  C501     1.0000 0.67545  0.18392  0.73306  Biso   1.000  C
  C502     1.0000 0.64993  0.16413  0.71530  Biso   1.000  C
  H465     1.0000 0.63157  0.13703  0.71633  Biso   1.000  H
  C503     1.0000 0.65501  0.12499  0.75270  Biso   1.000  C
  H466     1.0000 0.65997  0.11513  0.73883  Biso   1.000  H
  H467     1.0000 0.62657  0.11493  0.75393  Biso   1.000  H
  C504     1.0000 0.66941  0.11058  0.77254  Biso   1.000  C
  C505     1.0000 0.70511  0.11093  0.77125  Biso   1.000  C
  C506     1.0000 0.71476  0.09197  0.78856  Biso   1.000  C
  C507     1.0000 0.68811  0.07260  0.80538  Biso   1.000  C
  C508     1.0000 0.65286  0.07421  0.80737  Biso   1.000  C
  C509     1.0000 0.64410  0.09524  0.79174  Biso   1.000  C
  C510     1.0000 0.60789  0.10012  0.79392  Biso   1.000  C
  H468     1.0000 0.61337  0.12493  0.78723  Biso   1.000  H
  H469     1.0000 0.60167  0.10013  0.80943  Biso   1.000  H
  H470     1.0000 0.58567  0.07843  0.78643  Biso   1.000  H
  C511     1.0000 0.73225  0.12828  0.75239  Biso   1.000  C
  H471     1.0000 0.72937  0.10733  0.74253  Biso   1.000  H
  H472     1.0000 0.75927  0.14293  0.75773  Biso   1.000  H
  H473     1.0000 0.72597  0.14603  0.74443  Biso   1.000  H
  C512     1.0000 0.69743  0.04839  0.82222  Biso   1.000  C
  H474     1.0000 0.70427  0.03103  0.81433  Biso   1.000  H
  H475     1.0000 0.67437  0.03273  0.83143  Biso   1.000  H
  H476     1.0000 0.71947  0.06633  0.83143  Biso   1.000  H
  C513     1.0000 0.75291  0.09124  0.78719  Biso   1.000  C
  H477     1.0000 0.77167  0.11203  0.77733  Biso   1.000  H
  H478     1.0000 0.76507  0.09493  0.80183  Biso   1.000  H
  C514     1.0000 0.76797  0.03944  0.78057  Biso   1.000  C
  C515     1.0000 0.75347  0.99895  0.77699  Biso   1.000  C
  H479     1.0000 0.72637  0.98193  0.77423  Biso   1.000  H
  C516     1.0000 0.77938  0.98381  0.77757  Biso   1.000  C
  H480     1.0000 0.76967  0.95673  0.77513  Biso   1.000  H
  C517     1.0000 0.81980  0.00917  0.78172  Biso   1.000  C
  H481     1.0000 0.83717  0.99903  0.78213  Biso   1.000  H
  C518     1.0000 0.83432  0.04967  0.78529  Biso   1.000  C
  C519     1.0000 0.80841  0.06481  0.78471  Biso   1.000  C
  H482     1.0000 0.81817  0.09193  0.78713  Biso   1.000  H
  C520     1.0000 0.87636  0.07572  0.78940  Biso   1.000  C
  C521     1.0000 0.62326  0.04840  0.82462  Biso   1.000  C
  H483     1.0000 0.59867  0.04883  0.82243  Biso   1.000  H
  H484     1.0000 0.61747  0.02113  0.82263  Biso   1.000  H
  C522     1.0000 0.62188  0.03135  0.86258  Biso   1.000  C
  C523     1.0000 0.64280  0.04149  0.88264  Biso   1.000  C
  H485     1.0000 0.66517  0.06663  0.88443  Biso   1.000  H
  C524     1.0000 0.63024  0.01403  0.90004  Biso   1.000  C
  H486     1.0000 0.64427  0.02083  0.91343  Biso   1.000  H
  C525     1.0000 0.59673  0.97642  0.89739  Biso   1.000  C
  H487     1.0000 0.58827  0.95803  0.90903  Biso   1.000  H
  C526     1.0000 0.57581  0.96628  0.87733  Biso   1.000  C
  C527     1.0000 0.58837  0.99374  0.85993  Biso   1.000  C
  H488     1.0000 0.57437  0.98693  0.84653  Biso   1.000  H
  C528     1.0000 0.53973  0.92648  0.87463  Biso   1.000  C
  Mn22     1.0000 0.48815  0.99032  0.69431  Biso   1.000  Mn
  Mn23     1.0000 0.55137  0.07806  0.66182  Biso   1.000  Mn
  Mn24     1.0000 0.62094  0.14766  0.62582  Biso   1.000  Mn
  O141     1.0000 0.54127  0.99652  0.71383  Biso   1.000  O
  O142     1.0000 0.55804  0.04315  0.68980  Biso   1.000  O
  O143     1.0000 0.70892  0.10056  0.68370  Biso   1.000  O
  O144     1.0000 0.80849  0.13027  0.60159  Biso   1.000  O
  O145     1.0000 0.82097  0.17460  0.52187  Biso   1.000  O
  O146     1.0000 0.84397  0.14037  0.50370  Biso   1.000  O
  O147     1.0000 0.85747  0.26902  0.66992  Biso   1.000  O
  O148     1.0000 0.91537  0.41667  0.67433  Biso   1.000  O
  O149     1.0000 0.97426  0.43708  0.68983  Biso   1.000  O
  O150     1.0000 0.59589  0.13145  0.68083  Biso   1.000  O
  O151     1.0000 0.63689  0.17800  0.65824  Biso   1.000  O
  O152     1.0000 0.67583  0.16710  0.75268  Biso   1.000  O
  O153     1.0000 0.74111  0.05132  0.77823  Biso   1.000  O
  O154     1.0000 0.88760  0.11105  0.79573  Biso   1.000  O
  O155     1.0000 0.90204  0.06595  0.78589  Biso   1.000  O
  O156     1.0000 0.63675  0.06062  0.84663  Biso   1.000  O
  O157     1.0000 0.52379  0.91617  0.85596  Biso   1.000  O
  O158     1.0000 0.52596  0.90399  0.89166  Biso   1.000  O
  O159     1.0000 0.43977  0.93653  0.70463  Biso   1.000  O
  O160     1.0000 0.43137  0.93343  0.70173  Biso   1.000  O
  H489     1.0000 0.43687  0.91233  0.70423  Biso   1.000  H
  H490     1.0000 0.41807  0.93613  0.71453  Biso   1.000  H
  H491     1.0000 0.40947  0.93823  0.70083  Biso   1.000  H
  H492     1.0000 0.42837  0.91443  0.69053  Biso   1.000  H
  H493     1.0000 0.44787  0.91733  0.70743  Biso   1.000  H
  H494     1.0000 0.42997  0.94163  0.71823  Biso   1.000  H
  H495     1.0000 0.41687  0.93973  0.70543  Biso   1.000  H
  H496     1.0000 0.43467  0.91533  0.69463  Biso   1.000  H
  C529     1.0000 0.23487  0.35951  0.03663  Biso   1.000  C
  C530     1.0000 0.27654  0.37105  0.04006  Biso   1.000  C
  C531     1.0000 0.28642  0.34874  0.05443  Biso   1.000  C
  H497     1.0000 0.26663  0.32917  0.06337  Biso   1.000  H
  C532     1.0000 0.32413  0.35500  0.05558  Biso   1.000  C
  H498     1.0000 0.33023  0.33987  0.06517  Biso   1.000  H
  C533     1.0000 0.35247  0.38311  0.04283  Biso   1.000  C
  H499     1.0000 0.37823  0.38717  0.04347  Biso   1.000  H
  C534     1.0000 0.34417  0.40679  0.02833  Biso   1.000  C
  C535     1.0000 0.30603  0.40051  0.02699  Biso   1.000  C
  H500     1.0000 0.30013  0.41587  0.01747  Biso   1.000  H
  C536     1.0000 0.37138  0.46013  0.00153  Biso   1.000  C
  H501     1.0000 0.36323  0.47687  0.00937  Biso   1.000  H
  H502     1.0000 0.35133  0.44467  0.99037  Biso   1.000  H
  C537     1.0000 0.41185  0.48561  0.99056  Biso   1.000  C
  C538     1.0000 0.44314  0.51479  0.00298  Biso   1.000  C
  C539     1.0000 0.48074  0.53383  0.99376  Biso   1.000  C
  C540     1.0000 0.48676  0.52720  0.97160  Biso   1.000  C
  C541     1.0000 0.45472  0.49876  0.95938  Biso   1.000  C
  C542     1.0000 0.41636  0.47569  0.96953  Biso   1.000  C
  C543     1.0000 0.38324  0.44222  0.95625  Biso   1.000  C
  H503     1.0000 0.36733  0.42007  0.96597  Biso   1.000  H
  H504     1.0000 0.39463  0.43387  0.94467  Biso   1.000  H
  H505     1.0000 0.36663  0.45147  0.94967  Biso   1.000  H
  C544     1.0000 0.43701  0.52674  0.02637  Biso   1.000  C
  H506     1.0000 0.41413  0.53027  0.02637  Biso   1.000  H
  H507     1.0000 0.46023  0.55127  0.03067  Biso   1.000  H
  H508     1.0000 0.43283  0.50617  0.03677  Biso   1.000  H
  C545     1.0000 0.52747  0.54983  0.96146  Biso   1.000  C
  H509     1.0000 0.54333  0.57397  0.96977  Biso   1.000  H
  H510     1.0000 0.52533  0.55637  0.94627  Biso   1.000  H
  H511     1.0000 0.53993  0.53367  0.96187  Biso   1.000  H
  C546     1.0000 0.51641  0.56234  0.00732  Biso   1.000  C
  H512     1.0000 0.51123  0.55597  0.02307  Biso   1.000  H
  H513     1.0000 0.53943  0.56017  0.00307  Biso   1.000  H
  C547     1.0000 0.55708  0.63166  0.01381  Biso   1.000  C
  C548     1.0000 0.58242  0.62464  0.02711  Biso   1.000  C
  H514     1.0000 0.57703  0.59867  0.02957  Biso   1.000  H
  C549     1.0000 0.61590  0.65650  0.03678  Biso   1.000  C
  H515     1.0000 0.63283  0.65177  0.04567  Biso   1.000  H
  C550     1.0000 0.62405  0.69539  0.03314  Biso   1.000  C
  H516     1.0000 0.64643  0.71667  0.03957  Biso   1.000  H
  C551     1.0000 0.59870  0.70241  0.01984  Biso   1.000  C
  C552     1.0000 0.56522  0.67055  0.01017  Biso   1.000  C
  H517     1.0000 0.54833  0.67527  0.00127  Biso   1.000  H
  C553     1.0000 0.60739  0.74357  0.01601  Biso   1.000  C
  C554     1.0000 0.46118  0.49040  0.93540  Biso   1.000  C
  H518     1.0000 0.43623  0.47937  0.92727  Biso   1.000  H
  H519     1.0000 0.48043  0.51517  0.92817  Biso   1.000  H
  C555     1.0000 0.48824  0.45703  0.91527  Biso   1.000  C
  C556     1.0000 0.50268  0.43060  0.91613  Biso   1.000  C
  H520     1.0000 0.50273  0.41877  0.92967  Biso   1.000  H
  C557     1.0000 0.51687  0.42178  0.89721  Biso   1.000  C
  H521     1.0000 0.52723  0.40467  0.89797  Biso   1.000  H
  C558     1.0000 0.51569  0.43869  0.87673  Biso   1.000  C
  H522     1.0000 0.52423  0.43197  0.86377  Biso   1.000  H
  C559     1.0000 0.50189  0.46534  0.87589  Biso   1.000  C
  C560     1.0000 0.48730  0.47336  0.89531  Biso   1.000  C
  H523     1.0000 0.47673  0.49027  0.89457  Biso   1.000  H
  C561     1.0000 0.50006  0.48362  0.85422  Biso   1.000  C
  C562     1.0000 0.29242  0.49582  0.01009  Biso   1.000  C
  C563     1.0000 0.31859  0.51826  0.02928  Biso   1.000  C
  C564     1.0000 0.34612  0.55884  0.02767  Biso   1.000  C
  H524     1.0000 0.34743  0.57277  0.01467  Biso   1.000  H
  C565     1.0000 0.37164  0.57863  0.04542  Biso   1.000  C
  H525     1.0000 0.39003  0.60577  0.04437  Biso   1.000  H
  C566     1.0000 0.36964  0.55784  0.06479  Biso   1.000  C
  H526     1.0000 0.38673  0.57107  0.07667  Biso   1.000  H
  C567     1.0000 0.34211  0.51726  0.06640  Biso   1.000  C
  C568     1.0000 0.31659  0.49747  0.04864  Biso   1.000  C
  H527     1.0000 0.29823  0.47037  0.04967  Biso   1.000  H
  C569     1.0000 0.32167  0.45833  0.08604  Biso   1.000  C
  H528     1.0000 0.32663  0.44847  0.07217  Biso   1.000  H
  H529     1.0000 0.29323  0.44827  0.08727  Biso   1.000  H
  C570     1.0000 0.33607  0.44392  0.10588  Biso   1.000  C
  C571     1.0000 0.37177  0.44427  0.10459  Biso   1.000  C
  C572     1.0000 0.38142  0.42531  0.12190  Biso   1.000  C
  C573     1.0000 0.35477  0.40594  0.13872  Biso   1.000  C
  C574     1.0000 0.31952  0.40755  0.14071  Biso   1.000  C
  C575     1.0000 0.31076  0.42858  0.12508  Biso   1.000  C
  C576     1.0000 0.27455  0.43346  0.12726  Biso   1.000  C
  H530     1.0000 0.28003  0.45827  0.12057  Biso   1.000  H
  H531     1.0000 0.26833  0.43347  0.14277  Biso   1.000  H
  H532     1.0000 0.25233  0.41177  0.11977  Biso   1.000  H
  C577     1.0000 0.39891  0.46162  0.08573  Biso   1.000  C
  H533     1.0000 0.39603  0.44067  0.07587  Biso   1.000  H
  H534     1.0000 0.42593  0.47627  0.09107  Biso   1.000  H
  H535     1.0000 0.39263  0.47937  0.07777  Biso   1.000  H
  C578     1.0000 0.36409  0.38173  0.15556  Biso   1.000  C
  H536     1.0000 0.37093  0.36437  0.14767  Biso   1.000  H
  H537     1.0000 0.34103  0.36607  0.16477  Biso   1.000  H
  H538     1.0000 0.38613  0.39967  0.16477  Biso   1.000  H
  C579     1.0000 0.41957  0.42458  0.12053  Biso   1.000  C
  H539     1.0000 0.43833  0.44537  0.11067  Biso   1.000  H
  H540     1.0000 0.43173  0.42827  0.13517  Biso   1.000  H
  C580     1.0000 0.43463  0.37278  0.11391  Biso   1.000  C
  C581     1.0000 0.42013  0.33229  0.11033  Biso   1.000  C
  H541     1.0000 0.39303  0.31527  0.10757  Biso   1.000  H
  C582     1.0000 0.44604  0.31715  0.11091  Biso   1.000  C
  H542     1.0000 0.43633  0.29007  0.10847  Biso   1.000  H
  C583     1.0000 0.48646  0.34251  0.11506  Biso   1.000  C
  H543     1.0000 0.50383  0.33237  0.11547  Biso   1.000  H
  C584     1.0000 0.50098  0.38301  0.11863  Biso   1.000  C
  C585     1.0000 0.47507  0.39815  0.11805  Biso   1.000  C
  H544     1.0000 0.48483  0.42527  0.12047  Biso   1.000  H
  C586     1.0000 0.54302  0.40906  0.12274  Biso   1.000  C
  C587     1.0000 0.28992  0.38174  0.15796  Biso   1.000  C
  H545     1.0000 0.26533  0.38217  0.15577  Biso   1.000  H
  H546     1.0000 0.28413  0.35447  0.15597  Biso   1.000  H
  C588     1.0000 0.28854  0.36469  0.19592  Biso   1.000  C
  C589     1.0000 0.30946  0.37483  0.21598  Biso   1.000  C
  H547     1.0000 0.33183  0.39997  0.21777  Biso   1.000  H
  C590     1.0000 0.29690  0.34737  0.23338  Biso   1.000  C
  H548     1.0000 0.31093  0.35417  0.24677  Biso   1.000  H
  C591     1.0000 0.26339  0.30976  0.23073  Biso   1.000  C
  H549     1.0000 0.25493  0.29137  0.24237  Biso   1.000  H
  C592     1.0000 0.24247  0.29962  0.21067  Biso   1.000  C
  C593     1.0000 0.25503  0.32708  0.19327  Biso   1.000  C
  H550     1.0000 0.24103  0.32027  0.17987  Biso   1.000  H
  C594     1.0000 0.20639  0.25982  0.20797  Biso   1.000  C
  Mn25     1.0000 0.15482  0.32365  0.02765  Biso   1.000  Mn
  Mn26     1.0000 0.21804  0.41139  0.99515  Biso   1.000  Mn
  Mn27     1.0000 0.28761  0.48100  0.95915  Biso   1.000  Mn
  O161     1.0000 0.20793  0.32986  0.04717  Biso   1.000  O
  O162     1.0000 0.22470  0.37649  0.02314  Biso   1.000  O
  O163     1.0000 0.37558  0.43390  0.01704  Biso   1.000  O
  O164     1.0000 0.47515  0.46361  0.93493  Biso   1.000  O
  O165     1.0000 0.48763  0.50794  0.85521  Biso   1.000  O
  O166     1.0000 0.51063  0.47371  0.83704  Biso   1.000  O
  O167     1.0000 0.52413  0.60236  0.00326  Biso   1.000  O
  O168     1.0000 0.58203  0.75001  0.00767  Biso   1.000  O
  O169     1.0000 0.64092  0.77042  0.02317  Biso   1.000  O
  O170     1.0000 0.26255  0.46479  0.01417  Biso   1.000  O
  O171     1.0000 0.30355  0.51134  0.99158  Biso   1.000  O
  O172     1.0000 0.34249  0.50044  0.08602  Biso   1.000  O
  O173     1.0000 0.40777  0.38466  0.11157  Biso   1.000  O
  O174     1.0000 0.55426  0.44439  0.12907  Biso   1.000  O
  O175     1.0000 0.56870  0.39929  0.11923  Biso   1.000  O
  O176     1.0000 0.30341  0.39396  0.17997  Biso   1.000  O
  O177     1.0000 0.19045  0.24951  0.18930  Biso   1.000  O
  O178     1.0000 0.19262  0.23733  0.22500  Biso   1.000  O
  O179     1.0000 0.10643  0.26987  0.03797  Biso   1.000  O
  O180     1.0000 0.09803  0.26677  0.03507  Biso   1.000  O
  H551     1.0000 0.10353  0.24567  0.03757  Biso   1.000  H
  H552     1.0000 0.08473  0.26947  0.04787  Biso   1.000  H
  H553     1.0000 0.07613  0.27157  0.03417  Biso   1.000  H
  H554     1.0000 0.09503  0.24777  0.02387  Biso   1.000  H
  H555     1.0000 0.11453  0.25067  0.04077  Biso   1.000  H
  H556     1.0000 0.09663  0.27497  0.05157  Biso   1.000  H
  H557     1.0000 0.08353  0.27307  0.03877  Biso   1.000  H
  H558     1.0000 0.10133  0.24867  0.02797  Biso   1.000  H
  C595     1.0000 0.20870  0.30716  0.13004  Biso   1.000  C
  C596     1.0000 0.23883  0.29562  0.12661  Biso   1.000  C
  C597     1.0000 0.27102  0.31793  0.11224  Biso   1.000  C
  H559     1.0000 0.27080  0.33750  0.10330  Biso   1.000  H
  C598     1.0000 0.30247  0.31167  0.11109  Biso   1.000  C
  H560     1.0000 0.32370  0.32680  0.10150  Biso   1.000  H
  C599     1.0000 0.30270  0.28356  0.12384  Biso   1.000  C
  H561     1.0000 0.32440  0.27950  0.12320  Biso   1.000  H
  C600     1.0000 0.27072  0.25988  0.13834  Biso   1.000  C
  C601     1.0000 0.23886  0.26616  0.13968  Biso   1.000  C
  H562     1.0000 0.21760  0.25080  0.14920  Biso   1.000  H
  C602     1.0000 0.24459  0.20654  0.16514  Biso   1.000  C
  H563     1.0000 0.21970  0.18980  0.15730  Biso   1.000  H
  H564     1.0000 0.24000  0.22200  0.17630  Biso   1.000  H
  C603     1.0000 0.25958  0.18106  0.17611  Biso   1.000  C
  C604     1.0000 0.26169  0.15188  0.16369  Biso   1.000  C
  C605     1.0000 0.28025  0.13284  0.17291  Biso   1.000  C
  C606     1.0000 0.29290  0.13947  0.19507  Biso   1.000  C
  C607     1.0000 0.28930  0.16791  0.20729  Biso   1.000  C
  C608     1.0000 0.27401  0.19098  0.19714  Biso   1.000  C
  C609     1.0000 0.27436  0.22445  0.21042  Biso   1.000  C
  H565     1.0000 0.28060  0.24660  0.20070  Biso   1.000  H
  H566     1.0000 0.29410  0.23280  0.22200  Biso   1.000  H
  H567     1.0000 0.24850  0.21520  0.21700  Biso   1.000  H
  C610     1.0000 0.24361  0.13993  0.14030  Biso   1.000  C
  H568     1.0000 0.21720  0.13640  0.14030  Biso   1.000  H
  H569     1.0000 0.24230  0.11540  0.13600  Biso   1.000  H
  H570     1.0000 0.26000  0.16050  0.12990  Biso   1.000  H
  C611     1.0000 0.31098  0.11684  0.20521  Biso   1.000  C
  H571     1.0000 0.30270  0.09270  0.19690  Biso   1.000  H
  H572     1.0000 0.30230  0.11030  0.22040  Biso   1.000  H
  H573     1.0000 0.33960  0.13300  0.20480  Biso   1.000  H
  C612     1.0000 0.28741  0.10433  0.15935  Biso   1.000  C
  H574     1.0000 0.28860  0.11070  0.14360  Biso   1.000  H
  H575     1.0000 0.31260  0.10650  0.16360  Biso   1.000  H
  C613     1.0000 0.25876  0.03501  0.15286  Biso   1.000  C
  C614     1.0000 0.29112  0.04203  0.13956  Biso   1.000  C
  H576     1.0000 0.31170  0.06800  0.13710  Biso   1.000  H
  C615     1.0000 0.29274  0.01017  0.12989  Biso   1.000  C
  H577     1.0000 0.31440  0.01490  0.12100  Biso   1.000  H
  C616     1.0000 0.26200  0.97128  0.13353  Biso   1.000  C
  H578     1.0000 0.26310  0.95000  0.12710  Biso   1.000  H
  C617     1.0000 0.22963  0.96426  0.14683  Biso   1.000  C
  C618     1.0000 0.22801  0.99612  0.15650  Biso   1.000  C
  H579     1.0000 0.20640  0.99140  0.16540  Biso   1.000  H
  C619     1.0000 0.19716  0.92310  0.15066  Biso   1.000  C
  C620     1.0000 0.30412  0.17627  0.23127  Biso   1.000  C
  H580     1.0000 0.29020  0.18730  0.23940  Biso   1.000  H
  H581     1.0000 0.29860  0.15150  0.23850  Biso   1.000  H
  C621     1.0000 0.36455  0.20964  0.25140  Biso   1.000  C
  C622     1.0000 0.40542  0.23607  0.25054  Biso   1.000  C
  H582     1.0000 0.41730  0.24790  0.23700  Biso   1.000  H
  C623     1.0000 0.42843  0.24489  0.26946  Biso   1.000  C
  H583     1.0000 0.45590  0.26200  0.26870  Biso   1.000  H
  C624     1.0000 0.41034  0.22798  0.28994  Biso   1.000  C
  H584     1.0000 0.42560  0.23470  0.30290  Biso   1.000  H
  C625     1.0000 0.36989  0.20133  0.29078  Biso   1.000  C
  C626     1.0000 0.34728  0.19331  0.27136  Biso   1.000  C
  H585     1.0000 0.31980  0.17640  0.27210  Biso   1.000  H
  C627     1.0000 0.34978  0.18305  0.31245  Biso   1.000  C
  C628     1.0000 0.12994  0.17085  0.15658  Biso   1.000  C
  C629     1.0000 0.13367  0.14841  0.13739  Biso   1.000  C
  C630     1.0000 0.12062  0.10783  0.13900  Biso   1.000  C
  H586     1.0000 0.10800  0.09390  0.15200  Biso   1.000  H
  C631     1.0000 0.12635  0.08804  0.12125  Biso   1.000  C
  H587     1.0000 0.11760  0.06090  0.12230  Biso   1.000  H
  C632     1.0000 0.14514  0.10883  0.10188  Biso   1.000  C
  H588     1.0000 0.14900  0.09560  0.09000  Biso   1.000  H
  C633     1.0000 0.15819  0.14941  0.10027  Biso   1.000  C
  C634     1.0000 0.15246  0.16920  0.11803  Biso   1.000  C
  H589     1.0000 0.16120  0.19630  0.11700  Biso   1.000  H
  C635     1.0000 0.19668  0.20834  0.08063  Biso   1.000  C
  H590     1.0000 0.21150  0.21820  0.09450  Biso   1.000  H
  H591     1.0000 0.17830  0.21840  0.07940  Biso   1.000  H
  C636     1.0000 0.22549  0.22275  0.06079  Biso   1.000  C
  C637     1.0000 0.26084  0.22240  0.06208  Biso   1.000  C
  C638     1.0000 0.28945  0.24136  0.04477  Biso   1.000  C
  C639     1.0000 0.28217  0.26073  0.02795  Biso   1.000  C
  C640     1.0000 0.24531  0.25912  0.02596  Biso   1.000  C
  C641     1.0000 0.21552  0.23809  0.04159  Biso   1.000  C
  C642     1.0000 0.17443  0.23321  0.03941  Biso   1.000  C
  H592     1.0000 0.15510  0.20840  0.04610  Biso   1.000  H
  H593     1.0000 0.16820  0.23320  0.02390  Biso   1.000  H
  H594     1.0000 0.17390  0.25490  0.04690  Biso   1.000  H
  C643     1.0000 0.27063  0.20505  0.08094  Biso   1.000  C
  H595     1.0000 0.28870  0.22600  0.09080  Biso   1.000  H
  H596     1.0000 0.28300  0.19040  0.07560  Biso   1.000  H
  H597     1.0000 0.24660  0.18730  0.08890  Biso   1.000  H
  C644     1.0000 0.31570  0.28494  0.01111  Biso   1.000  C
  H598     1.0000 0.33990  0.30230  0.01900  Biso   1.000  H
  H599     1.0000 0.30830  0.30060  0.00190  Biso   1.000  H
  H600     1.0000 0.31980  0.26700  0.00190  Biso   1.000  H
  C645     1.0000 0.32833  0.24209  0.04614  Biso   1.000  C
  H601     1.0000 0.32630  0.22130  0.05600  Biso   1.000  H
  H602     1.0000 0.33680  0.23840  0.03150  Biso   1.000  H
  C646     1.0000 0.39519  0.29389  0.05276  Biso   1.000  C
  C647     1.0000 0.42118  0.33438  0.05634  Biso   1.000  C
  H603     1.0000 0.41110  0.35140  0.05910  Biso   1.000  H
  C648     1.0000 0.46223  0.34952  0.05576  Biso   1.000  C
  H604     1.0000 0.47960  0.37660  0.05820  Biso   1.000  H
  C649     1.0000 0.47729  0.32416  0.05161  Biso   1.000  C
  H605     1.0000 0.50480  0.33430  0.05120  Biso   1.000  H
  C650     1.0000 0.45131  0.28366  0.04804  Biso   1.000  C
  C651     1.0000 0.41026  0.26852  0.04862  Biso   1.000  C
  H606     1.0000 0.39290  0.24140  0.04620  Biso   1.000  H
  C652     1.0000 0.46730  0.25761  0.04393  Biso   1.000  C
  C653     1.0000 0.24152  0.28493  0.00871  Biso   1.000  C
  H607     1.0000 0.21650  0.28450  0.01090  Biso   1.000  H
  H608     1.0000 0.26300  0.31220  0.01070  Biso   1.000  H
  C654     1.0000 0.25719  0.30198  0.97075  Biso   1.000  C
  C655     1.0000 0.26797  0.29184  0.95069  Biso   1.000  C
  H609     1.0000 0.26520  0.26670  0.94890  Biso   1.000  H
  C656     1.0000 0.28287  0.31930  0.93329  Biso   1.000  C
  H610     1.0000 0.29010  0.31250  0.91990  Biso   1.000  H
  C657     1.0000 0.28697  0.35691  0.93594  Biso   1.000  C
  H611     1.0000 0.29690  0.37530  0.92430  Biso   1.000  H
  C658     1.0000 0.27619  0.36705  0.95600  Biso   1.000  C
  C659     1.0000 0.26129  0.33959  0.97340  Biso   1.000  C
  H612     1.0000 0.25410  0.34640  0.98680  Biso   1.000  H
  C660     1.0000 0.27991  0.40685  0.95870  Biso   1.000  C
  Mn28     1.0000 0.16450  0.34302  0.13902  Biso   1.000  Mn
  Mn29     1.0000 0.13998  0.25527  0.17152  Biso   1.000  Mn
  Mn30     1.0000 0.13994  0.18567  0.20752  Biso   1.000  Mn
  O181     1.0000 0.21141  0.33681  0.11950  Biso   1.000  O
  O182     1.0000 0.18155  0.29018  0.14353  Biso   1.000  O
  O183     1.0000 0.27502  0.23277  0.14963  Biso   1.000  O
  O184     1.0000 0.34488  0.20306  0.23174  Biso   1.000  O
  O185     1.0000 0.31303  0.15873  0.31146  Biso   1.000  O
  O186     1.0000 0.37026  0.19296  0.32963  Biso   1.000  O
  O187     1.0000 0.25511  0.06431  0.16341  Biso   1.000  O
  O188     1.0000 0.16536  0.91666  0.15900  Biso   1.000  O
  O189     1.0000 0.20384  0.89625  0.14350  Biso   1.000  O
  O190     1.0000 0.13110  0.20188  0.15250  Biso   1.000  O
  O191     1.0000 0.12555  0.15533  0.17509  Biso   1.000  O
  O192     1.0000 0.17539  0.16623  0.08065  Biso   1.000  O
  O193     1.0000 0.35645  0.28201  0.05510  Biso   1.000  O
  O194     1.0000 0.44321  0.22228  0.03760  Biso   1.000  O
  O195     1.0000 0.50275  0.26738  0.04744  Biso   1.000  O
  O196     1.0000 0.24279  0.27271  0.98670  Biso   1.000  O
  O197     1.0000 0.27428  0.41716  0.97737  Biso   1.000  O
  O198     1.0000 0.28863  0.42934  0.94167  Biso   1.000  O
  O199     1.0000 0.16990  0.39680  0.12870  Biso   1.000  O
  O200     1.0000 0.16460  0.39990  0.13160  Biso   1.000  O
  H613     1.0000 0.19120  0.42100  0.12910  Biso   1.000  H
  H614     1.0000 0.14860  0.39720  0.11880  Biso   1.000  H
  H615     1.0000 0.13790  0.39510  0.13250  Biso   1.000  H
  H616     1.0000 0.18060  0.41890  0.14280  Biso   1.000  H
  H617     1.0000 0.19720  0.41600  0.12590  Biso   1.000  H
  H618     1.0000 0.15500  0.39170  0.11510  Biso   1.000  H
  H619     1.0000 0.14380  0.39360  0.12790  Biso   1.000  H
  H620     1.0000 0.18600  0.41800  0.13870  Biso   1.000  H
  C661     1.0000 0.87537  0.64049  0.46337  Biso   1.000  C
  C662     1.0000 0.90550  0.62895  0.45994  Biso   1.000  C
  C663     1.0000 0.93769  0.65126  0.44557  Biso   1.000  C
  H621     1.0000 0.93747  0.67083  0.43663  Biso   1.000  H
  C664     1.0000 0.96914  0.64500  0.44442  Biso   1.000  C
  H622     1.0000 0.99037  0.66013  0.43483  Biso   1.000  H
  C665     1.0000 0.96937  0.61689  0.45717  Biso   1.000  C
  H623     1.0000 0.99107  0.61283  0.45653  Biso   1.000  H
  C666     1.0000 0.93739  0.59321  0.47167  Biso   1.000  C
  C667     1.0000 0.90553  0.59949  0.47301  Biso   1.000  C
  H624     1.0000 0.88427  0.58413  0.48253  Biso   1.000  H
  C668     1.0000 0.91126  0.53987  0.49847  Biso   1.000  C
  H625     1.0000 0.88637  0.52313  0.49063  Biso   1.000  H
  H626     1.0000 0.90667  0.55533  0.50963  Biso   1.000  H
  C669     1.0000 0.92625  0.51439  0.50944  Biso   1.000  C
  C670     1.0000 0.92836  0.48521  0.49702  Biso   1.000  C
  C671     1.0000 0.94692  0.46617  0.50624  Biso   1.000  C
  C672     1.0000 0.95957  0.47280  0.52840  Biso   1.000  C
  C673     1.0000 0.95597  0.50124  0.54062  Biso   1.000  C
  C674     1.0000 0.94068  0.52431  0.53047  Biso   1.000  C
  C675     1.0000 0.94103  0.55778  0.54375  Biso   1.000  C
  H627     1.0000 0.94727  0.57993  0.53403  Biso   1.000  H
  H628     1.0000 0.96077  0.56613  0.55533  Biso   1.000  H
  H629     1.0000 0.91517  0.54853  0.55033  Biso   1.000  H
  C676     1.0000 0.91028  0.47326  0.47363  Biso   1.000  C
  H630     1.0000 0.88387  0.46973  0.47363  Biso   1.000  H
  H631     1.0000 0.90897  0.44873  0.46933  Biso   1.000  H
  H632     1.0000 0.92667  0.49383  0.46323  Biso   1.000  H
  C677     1.0000 0.97765  0.45017  0.53854  Biso   1.000  C
  H633     1.0000 0.96937  0.42603  0.53023  Biso   1.000  H
  H634     1.0000 0.96897  0.44363  0.55373  Biso   1.000  H
  H635     1.0000 0.00627  0.46633  0.53813  Biso   1.000  H
  C678     1.0000 0.95408  0.43766  0.49268  Biso   1.000  C
  H636     1.0000 0.95527  0.44403  0.47693  Biso   1.000  H
  H637     1.0000 0.97927  0.43983  0.49693  Biso   1.000  H
  C679     1.0000 0.92543  0.36834  0.48619  Biso   1.000  C
  C680     1.0000 0.95779  0.37536  0.47289  Biso   1.000  C
  H638     1.0000 0.97837  0.40133  0.47043  Biso   1.000  H
  C681     1.0000 0.95941  0.34350  0.46322  Biso   1.000  C
  H639     1.0000 0.98107  0.34823  0.45433  Biso   1.000  H
  C682     1.0000 0.92867  0.30461  0.46686  Biso   1.000  C
  H640     1.0000 0.92977  0.28333  0.46043  Biso   1.000  H
  C683     1.0000 0.89630  0.29759  0.48016  Biso   1.000  C
  C684     1.0000 0.89468  0.32945  0.48983  Biso   1.000  C
  H641     1.0000 0.87307  0.32473  0.49873  Biso   1.000  H
  C685     1.0000 0.86383  0.25643  0.48399  Biso   1.000  C
  C686     1.0000 0.97079  0.50960  0.56460  Biso   1.000  C
  H642     1.0000 0.95687  0.52063  0.57273  Biso   1.000  H
  H643     1.0000 0.96527  0.48483  0.57183  Biso   1.000  H
  C687     1.0000 0.03122  0.54297  0.58473  Biso   1.000  C
  C688     1.0000 0.07209  0.56940  0.58387  Biso   1.000  C
  H644     1.0000 0.08397  0.58123  0.57033  Biso   1.000  H
  C689     1.0000 0.09510  0.57822  0.60279  Biso   1.000  C
  H645     1.0000 0.12257  0.59533  0.60203  Biso   1.000  H
  C690     1.0000 0.07701  0.56131  0.62327  Biso   1.000  C
  H646     1.0000 0.09227  0.56803  0.63623  Biso   1.000  H
  C691     1.0000 0.03656  0.53466  0.62411  Biso   1.000  C
  C692     1.0000 0.01395  0.52664  0.60469  Biso   1.000  C
  H647     1.0000 0.98647  0.50973  0.60543  Biso   1.000  H
  C693     1.0000 0.01645  0.51638  0.64578  Biso   1.000  C
  C694     1.0000 0.79661  0.50418  0.48991  Biso   1.000  C
  C695     1.0000 0.80034  0.48174  0.47072  Biso   1.000  C
  C696     1.0000 0.78729  0.44116  0.47233  Biso   1.000  C
  H648     1.0000 0.77467  0.42723  0.48533  Biso   1.000  H
  C697     1.0000 0.79302  0.42137  0.45458  Biso   1.000  C
  H649     1.0000 0.78427  0.39423  0.45563  Biso   1.000  H
  C698     1.0000 0.81181  0.44216  0.43521  Biso   1.000  C
  H650     1.0000 0.81567  0.42893  0.42333  Biso   1.000  H
  C699     1.0000 0.82486  0.48274  0.43360  Biso   1.000  C
  C700     1.0000 0.81913  0.50253  0.45136  Biso   1.000  C
  H651     1.0000 0.82787  0.52963  0.45033  Biso   1.000  H
  C701     1.0000 0.86335  0.54167  0.41396  Biso   1.000  C
  H652     1.0000 0.87817  0.55153  0.42783  Biso   1.000  H
  H653     1.0000 0.84497  0.55173  0.41273  Biso   1.000  H
  C702     1.0000 0.89216  0.55608  0.39412  Biso   1.000  C
  C703     1.0000 0.92751  0.55573  0.39541  Biso   1.000  C
  C704     1.0000 0.95612  0.57469  0.37810  Biso   1.000  C
  C705     1.0000 0.94884  0.59406  0.36128  Biso   1.000  C
  C706     1.0000 0.91198  0.59245  0.35929  Biso   1.000  C
  C707     1.0000 0.88219  0.57142  0.37492  Biso   1.000  C
  C708     1.0000 0.84110  0.56654  0.37274  Biso   1.000  C
  H654     1.0000 0.82177  0.54173  0.37943  Biso   1.000  H
  H655     1.0000 0.83487  0.56653  0.35723  Biso   1.000  H
  H656     1.0000 0.84057  0.58823  0.38023  Biso   1.000  H
  C709     1.0000 0.93730  0.53838  0.41427  Biso   1.000  C
  H657     1.0000 0.95537  0.55933  0.42413  Biso   1.000  H
  H658     1.0000 0.94967  0.52373  0.40893  Biso   1.000  H
  H659     1.0000 0.91327  0.52063  0.42223  Biso   1.000  H
  C710     1.0000 0.98237  0.61827  0.34444  Biso   1.000  C
  H660     1.0000 0.00657  0.63563  0.35233  Biso   1.000  H
  H661     1.0000 0.97497  0.63393  0.33523  Biso   1.000  H
  H662     1.0000 0.98647  0.60033  0.33523  Biso   1.000  H
  C711     1.0000 0.99500  0.57542  0.37947  Biso   1.000  C
  H663     1.0000 0.99297  0.55463  0.38933  Biso   1.000  H
  H664     1.0000 0.00347  0.57173  0.36483  Biso   1.000  H
  C712     1.0000 0.06186  0.62722  0.38609  Biso   1.000  C
  C713     1.0000 0.08785  0.66771  0.38967  Biso   1.000  C
  H665     1.0000 0.07777  0.68473  0.39243  Biso   1.000  H
  C714     1.0000 0.12890  0.68285  0.38909  Biso   1.000  C
  H666     1.0000 0.14627  0.70993  0.39153  Biso   1.000  H
  C715     1.0000 0.14396  0.65749  0.38494  Biso   1.000  C
  H667     1.0000 0.17147  0.66763  0.38453  Biso   1.000  H
  C716     1.0000 0.11798  0.61699  0.38137  Biso   1.000  C
  C717     1.0000 0.07693  0.60185  0.38195  Biso   1.000  C
  H668     1.0000 0.05957  0.57473  0.37953  Biso   1.000  H
  C718     1.0000 0.13397  0.59094  0.37726  Biso   1.000  C
  C719     1.0000 0.90819  0.61826  0.34204  Biso   1.000  C
  H669     1.0000 0.88317  0.61783  0.34423  Biso   1.000  H
  H670     1.0000 0.92967  0.64553  0.34403  Biso   1.000  H
  C720     1.0000 0.92386  0.63531  0.30408  Biso   1.000  C
  C721     1.0000 0.93464  0.62517  0.28402  Biso   1.000  C
  H671     1.0000 0.93187  0.60003  0.28223  Biso   1.000  H
  C722     1.0000 0.94954  0.65263  0.26662  Biso   1.000  C
  H672     1.0000 0.95677  0.64583  0.25323  Biso   1.000  H
  C723     1.0000 0.95364  0.69024  0.26927  Biso   1.000  C
  H673     1.0000 0.96357  0.70863  0.25763  Biso   1.000  H
  C724     1.0000 0.94286  0.70038  0.28933  Biso   1.000  C
  C725     1.0000 0.92796  0.67292  0.30673  Biso   1.000  C
  H674     1.0000 0.92077  0.67973  0.32013  Biso   1.000  H
  C726     1.0000 0.94658  0.74018  0.29203  Biso   1.000  C
  Mn31     1.0000 0.83117  0.67635  0.47235  Biso   1.000  Mn
  Mn32     1.0000 0.80665  0.58861  0.50485  Biso   1.000  Mn
  Mn33     1.0000 0.80661  0.51900  0.54085  Biso   1.000  Mn
  O201     1.0000 0.87808  0.67014  0.45283  Biso   1.000  O
  O202     1.0000 0.84822  0.62351  0.47686  Biso   1.000  O
  O203     1.0000 0.94169  0.56610  0.48296  Biso   1.000  O
  O204     1.0000 0.01155  0.53639  0.56507  Biso   1.000  O
  O205     1.0000 0.97970  0.49206  0.64479  Biso   1.000  O
  O206     1.0000 0.03693  0.52629  0.66296  Biso   1.000  O
  O207     1.0000 0.92178  0.39764  0.49674  Biso   1.000  O
  O208     1.0000 0.83203  0.24999  0.49233  Biso   1.000  O
  O209     1.0000 0.87051  0.22958  0.47683  Biso   1.000  O
  O210     1.0000 0.79777  0.53521  0.48583  Biso   1.000  O
  O211     1.0000 0.79222  0.48866  0.50842  Biso   1.000  O
  O212     1.0000 0.84206  0.49956  0.41398  Biso   1.000  O
  O213     1.0000 0.02312  0.61534  0.38843  Biso   1.000  O
  O214     1.0000 0.10988  0.55561  0.37093  Biso   1.000  O
  O215     1.0000 0.16942  0.60071  0.38077  Biso   1.000  O
  O216     1.0000 0.90946  0.60604  0.32003  Biso   1.000  O
  O217     1.0000 0.94095  0.75049  0.31070  Biso   1.000  O
  O218     1.0000 0.95530  0.76267  0.27500  Biso   1.000  O
  O219     1.0000 0.83657  0.73013  0.46203  Biso   1.000  O
  O220     1.0000 0.83127  0.73323  0.46493  Biso   1.000  O
  H675     1.0000 0.85787  0.75433  0.46243  Biso   1.000  H
  H676     1.0000 0.81527  0.73053  0.45213  Biso   1.000  H
  H677     1.0000 0.80457  0.72843  0.46583  Biso   1.000  H
  H678     1.0000 0.84727  0.75223  0.47613  Biso   1.000  H
  H679     1.0000 0.86387  0.74933  0.45923  Biso   1.000  H
  H680     1.0000 0.82167  0.72503  0.44843  Biso   1.000  H
  H681     1.0000 0.81047  0.72693  0.46123  Biso   1.000  H
  H682     1.0000 0.85267  0.75133  0.47203  Biso   1.000  H
  C727     1.0000 0.54203  0.97383  0.79671  Biso   1.000  C
  C728     1.0000 0.57216  0.96229  0.79328  Biso   1.000  C
  C729     1.0000 0.60435  0.98460  0.77891  Biso   1.000  C
  H683     1.0000 0.60413  0.00417  0.76997  Biso   1.000  H
  C730     1.0000 0.63580  0.97834  0.77776  Biso   1.000  C
  H684     1.0000 0.65703  0.99347  0.76817  Biso   1.000  H
  C731     1.0000 0.63603  0.95023  0.79051  Biso   1.000  C
  H685     1.0000 0.65773  0.94617  0.78987  Biso   1.000  H
  C732     1.0000 0.60405  0.92655  0.80501  Biso   1.000  C
  C733     1.0000 0.57219  0.93283  0.80635  Biso   1.000  C
  H686     1.0000 0.55093  0.91747  0.81587  Biso   1.000  H
  C734     1.0000 0.57792  0.87321  0.83181  Biso   1.000  C
  H687     1.0000 0.55303  0.85647  0.82397  Biso   1.000  H
  H688     1.0000 0.57333  0.88867  0.84297  Biso   1.000  H
  C735     1.0000 0.59291  0.84773  0.84278  Biso   1.000  C
  C736     1.0000 0.59502  0.81855  0.83036  Biso   1.000  C
  C737     1.0000 0.61358  0.79951  0.83958  Biso   1.000  C
  C738     1.0000 0.62623  0.80614  0.86174  Biso   1.000  C
  C739     1.0000 0.62263  0.83458  0.87396  Biso   1.000  C
  C740     1.0000 0.60734  0.85765  0.86381  Biso   1.000  C
  C741     1.0000 0.60769  0.89112  0.87709  Biso   1.000  C
  H689     1.0000 0.61393  0.91327  0.86737  Biso   1.000  H
  H690     1.0000 0.62743  0.89947  0.88867  Biso   1.000  H
  H691     1.0000 0.58183  0.88187  0.88367  Biso   1.000  H
  C742     1.0000 0.57694  0.80660  0.80697  Biso   1.000  C
  H692     1.0000 0.55053  0.80307  0.80697  Biso   1.000  H
  H693     1.0000 0.57563  0.78207  0.80267  Biso   1.000  H
  H694     1.0000 0.59333  0.82717  0.79657  Biso   1.000  H
  C743     1.0000 0.64431  0.78351  0.87188  Biso   1.000  C
  H695     1.0000 0.63603  0.75937  0.86357  Biso   1.000  H
  H696     1.0000 0.63563  0.77697  0.88707  Biso   1.000  H
  H697     1.0000 0.67293  0.79967  0.87147  Biso   1.000  H
  C744     1.0000 0.62074  0.77100  0.82602  Biso   1.000  C
  H698     1.0000 0.62193  0.77737  0.81027  Biso   1.000  H
  H699     1.0000 0.64593  0.77317  0.83027  Biso   1.000  H
  C745     1.0000 0.59209  0.70168  0.81953  Biso   1.000  C
  C746     1.0000 0.62445  0.70870  0.80623  Biso   1.000  C
  H700     1.0000 0.64503  0.73467  0.80377  Biso   1.000  H
  C747     1.0000 0.62607  0.67684  0.79656  Biso   1.000  C
  H701     1.0000 0.64773  0.68157  0.78767  Biso   1.000  H
  C748     1.0000 0.59533  0.63795  0.80020  Biso   1.000  C
  H702     1.0000 0.59643  0.61667  0.79377  Biso   1.000  H
  C749     1.0000 0.56296  0.63093  0.81350  Biso   1.000  C
  C750     1.0000 0.56134  0.66279  0.82317  Biso   1.000  C
  H703     1.0000 0.53973  0.65807  0.83207  Biso   1.000  H
  C751     1.0000 0.53049  0.58977  0.81733  Biso   1.000  C
  C752     1.0000 0.63745  0.84294  0.89794  Biso   1.000  C
  H704     1.0000 0.62353  0.85397  0.90607  Biso   1.000  H
  H705     1.0000 0.63193  0.81817  0.90517  Biso   1.000  H
  C753     1.0000 0.69788  0.87631  0.91807  Biso   1.000  C
  C754     1.0000 0.73875  0.90274  0.91721  Biso   1.000  C
  H706     1.0000 0.75063  0.91457  0.90367  Biso   1.000  H
  C755     1.0000 0.76176  0.91156  0.93613  Biso   1.000  C
  H707     1.0000 0.78923  0.92867  0.93537  Biso   1.000  H
  C756     1.0000 0.74367  0.89465  0.95661  Biso   1.000  C
  H708     1.0000 0.75893  0.90137  0.96957  Biso   1.000  H
  C757     1.0000 0.70322  0.86800  0.95745  Biso   1.000  C
  C758     1.0000 0.68061  0.85998  0.93803  Biso   1.000  C
  H709     1.0000 0.65313  0.84307  0.93877  Biso   1.000  H
  C759     1.0000 0.68311  0.84972  0.97912  Biso   1.000  C
  C760     1.0000 0.46327  0.83752  0.82325  Biso   1.000  C
  C761     1.0000 0.46700  0.81508  0.80406  Biso   1.000  C
  C762     1.0000 0.45395  0.77450  0.80567  Biso   1.000  C
  H710     1.0000 0.44133  0.76057  0.81867  Biso   1.000  H
  C763     1.0000 0.45968  0.75471  0.78792  Biso   1.000  C
  H711     1.0000 0.45093  0.72757  0.78897  Biso   1.000  H
  C764     1.0000 0.47847  0.77550  0.76855  Biso   1.000  C
  H712     1.0000 0.48233  0.76227  0.75667  Biso   1.000  H
  C765     1.0000 0.49152  0.81608  0.76694  Biso   1.000  C
  C766     1.0000 0.48579  0.83587  0.78470  Biso   1.000  C
  H713     1.0000 0.49453  0.86297  0.78367  Biso   1.000  H
  C767     1.0000 0.53001  0.87501  0.74730  Biso   1.000  C
  H714     1.0000 0.54483  0.88487  0.76117  Biso   1.000  H
  H715     1.0000 0.51163  0.88507  0.74607  Biso   1.000  H
  C768     1.0000 0.55882  0.88942  0.72746  Biso   1.000  C
  C769     1.0000 0.59417  0.88907  0.72875  Biso   1.000  C
  C770     1.0000 0.62278  0.90803  0.71144  Biso   1.000  C
  C771     1.0000 0.61550  0.92740  0.69462  Biso   1.000  C
  C772     1.0000 0.57864  0.92579  0.69263  Biso   1.000  C
  C773     1.0000 0.54885  0.90476  0.70826  Biso   1.000  C
  C774     1.0000 0.50776  0.89988  0.70608  Biso   1.000  C
  H716     1.0000 0.48843  0.87507  0.71277  Biso   1.000  H
  H717     1.0000 0.50153  0.89987  0.69057  Biso   1.000  H
  H718     1.0000 0.50723  0.92157  0.71357  Biso   1.000  H
  C775     1.0000 0.60396  0.87172  0.74761  Biso   1.000  C
  H719     1.0000 0.62203  0.89267  0.75747  Biso   1.000  H
  H720     1.0000 0.61633  0.85707  0.74227  Biso   1.000  H
  H721     1.0000 0.57993  0.85397  0.75557  Biso   1.000  H
  C776     1.0000 0.64903  0.95161  0.67778  Biso   1.000  C
  H722     1.0000 0.67323  0.96897  0.68567  Biso   1.000  H
  H723     1.0000 0.64163  0.96727  0.66857  Biso   1.000  H
  H724     1.0000 0.65313  0.93367  0.66857  Biso   1.000  H
  C777     1.0000 0.66166  0.90876  0.71281  Biso   1.000  C
  H725     1.0000 0.65963  0.88797  0.72267  Biso   1.000  H
  H726     1.0000 0.67013  0.90507  0.69817  Biso   1.000  H
  C778     1.0000 0.72852  0.96056  0.71943  Biso   1.000  C
  C779     1.0000 0.75451  0.00105  0.72301  Biso   1.000  C
  H727     1.0000 0.74443  0.01807  0.72577  Biso   1.000  H
  C780     1.0000 0.79556  0.01619  0.72243  Biso   1.000  C
  H728     1.0000 0.81293  0.04327  0.72487  Biso   1.000  H
  C781     1.0000 0.81062  0.99083  0.71828  Biso   1.000  C
  H729     1.0000 0.83813  0.00097  0.71787  Biso   1.000  H
  C782     1.0000 0.78464  0.95033  0.71471  Biso   1.000  C
  C783     1.0000 0.74359  0.93519  0.71529  Biso   1.000  C
  H730     1.0000 0.72623  0.90807  0.71287  Biso   1.000  H
  C784     1.0000 0.80063  0.92428  0.71060  Biso   1.000  C
  C785     1.0000 0.57485  0.95160  0.67538  Biso   1.000  C
  H731     1.0000 0.54983  0.95117  0.67757  Biso   1.000  H
  H732     1.0000 0.59633  0.97887  0.67737  Biso   1.000  H
  C786     1.0000 0.59052  0.96865  0.63742  Biso   1.000  C
  C787     1.0000 0.60130  0.95851  0.61736  Biso   1.000  C
  H733     1.0000 0.59853  0.93337  0.61557  Biso   1.000  H
  C788     1.0000 0.61620  0.98597  0.59996  Biso   1.000  C
  H734     1.0000 0.62343  0.97917  0.58657  Biso   1.000  H
  C789     1.0000 0.62030  0.02358  0.60261  Biso   1.000  C
  H735     1.0000 0.63023  0.04197  0.59097  Biso   1.000  H
  C790     1.0000 0.60952  0.03372  0.62267  Biso   1.000  C
  C791     1.0000 0.59462  0.00626  0.64007  Biso   1.000  C
  H736     1.0000 0.58743  0.01307  0.65347  Biso   1.000  H
  C792     1.0000 0.61324  0.07352  0.62537  Biso   1.000  C
  Mn34     1.0000 0.49784  0.00968  0.80569  Biso   1.000  Mn
  Mn35     1.0000 0.47331  0.92194  0.83818  Biso   1.000  Mn
  Mn36     1.0000 0.47328  0.85234  0.87418  Biso   1.000  Mn
  O221     1.0000 0.54474  0.00348  0.78617  Biso   1.000  O
  O222     1.0000 0.51488  0.95685  0.81020  Biso   1.000  O
  O223     1.0000 0.60835  0.89944  0.81630  Biso   1.000  O
  O224     1.0000 0.67821  0.86973  0.89841  Biso   1.000  O
  O225     1.0000 0.64636  0.82540  0.97813  Biso   1.000  O
  O226     1.0000 0.70359  0.85963  0.99630  Biso   1.000  O
  O227     1.0000 0.58844  0.73098  0.83008  Biso   1.000  O
  O228     1.0000 0.49869  0.58333  0.82567  Biso   1.000  O
  O229     1.0000 0.53717  0.56292  0.81017  Biso   1.000  O
  O230     1.0000 0.46443  0.86855  0.81917  Biso   1.000  O
  O231     1.0000 0.45888  0.82200  0.84176  Biso   1.000  O
  O232     1.0000 0.50872  0.83290  0.74732  Biso   1.000  O
  O233     1.0000 0.68978  0.94868  0.72177  Biso   1.000  O
  O234     1.0000 0.77654  0.88895  0.70427  Biso   1.000  O
  O235     1.0000 0.83608  0.93405  0.71411  Biso   1.000  O
  O236     1.0000 0.57612  0.93938  0.65337  Biso   1.000  O
  O237     1.0000 0.60761  0.08383  0.64404  Biso   1.000  O
  O238     1.0000 0.62196  0.09601  0.60834  Biso   1.000  O
  O239     1.0000 0.50323  0.06347  0.79537  Biso   1.000  O
  O240     1.0000 0.49793  0.06657  0.79827  Biso   1.000  O
  H737     1.0000 0.52453  0.08767  0.79577  Biso   1.000  H
  H738     1.0000 0.48193  0.06387  0.78547  Biso   1.000  H
  H739     1.0000 0.47123  0.06177  0.79917  Biso   1.000  H
  H740     1.0000 0.51393  0.08557  0.80947  Biso   1.000  H
  H741     1.0000 0.53053  0.08267  0.79257  Biso   1.000  H
  H742     1.0000 0.48833  0.05837  0.78177  Biso   1.000  H
  H743     1.0000 0.47713  0.06027  0.79457  Biso   1.000  H
  H744     1.0000 0.51933  0.08467  0.80537  Biso   1.000  H
  C793     1.0000 0.09846  0.79130  0.13004  Biso   1.000  C
  C794     1.0000 0.05679  0.76117  0.12661  Biso   1.000  C
  C795     1.0000 0.04691  0.72898  0.11224  Biso   1.000  C
  H745     1.0000 0.06670  0.72920  0.10330  Biso   1.000  H
  C796     1.0000 0.00920  0.69753  0.11109  Biso   1.000  C
  H746     1.0000 0.00310  0.67630  0.10150  Biso   1.000  H
  C797     1.0000 0.98086  0.69730  0.12384  Biso   1.000  C
  H747     1.0000 0.95510  0.67560  0.12320  Biso   1.000  H
  C798     1.0000 0.98916  0.72928  0.13834  Biso   1.000  C
  C799     1.0000 0.02730  0.76114  0.13968  Biso   1.000  C
  H748     1.0000 0.03320  0.78240  0.14920  Biso   1.000  H
  C800     1.0000 0.96195  0.75541  0.16514  Biso   1.000  C
  H749     1.0000 0.97010  0.78030  0.15730  Biso   1.000  H
  H750     1.0000 0.98200  0.76000  0.17630  Biso   1.000  H
  C801     1.0000 0.92148  0.74042  0.17611  Biso   1.000  C
  C802     1.0000 0.89019  0.73831  0.16369  Biso   1.000  C
  C803     1.0000 0.85259  0.71975  0.17291  Biso   1.000  C
  C804     1.0000 0.84657  0.70710  0.19507  Biso   1.000  C
  C805     1.0000 0.87861  0.71070  0.20729  Biso   1.000  C
  C806     1.0000 0.91697  0.72599  0.19714  Biso   1.000  C
  C807     1.0000 0.95009  0.72564  0.21042  Biso   1.000  C
  H751     1.0000 0.96600  0.71940  0.20070  Biso   1.000  H
  H752     1.0000 0.93870  0.70590  0.22200  Biso   1.000  H
  H753     1.0000 0.96670  0.75150  0.21700  Biso   1.000  H
  C808     1.0000 0.89632  0.75639  0.14030  Biso   1.000  C
  H754     1.0000 0.91920  0.78280  0.14030  Biso   1.000  H
  H755     1.0000 0.87310  0.75770  0.13600  Biso   1.000  H
  H756     1.0000 0.90050  0.74000  0.12990  Biso   1.000  H
  C809     1.0000 0.80586  0.68902  0.20521  Biso   1.000  C
  H757     1.0000 0.79000  0.69730  0.19690  Biso   1.000  H
  H758     1.0000 0.80800  0.69770  0.22040  Biso   1.000  H
  H759     1.0000 0.79340  0.66040  0.20480  Biso   1.000  H
  C810     1.0000 0.81692  0.71259  0.15935  Biso   1.000  C
  H760     1.0000 0.82210  0.71140  0.14360  Biso   1.000  H
  H761     1.0000 0.79390  0.68740  0.16360  Biso   1.000  H
  C811     1.0000 0.77625  0.74124  0.15286  Biso   1.000  C
  C812     1.0000 0.75091  0.70888  0.13956  Biso   1.000  C
  H762     1.0000 0.75630  0.68830  0.13710  Biso   1.000  H
  C813     1.0000 0.71743  0.70726  0.12989  Biso   1.000  C
  H763     1.0000 0.70050  0.68560  0.12100  Biso   1.000  H
  C814     1.0000 0.70928  0.73800  0.13353  Biso   1.000  C
  H764     1.0000 0.68690  0.73690  0.12710  Biso   1.000  H
  C815     1.0000 0.73463  0.77037  0.14683  Biso   1.000  C
  C816     1.0000 0.76811  0.77199  0.15650  Biso   1.000  C
  H765     1.0000 0.78500  0.79360  0.16540  Biso   1.000  H
  C817     1.0000 0.72594  0.80284  0.15066  Biso   1.000  C
  C818     1.0000 0.87215  0.69588  0.23127  Biso   1.000  C
  H766     1.0000 0.89710  0.70980  0.23940  Biso   1.000  H
  H767     1.0000 0.85290  0.70140  0.23850  Biso   1.000  H
  C819     1.0000 0.84509  0.63545  0.25140  Biso   1.000  C
  C820     1.0000 0.83065  0.59458  0.25054  Biso   1.000  C
  H768     1.0000 0.83060  0.58270  0.23700  Biso   1.000  H
  C821     1.0000 0.81646  0.57157  0.26946  Biso   1.000  C
  H769     1.0000 0.80610  0.54410  0.26870  Biso   1.000  H
  C822     1.0000 0.81764  0.58966  0.28994  Biso   1.000  C
  H770     1.0000 0.80910  0.57440  0.30290  Biso   1.000  H
  C823     1.0000 0.83144  0.63011  0.29078  Biso   1.000  C
  C824     1.0000 0.84603  0.65272  0.27136  Biso   1.000  C
  H771     1.0000 0.85660  0.68020  0.27210  Biso   1.000  H
  C825     1.0000 0.83327  0.65022  0.31245  Biso   1.000  C
  C826     1.0000 0.04091  0.87006  0.15658  Biso   1.000  C
  C827     1.0000 0.01474  0.86633  0.13739  Biso   1.000  C
  C828     1.0000 0.98721  0.87938  0.13900  Biso   1.000  C
  H772     1.0000 0.98590  0.89200  0.15200  Biso   1.000  H
  C829     1.0000 0.96169  0.87365  0.12125  Biso   1.000  C
  H773     1.0000 0.94330  0.88240  0.12230  Biso   1.000  H
  C830     1.0000 0.96369  0.85486  0.10188  Biso   1.000  C
  H774     1.0000 0.94660  0.85100  0.09000  Biso   1.000  H
  C831     1.0000 0.99122  0.84181  0.10027  Biso   1.000  C
  C832     1.0000 0.01674  0.84754  0.11803  Biso   1.000  C
  H775     1.0000 0.03510  0.83880  0.11700  Biso   1.000  H
  C833     1.0000 0.01166  0.80332  0.08063  Biso   1.000  C
  H776     1.0000 0.00670  0.78850  0.09450  Biso   1.000  H
  H777     1.0000 0.04010  0.82170  0.07940  Biso   1.000  H
  C834     1.0000 0.99726  0.77451  0.06079  Biso   1.000  C
  C835     1.0000 0.96156  0.73916  0.06208  Biso   1.000  C
  C836     1.0000 0.95191  0.71055  0.04477  Biso   1.000  C
  C837     1.0000 0.97856  0.71783  0.02795  Biso   1.000  C
  C838     1.0000 0.01381  0.75469  0.02596  Biso   1.000  C
  C839     1.0000 0.02257  0.78448  0.04159  Biso   1.000  C
  C840     1.0000 0.05878  0.82557  0.03941  Biso   1.000  C
  H778     1.0000 0.05330  0.84490  0.04610  Biso   1.000  H
  H779     1.0000 0.06500  0.83180  0.02390  Biso   1.000  H
  H780     1.0000 0.08100  0.82610  0.04690  Biso   1.000  H
  C841     1.0000 0.93442  0.72937  0.08094  Biso   1.000  C
  H781     1.0000 0.93730  0.71130  0.09080  Biso   1.000  H
  H782     1.0000 0.90740  0.71700  0.07560  Biso   1.000  H
  H783     1.0000 0.94070  0.75340  0.08890  Biso   1.000  H
  C842     1.0000 0.96924  0.68430  0.01111  Biso   1.000  C
  H784     1.0000 0.96240  0.66010  0.01900  Biso   1.000  H
  H785     1.0000 0.99230  0.69170  0.00190  Biso   1.000  H
  H786     1.0000 0.94720  0.68020  0.00190  Biso   1.000  H
  C843     1.0000 0.91376  0.67167  0.04614  Biso   1.000  C
  H787     1.0000 0.89500  0.67370  0.05600  Biso   1.000  H
  H788     1.0000 0.90160  0.66320  0.03150  Biso   1.000  H
  C844     1.0000 0.89870  0.60481  0.05276  Biso   1.000  C
  C845     1.0000 0.91320  0.57882  0.05634  Biso   1.000  C
  H789     1.0000 0.94030  0.58890  0.05910  Biso   1.000  H
  C846     1.0000 0.88729  0.53777  0.05576  Biso   1.000  C
  H790     1.0000 0.89700  0.52040  0.05820  Biso   1.000  H
  C847     1.0000 0.84687  0.52271  0.05161  Biso   1.000  C
  H791     1.0000 0.82950  0.49520  0.05120  Biso   1.000  H
  C848     1.0000 0.83235  0.54869  0.04804  Biso   1.000  C
  C849     1.0000 0.85826  0.58974  0.04862  Biso   1.000  C
  H792     1.0000 0.84850  0.60710  0.04620  Biso   1.000  H
  C850     1.0000 0.79031  0.53270  0.04393  Biso   1.000  C
  C851     1.0000 0.04341  0.75848  0.00871  Biso   1.000  C
  H793     1.0000 0.06800  0.78350  0.01090  Biso   1.000  H
  H794     1.0000 0.04920  0.73700  0.01070  Biso   1.000  H
  C852     1.0000 0.04479  0.74281  0.97075  Biso   1.000  C
  C853     1.0000 0.02387  0.73203  0.95069  Biso   1.000  C
  H795     1.0000 0.00150  0.73480  0.94890  Biso   1.000  H
  C854     1.0000 0.03643  0.71713  0.93329  Biso   1.000  C
  H796     1.0000 0.02240  0.70990  0.91990  Biso   1.000  H
  C855     1.0000 0.06994  0.71303  0.93594  Biso   1.000  C
  H797     1.0000 0.07840  0.70310  0.92430  Biso   1.000  H
  C856     1.0000 0.09086  0.72381  0.95600  Biso   1.000  C
  C857     1.0000 0.07830  0.73871  0.97340  Biso   1.000  C
  H798     1.0000 0.09230  0.74590  0.98680  Biso   1.000  H
  C858     1.0000 0.12694  0.72009  0.95870  Biso   1.000  C
  Mn37     1.0000 0.17851  0.83550  0.13902  Biso   1.000  Mn
  Mn38     1.0000 0.11529  0.86002  0.17152  Biso   1.000  Mn
  Mn39     1.0000 0.04573  0.86006  0.20752  Biso   1.000  Mn
  O241     1.0000 0.12540  0.78859  0.11950  Biso   1.000  O
  O242     1.0000 0.10863  0.81845  0.14353  Biso   1.000  O
  O243     1.0000 0.95775  0.72498  0.14963  Biso   1.000  O
  O244     1.0000 0.85818  0.65512  0.23174  Biso   1.000  O
  O245     1.0000 0.84570  0.68697  0.31146  Biso   1.000  O
  O246     1.0000 0.82270  0.62974  0.32963  Biso   1.000  O
  O247     1.0000 0.80920  0.74489  0.16341  Biso   1.000  O
  O248     1.0000 0.75130  0.83464  0.15900  Biso   1.000  O
  O249     1.0000 0.69241  0.79616  0.14350  Biso   1.000  O
  O250     1.0000 0.07078  0.86890  0.15250  Biso   1.000  O
  O251     1.0000 0.02978  0.87445  0.17509  Biso   1.000  O
  O252     1.0000 0.99084  0.82461  0.08065  Biso   1.000  O
  O253     1.0000 0.92556  0.64355  0.05510  Biso   1.000  O
  O254     1.0000 0.77907  0.55679  0.03760  Biso   1.000  O
  O255     1.0000 0.76463  0.49725  0.04744  Biso   1.000  O
  O256     1.0000 0.02992  0.75721  0.98670  Biso   1.000  O
  O257     1.0000 0.14288  0.72572  0.97737  Biso   1.000  O
  O258     1.0000 0.14071  0.71137  0.94167  Biso   1.000  O
  O259     1.0000 0.22690  0.83010  0.12870  Biso   1.000  O
  O260     1.0000 0.23530  0.83540  0.13160  Biso   1.000  O
  H799     1.0000 0.22980  0.80880  0.12910  Biso   1.000  H
  H800     1.0000 0.24860  0.85140  0.11880  Biso   1.000  H
  H801     1.0000 0.25720  0.86210  0.13250  Biso   1.000  H
  H802     1.0000 0.23830  0.81940  0.14280  Biso   1.000  H
  H803     1.0000 0.21880  0.80280  0.12590  Biso   1.000  H
  H804     1.0000 0.23670  0.84500  0.11510  Biso   1.000  H
  H805     1.0000 0.24980  0.85620  0.12790  Biso   1.000  H
  H806     1.0000 0.23200  0.81400  0.13870  Biso   1.000  H
  C859     1.0000 0.76513  0.12463  0.46337  Biso   1.000  C
  C860     1.0000 0.72346  0.09450  0.45994  Biso   1.000  C
  C861     1.0000 0.71358  0.06231  0.44557  Biso   1.000  C
  H807     1.0000 0.73337  0.06253  0.43663  Biso   1.000  H
  C862     1.0000 0.67587  0.03086  0.44442  Biso   1.000  C
  H808     1.0000 0.66977  0.00963  0.43483  Biso   1.000  H
  C863     1.0000 0.64753  0.03063  0.45717  Biso   1.000  C
  H809     1.0000 0.62177  0.00893  0.45653  Biso   1.000  H
  C864     1.0000 0.65583  0.06261  0.47167  Biso   1.000  C
  C865     1.0000 0.69397  0.09447  0.47301  Biso   1.000  C
  H810     1.0000 0.69987  0.11573  0.48253  Biso   1.000  H
  C866     1.0000 0.62862  0.08874  0.49847  Biso   1.000  C
  H811     1.0000 0.63677  0.11363  0.49063  Biso   1.000  H
  H812     1.0000 0.64867  0.09333  0.50963  Biso   1.000  H
  C867     1.0000 0.58815  0.07375  0.50944  Biso   1.000  C
  C868     1.0000 0.55686  0.07164  0.49702  Biso   1.000  C
  C869     1.0000 0.51926  0.05308  0.50624  Biso   1.000  C
  C870     1.0000 0.51324  0.04043  0.52840  Biso   1.000  C
  C871     1.0000 0.54528  0.04403  0.54062  Biso   1.000  C
  C872     1.0000 0.58364  0.05932  0.53047  Biso   1.000  C
  C873     1.0000 0.61676  0.05897  0.54375  Biso   1.000  C
  H813     1.0000 0.63267  0.05273  0.53403  Biso   1.000  H
  H814     1.0000 0.60537  0.03923  0.55533  Biso   1.000  H
  H815     1.0000 0.63337  0.08483  0.55033  Biso   1.000  H
  C874     1.0000 0.56299  0.08972  0.47363  Biso   1.000  C
  H816     1.0000 0.58587  0.11613  0.47363  Biso   1.000  H
  H817     1.0000 0.53977  0.09103  0.46933  Biso   1.000  H
  H818     1.0000 0.56717  0.07333  0.46323  Biso   1.000  H
  C875     1.0000 0.47253  0.02235  0.53854  Biso   1.000  C
  H819     1.0000 0.45667  0.03063  0.53023  Biso   1.000  H
  H820     1.0000 0.47467  0.03103  0.55373  Biso   1.000  H
  H821     1.0000 0.46007  0.99373  0.53813  Biso   1.000  H
  C876     1.0000 0.48359  0.04592  0.49268  Biso   1.000  C
  H822     1.0000 0.48877  0.04473  0.47693  Biso   1.000  H
  H823     1.0000 0.46057  0.02073  0.49693  Biso   1.000  H
  C877     1.0000 0.44292  0.07457  0.48619  Biso   1.000  C
  C878     1.0000 0.41758  0.04221  0.47289  Biso   1.000  C
  H824     1.0000 0.42297  0.02163  0.47043  Biso   1.000  H
  C879     1.0000 0.38410  0.04059  0.46322  Biso   1.000  C
  H825     1.0000 0.36717  0.01893  0.45433  Biso   1.000  H
  C880     1.0000 0.37595  0.07133  0.46686  Biso   1.000  C
  H826     1.0000 0.35357  0.07023  0.46043  Biso   1.000  H
  C881     1.0000 0.40130  0.10370  0.48016  Biso   1.000  C
  C882     1.0000 0.43478  0.10532  0.48983  Biso   1.000  C
  H827     1.0000 0.45167  0.12693  0.49873  Biso   1.000  H
  C883     1.0000 0.39261  0.13617  0.48399  Biso   1.000  C
  C884     1.0000 0.53882  0.02921  0.56460  Biso   1.000  C
  H828     1.0000 0.56377  0.04313  0.57273  Biso   1.000  H
  H829     1.0000 0.51957  0.03473  0.57183  Biso   1.000  H
  C885     1.0000 0.51176  0.96878  0.58473  Biso   1.000  C
  C886     1.0000 0.49732  0.92791  0.58387  Biso   1.000  C
  H830     1.0000 0.49727  0.91603  0.57033  Biso   1.000  H
  C887     1.0000 0.48313  0.90490  0.60279  Biso   1.000  C
  H831     1.0000 0.47277  0.87743  0.60203  Biso   1.000  H
  C888     1.0000 0.48431  0.92299  0.62327  Biso   1.000  C
  H832     1.0000 0.47577  0.90773  0.63623  Biso   1.000  H
  C889     1.0000 0.49811  0.96344  0.62411  Biso   1.000  C
  C890     1.0000 0.51270  0.98605  0.60469  Biso   1.000  C
  H833     1.0000 0.52327  0.01353  0.60543  Biso   1.000  H
  C891     1.0000 0.49994  0.98355  0.64578  Biso   1.000  C
  C892     1.0000 0.70758  0.20339  0.48991  Biso   1.000  C
  C893     1.0000 0.68141  0.19966  0.47072  Biso   1.000  C
  C894     1.0000 0.65388  0.21271  0.47233  Biso   1.000  C
  H834     1.0000 0.65257  0.22533  0.48533  Biso   1.000  H
  C895     1.0000 0.62836  0.20698  0.45458  Biso   1.000  C
  H835     1.0000 0.60997  0.21573  0.45563  Biso   1.000  H
  C896     1.0000 0.63036  0.18819  0.43521  Biso   1.000  C
  H836     1.0000 0.61327  0.18433  0.42333  Biso   1.000  H
  C897     1.0000 0.65789  0.17514  0.43360  Biso   1.000  C
  C898     1.0000 0.68341  0.18087  0.45136  Biso   1.000  C
  H837     1.0000 0.70177  0.17213  0.45033  Biso   1.000  H
  C899     1.0000 0.67833  0.13665  0.41396  Biso   1.000  C
  H838     1.0000 0.67337  0.12183  0.42783  Biso   1.000  H
  H839     1.0000 0.70677  0.15503  0.41273  Biso   1.000  H
  C900     1.0000 0.66393  0.10784  0.39412  Biso   1.000  C
  C901     1.0000 0.62823  0.07249  0.39541  Biso   1.000  C
  C902     1.0000 0.61858  0.04388  0.37810  Biso   1.000  C
  C903     1.0000 0.64523  0.05116  0.36128  Biso   1.000  C
  C904     1.0000 0.68048  0.08802  0.35929  Biso   1.000  C
  C905     1.0000 0.68924  0.11781  0.37492  Biso   1.000  C
  C906     1.0000 0.72545  0.15890  0.37274  Biso   1.000  C
  H840     1.0000 0.71997  0.17823  0.37943  Biso   1.000  H
  H841     1.0000 0.73167  0.16513  0.35723  Biso   1.000  H
  H842     1.0000 0.74767  0.15943  0.38023  Biso   1.000  H
  C907     1.0000 0.60109  0.06270  0.41427  Biso   1.000  C
  H843     1.0000 0.60397  0.04463  0.42413  Biso   1.000  H
  H844     1.0000 0.57407  0.05033  0.40893  Biso   1.000  H
  H845     1.0000 0.60737  0.08673  0.42223  Biso   1.000  H
  C908     1.0000 0.63591  0.01763  0.34444  Biso   1.000  C
  H846     1.0000 0.62907  0.99343  0.35233  Biso   1.000  H
  H847     1.0000 0.65897  0.02503  0.33523  Biso   1.000  H
  H848     1.0000 0.61387  0.01353  0.33523  Biso   1.000  H
  C909     1.0000 0.58043  0.00500  0.37947  Biso   1.000  C
  H849     1.0000 0.56167  0.00703  0.38933  Biso   1.000  H
  H850     1.0000 0.56827  0.99653  0.36483  Biso   1.000  H
  C910     1.0000 0.56537  0.93814  0.38609  Biso   1.000  C
  C911     1.0000 0.57987  0.91215  0.38967  Biso   1.000  C
  H851     1.0000 0.60697  0.92223  0.39243  Biso   1.000  H
  C912     1.0000 0.55396  0.87110  0.38909  Biso   1.000  C
  H852     1.0000 0.56367  0.85373  0.39153  Biso   1.000  H
  C913     1.0000 0.51354  0.85604  0.38494  Biso   1.000  C
  H853     1.0000 0.49617  0.82853  0.38453  Biso   1.000  H
  C914     1.0000 0.49902  0.88202  0.38137  Biso   1.000  C
  C915     1.0000 0.52493  0.92307  0.38195  Biso   1.000  C
  H854     1.0000 0.51517  0.94043  0.37953  Biso   1.000  H
  C916     1.0000 0.45698  0.86603  0.37726  Biso   1.000  C
  C917     1.0000 0.71008  0.09181  0.34204  Biso   1.000  C
  H855     1.0000 0.73467  0.11683  0.34423  Biso   1.000  H
  H856     1.0000 0.71587  0.07033  0.34403  Biso   1.000  H
  C918     1.0000 0.71146  0.07614  0.30408  Biso   1.000  C
  C919     1.0000 0.69054  0.06536  0.28402  Biso   1.000  C
  H857     1.0000 0.66817  0.06813  0.28223  Biso   1.000  H
  C920     1.0000 0.70310  0.05046  0.26662  Biso   1.000  C
  H858     1.0000 0.68907  0.04323  0.25323  Biso   1.000  H
  C921     1.0000 0.73661  0.04636  0.26927  Biso   1.000  C
  H859     1.0000 0.74507  0.03643  0.25763  Biso   1.000  H
  C922     1.0000 0.75753  0.05714  0.28933  Biso   1.000  C
  C923     1.0000 0.74497  0.07204  0.30673  Biso   1.000  C
  H860     1.0000 0.75897  0.07923  0.32013  Biso   1.000  H
  C924     1.0000 0.79361  0.05342  0.29203  Biso   1.000  C
  Mn40     1.0000 0.84518  0.16883  0.47235  Biso   1.000  Mn
  Mn41     1.0000 0.78196  0.19335  0.50485  Biso   1.000  Mn
  Mn42     1.0000 0.71239  0.19339  0.54085  Biso   1.000  Mn
  O261     1.0000 0.79207  0.12192  0.45283  Biso   1.000  O
  O262     1.0000 0.77530  0.15178  0.47686  Biso   1.000  O
  O263     1.0000 0.62442  0.05831  0.48296  Biso   1.000  O
  O264     1.0000 0.52485  0.98845  0.56507  Biso   1.000  O
  O265     1.0000 0.51237  0.02030  0.64479  Biso   1.000  O
  O266     1.0000 0.48937  0.96307  0.66296  Biso   1.000  O
  O267     1.0000 0.47587  0.07822  0.49674  Biso   1.000  O
  O268     1.0000 0.41797  0.16797  0.49233  Biso   1.000  O
  O269     1.0000 0.35908  0.12949  0.47683  Biso   1.000  O
  O270     1.0000 0.73745  0.20223  0.48583  Biso   1.000  O
  O271     1.0000 0.69645  0.20778  0.50842  Biso   1.000  O
  O272     1.0000 0.65751  0.15794  0.41398  Biso   1.000  O
  O273     1.0000 0.59223  0.97688  0.38843  Biso   1.000  O
  O274     1.0000 0.44574  0.89012  0.37093  Biso   1.000  O
  O275     1.0000 0.43130  0.83058  0.38077  Biso   1.000  O
  O276     1.0000 0.69659  0.09054  0.32003  Biso   1.000  O
  O277     1.0000 0.80955  0.05905  0.31070  Biso   1.000  O
  O278     1.0000 0.80738  0.04470  0.27500  Biso   1.000  O
  O279     1.0000 0.89357  0.16343  0.46203  Biso   1.000  O
  O280     1.0000 0.90197  0.16873  0.46493  Biso   1.000  O
  H861     1.0000 0.89647  0.14213  0.46243  Biso   1.000  H
  H862     1.0000 0.91527  0.18473  0.45213  Biso   1.000  H
  H863     1.0000 0.92387  0.19543  0.46583  Biso   1.000  H
  H864     1.0000 0.90497  0.15273  0.47613  Biso   1.000  H
  H865     1.0000 0.88547  0.13613  0.45923  Biso   1.000  H
  H866     1.0000 0.90337  0.17833  0.44843  Biso   1.000  H
  H867     1.0000 0.91647  0.18953  0.46123  Biso   1.000  H
  H868     1.0000 0.89867  0.14733  0.47203  Biso   1.000  H
  C925     1.0000 0.43179  0.45797  0.79671  Biso   1.000  C
  C926     1.0000 0.39012  0.42784  0.79328  Biso   1.000  C
  C927     1.0000 0.38024  0.39565  0.77891  Biso   1.000  C
  H869     1.0000 0.40003  0.39587  0.76997  Biso   1.000  H
  C928     1.0000 0.34253  0.36420  0.77776  Biso   1.000  C
  H870     1.0000 0.33643  0.34297  0.76817  Biso   1.000  H
  C929     1.0000 0.31419  0.36397  0.79051  Biso   1.000  C
  H871     1.0000 0.28843  0.34227  0.78987  Biso   1.000  H
  C930     1.0000 0.32249  0.39595  0.80501  Biso   1.000  C
  C931     1.0000 0.36063  0.42781  0.80635  Biso   1.000  C
  H872     1.0000 0.36653  0.44907  0.81587  Biso   1.000  H
  C932     1.0000 0.29528  0.42208  0.83181  Biso   1.000  C
  H873     1.0000 0.30343  0.44697  0.82397  Biso   1.000  H
  H874     1.0000 0.31533  0.42667  0.84297  Biso   1.000  H
  C933     1.0000 0.25481  0.40709  0.84278  Biso   1.000  C
  C934     1.0000 0.22352  0.40498  0.83036  Biso   1.000  C
  C935     1.0000 0.18592  0.38642  0.83958  Biso   1.000  C
  C936     1.0000 0.17990  0.37377  0.86174  Biso   1.000  C
  C937     1.0000 0.21194  0.37737  0.87396  Biso   1.000  C
  C938     1.0000 0.25030  0.39266  0.86381  Biso   1.000  C
  C939     1.0000 0.28342  0.39231  0.87709  Biso   1.000  C
  H875     1.0000 0.29933  0.38607  0.86737  Biso   1.000  H
  H876     1.0000 0.27203  0.37257  0.88867  Biso   1.000  H
  H877     1.0000 0.30003  0.41817  0.88367  Biso   1.000  H
  C940     1.0000 0.22965  0.42306  0.80697  Biso   1.000  C
  H878     1.0000 0.25253  0.44947  0.80697  Biso   1.000  H
  H879     1.0000 0.20643  0.42437  0.80267  Biso   1.000  H
  H880     1.0000 0.23383  0.40667  0.79657  Biso   1.000  H
  C941     1.0000 0.13919  0.35569  0.87188  Biso   1.000  C
  H881     1.0000 0.12333  0.36397  0.86357  Biso   1.000  H
  H882     1.0000 0.14133  0.36437  0.88707  Biso   1.000  H
  H883     1.0000 0.12673  0.32707  0.87147  Biso   1.000  H
  C942     1.0000 0.15025  0.37926  0.82602  Biso   1.000  C
  H884     1.0000 0.15543  0.37807  0.81027  Biso   1.000  H
  H885     1.0000 0.12723  0.35407  0.83027  Biso   1.000  H
  C943     1.0000 0.10958  0.40791  0.81953  Biso   1.000  C
  C944     1.0000 0.08424  0.37555  0.80623  Biso   1.000  C
  H886     1.0000 0.08963  0.35497  0.80377  Biso   1.000  H
  C945     1.0000 0.05076  0.37393  0.79656  Biso   1.000  C
  H887     1.0000 0.03383  0.35227  0.78767  Biso   1.000  H
  C946     1.0000 0.04261  0.40467  0.80020  Biso   1.000  C
  H888     1.0000 0.02023  0.40357  0.79377  Biso   1.000  H
  C947     1.0000 0.06796  0.43704  0.81350  Biso   1.000  C
  C948     1.0000 0.10144  0.43866  0.82317  Biso   1.000  C
  H889     1.0000 0.11833  0.46027  0.83207  Biso   1.000  H
  C949     1.0000 0.05927  0.46951  0.81733  Biso   1.000  C
  C950     1.0000 0.20548  0.36255  0.89794  Biso   1.000  C
  H890     1.0000 0.23043  0.37647  0.90607  Biso   1.000  H
  H891     1.0000 0.18623  0.36807  0.90517  Biso   1.000  H
  C951     1.0000 0.17842  0.30212  0.91807  Biso   1.000  C
  C952     1.0000 0.16398  0.26125  0.91721  Biso   1.000  C
  H892     1.0000 0.16393  0.24937  0.90367  Biso   1.000  H
  C953     1.0000 0.14979  0.23824  0.93613  Biso   1.000  C
  H893     1.0000 0.13943  0.21077  0.93537  Biso   1.000  H
  C954     1.0000 0.15097  0.25633  0.95661  Biso   1.000  C
  H894     1.0000 0.14243  0.24107  0.96957  Biso   1.000  H
  C955     1.0000 0.16477  0.29678  0.95745  Biso   1.000  C
  C956     1.0000 0.17936  0.31939  0.93803  Biso   1.000  C
  H895     1.0000 0.18993  0.34687  0.93877  Biso   1.000  H
  C957     1.0000 0.16660  0.31689  0.97912  Biso   1.000  C
  C958     1.0000 0.37424  0.53673  0.82325  Biso   1.000  C
  C959     1.0000 0.34807  0.53300  0.80406  Biso   1.000  C
  C960     1.0000 0.32054  0.54605  0.80567  Biso   1.000  C
  H896     1.0000 0.31923  0.55867  0.81867  Biso   1.000  H
  C961     1.0000 0.29502  0.54032  0.78792  Biso   1.000  C
  H897     1.0000 0.27663  0.54907  0.78897  Biso   1.000  H
  C962     1.0000 0.29702  0.52153  0.76855  Biso   1.000  C
  H898     1.0000 0.27993  0.51767  0.75667  Biso   1.000  H
  C963     1.0000 0.32455  0.50848  0.76694  Biso   1.000  C
  C964     1.0000 0.35007  0.51421  0.78470  Biso   1.000  C
  H899     1.0000 0.36843  0.50547  0.78367  Biso   1.000  H
  C965     1.0000 0.34499  0.46999  0.74730  Biso   1.000  C
  H900     1.0000 0.34003  0.45517  0.76117  Biso   1.000  H
  H901     1.0000 0.37343  0.48837  0.74607  Biso   1.000  H
  C966     1.0000 0.33059  0.44118  0.72746  Biso   1.000  C
  C967     1.0000 0.29489  0.40583  0.72875  Biso   1.000  C
  C968     1.0000 0.28524  0.37722  0.71144  Biso   1.000  C
  C969     1.0000 0.31189  0.38450  0.69462  Biso   1.000  C
  C970     1.0000 0.34714  0.42136  0.69263  Biso   1.000  C
  C971     1.0000 0.35590  0.45115  0.70826  Biso   1.000  C
  C972     1.0000 0.39211  0.49224  0.70608  Biso   1.000  C
  H902     1.0000 0.38663  0.51157  0.71277  Biso   1.000  H
  H903     1.0000 0.39833  0.49847  0.69057  Biso   1.000  H
  H904     1.0000 0.41433  0.49277  0.71357  Biso   1.000  H
  C973     1.0000 0.26775  0.39604  0.74761  Biso   1.000  C
  H905     1.0000 0.27063  0.37797  0.75747  Biso   1.000  H
  H906     1.0000 0.24073  0.38367  0.74227  Biso   1.000  H
  H907     1.0000 0.27403  0.42007  0.75557  Biso   1.000  H
  C974     1.0000 0.30257  0.35097  0.67778  Biso   1.000  C
  H908     1.0000 0.29573  0.32677  0.68567  Biso   1.000  H
  H909     1.0000 0.32563  0.35837  0.66857  Biso   1.000  H
  H910     1.0000 0.28053  0.34687  0.66857  Biso   1.000  H
  C975     1.0000 0.24709  0.33834  0.71281  Biso   1.000  C
  H911     1.0000 0.22833  0.34037  0.72267  Biso   1.000  H
  H912     1.0000 0.23493  0.32987  0.69817  Biso   1.000  H
  C976     1.0000 0.23203  0.27148  0.71943  Biso   1.000  C
  C977     1.0000 0.24653  0.24549  0.72301  Biso   1.000  C
  H913     1.0000 0.27363  0.25557  0.72577  Biso   1.000  H
  C978     1.0000 0.22062  0.20444  0.72243  Biso   1.000  C
  H914     1.0000 0.23033  0.18707  0.72487  Biso   1.000  H
  C979     1.0000 0.18020  0.18938  0.71828  Biso   1.000  C
  H915     1.0000 0.16283  0.16187  0.71787  Biso   1.000  H
  C980     1.0000 0.16568  0.21536  0.71471  Biso   1.000  C
  C981     1.0000 0.19159  0.25641  0.71529  Biso   1.000  C
  H916     1.0000 0.18183  0.27377  0.71287  Biso   1.000  H
  C982     1.0000 0.12364  0.19937  0.71060  Biso   1.000  C
  C983     1.0000 0.37674  0.42515  0.67538  Biso   1.000  C
  H917     1.0000 0.40133  0.45017  0.67757  Biso   1.000  H
  H918     1.0000 0.38253  0.40367  0.67737  Biso   1.000  H
  C984     1.0000 0.37812  0.40948  0.63742  Biso   1.000  C
  C985     1.0000 0.35720  0.39870  0.61736  Biso   1.000  C
  H919     1.0000 0.33483  0.40147  0.61557  Biso   1.000  H
  C986     1.0000 0.36976  0.38380  0.59996  Biso   1.000  C
  H920     1.0000 0.35573  0.37657  0.58657  Biso   1.000  H
  C987     1.0000 0.40327  0.37970  0.60261  Biso   1.000  C
  H921     1.0000 0.41173  0.36977  0.59097  Biso   1.000  H
  C988     1.0000 0.42419  0.39048  0.62267  Biso   1.000  C
  C989     1.0000 0.41163  0.40538  0.64007  Biso   1.000  C
  H922     1.0000 0.42563  0.41257  0.65347  Biso   1.000  H
  C990     1.0000 0.46027  0.38676  0.62537  Biso   1.000  C
  Mn43     1.0000 0.51185  0.50216  0.80569  Biso   1.000  Mn
  Mn44     1.0000 0.44863  0.52669  0.83818  Biso   1.000  Mn
  Mn45     1.0000 0.37906  0.52672  0.87418  Biso   1.000  Mn
  O281     1.0000 0.45873  0.45526  0.78617  Biso   1.000  O
  O282     1.0000 0.44196  0.48512  0.81020  Biso   1.000  O
  O283     1.0000 0.29108  0.39165  0.81630  Biso   1.000  O
  O284     1.0000 0.19151  0.32179  0.89841  Biso   1.000  O
  O285     1.0000 0.17903  0.35364  0.97813  Biso   1.000  O
  O286     1.0000 0.15603  0.29641  0.99630  Biso   1.000  O
  O287     1.0000 0.14253  0.41156  0.83008  Biso   1.000  O
  O288     1.0000 0.08463  0.50131  0.82567  Biso   1.000  O
  O289     1.0000 0.02574  0.46283  0.81017  Biso   1.000  O
  O290     1.0000 0.40411  0.53557  0.81917  Biso   1.000  O
  O291     1.0000 0.36311  0.54112  0.84176  Biso   1.000  O
  O292     1.0000 0.32417  0.49128  0.74732  Biso   1.000  O
  O293     1.0000 0.25889  0.31022  0.72177  Biso   1.000  O
  O294     1.0000 0.11240  0.22346  0.70427  Biso   1.000  O
  O295     1.0000 0.09796  0.16392  0.71411  Biso   1.000  O
  O296     1.0000 0.36325  0.42388  0.65337  Biso   1.000  O
  O297     1.0000 0.47621  0.39239  0.64404  Biso   1.000  O
  O298     1.0000 0.47404  0.37804  0.60834  Biso   1.000  O
  O299     1.0000 0.56023  0.49677  0.79537  Biso   1.000  O
  O300     1.0000 0.56863  0.50207  0.79827  Biso   1.000  O
  H923     1.0000 0.56313  0.47547  0.79577  Biso   1.000  H
  H924     1.0000 0.58193  0.51807  0.78547  Biso   1.000  H
  H925     1.0000 0.59053  0.52877  0.79917  Biso   1.000  H
  H926     1.0000 0.57163  0.48607  0.80947  Biso   1.000  H
  H927     1.0000 0.55213  0.46947  0.79257  Biso   1.000  H
  H928     1.0000 0.57003  0.51167  0.78177  Biso   1.000  H
  H929     1.0000 0.58313  0.52287  0.79457  Biso   1.000  H
  H930     1.0000 0.56533  0.48067  0.80537  Biso   1.000  H
  C991     1.0000 0.69284  0.90154  0.13004  Biso   1.000  C
  C992     1.0000 0.70438  0.94321  0.12661  Biso   1.000  C
  C993     1.0000 0.68207  0.95309  0.11224  Biso   1.000  C
  H931     1.0000 0.66250  0.93330  0.10330  Biso   1.000  H
  C994     1.0000 0.68833  0.99080  0.11109  Biso   1.000  C
  H932     1.0000 0.67320  0.99690  0.10150  Biso   1.000  H
  C995     1.0000 0.71644  0.01914  0.12384  Biso   1.000  C
  H933     1.0000 0.72050  0.04490  0.12320  Biso   1.000  H
  C996     1.0000 0.74012  0.01084  0.13834  Biso   1.000  C
  C997     1.0000 0.73384  0.97270  0.13968  Biso   1.000  C
  H934     1.0000 0.74920  0.96680  0.14920  Biso   1.000  H
  C998     1.0000 0.79346  0.03805  0.16514  Biso   1.000  C
  H935     1.0000 0.81020  0.02990  0.15730  Biso   1.000  H
  H936     1.0000 0.77800  0.01800  0.17630  Biso   1.000  H
  C999     1.0000 0.81894  0.07852  0.17611  Biso   1.000  C
  C1000    1.0000 0.84812  0.10981  0.16369  Biso   1.000  C
  C1001    1.0000 0.86716  0.14741  0.17291  Biso   1.000  C
  C1002    1.0000 0.86053  0.15343  0.19507  Biso   1.000  C
  C1003    1.0000 0.83209  0.12139  0.20729  Biso   1.000  C
  C1004    1.0000 0.80902  0.08303  0.19714  Biso   1.000  C
  C1005    1.0000 0.77555  0.04991  0.21042  Biso   1.000  C
  H937     1.0000 0.75340  0.03400  0.20070  Biso   1.000  H
  H938     1.0000 0.76720  0.06130  0.22200  Biso   1.000  H
  H939     1.0000 0.78480  0.03330  0.21700  Biso   1.000  H
  C1006    1.0000 0.86007  0.10368  0.14030  Biso   1.000  C
  H940     1.0000 0.86360  0.08080  0.14030  Biso   1.000  H
  H941     1.0000 0.88460  0.12690  0.13600  Biso   1.000  H
  H942     1.0000 0.83950  0.09950  0.12990  Biso   1.000  H
  C1007    1.0000 0.88316  0.19414  0.20521  Biso   1.000  C
  H943     1.0000 0.90730  0.21000  0.19690  Biso   1.000  H
  H944     1.0000 0.88970  0.19200  0.22040  Biso   1.000  H
  H945     1.0000 0.86700  0.20660  0.20480  Biso   1.000  H
  C1008    1.0000 0.89567  0.18308  0.15935  Biso   1.000  C
  H946     1.0000 0.88930  0.17790  0.14360  Biso   1.000  H
  H947     1.0000 0.89350  0.20610  0.16360  Biso   1.000  H
  C1009    1.0000 0.96499  0.22375  0.15286  Biso   1.000  C
  C1010    1.0000 0.95797  0.24909  0.13956  Biso   1.000  C
  H948     1.0000 0.93200  0.24370  0.13710  Biso   1.000  H
  C1011    1.0000 0.98983  0.28257  0.12989  Biso   1.000  C
  H949     1.0000 0.98510  0.29950  0.12100  Biso   1.000  H
  C1012    1.0000 0.02872  0.29072  0.13353  Biso   1.000  C
  H950     1.0000 0.05000  0.31310  0.12710  Biso   1.000  H
  C1013    1.0000 0.03574  0.26537  0.14683  Biso   1.000  C
  C1014    1.0000 0.00388  0.23189  0.15650  Biso   1.000  C
  H951     1.0000 0.00860  0.21500  0.16540  Biso   1.000  H
  C1015    1.0000 0.07690  0.27406  0.15066  Biso   1.000  C
  C1016    1.0000 0.82373  0.12785  0.23127  Biso   1.000  C
  H952     1.0000 0.81270  0.10290  0.23940  Biso   1.000  H
  H953     1.0000 0.84850  0.14710  0.23850  Biso   1.000  H
  C1017    1.0000 0.79036  0.15491  0.25140  Biso   1.000  C
  C1018    1.0000 0.76393  0.16935  0.25054  Biso   1.000  C
  H954     1.0000 0.75210  0.16940  0.23700  Biso   1.000  H
  C1019    1.0000 0.75511  0.18354  0.26946  Biso   1.000  C
  H955     1.0000 0.73800  0.19390  0.26870  Biso   1.000  H
  C1020    1.0000 0.77202  0.18236  0.28994  Biso   1.000  C
  H956     1.0000 0.76530  0.19090  0.30290  Biso   1.000  H
  C1021    1.0000 0.79867  0.16856  0.29078  Biso   1.000  C
  C1022    1.0000 0.80669  0.15397  0.27136  Biso   1.000  C
  H957     1.0000 0.82360  0.14340  0.27210  Biso   1.000  H
  C1023    1.0000 0.81695  0.16673  0.31245  Biso   1.000  C
  C1024    1.0000 0.82915  0.95909  0.15658  Biso   1.000  C
  C1025    1.0000 0.85159  0.98526  0.13739  Biso   1.000  C
  C1026    1.0000 0.89217  0.01279  0.13900  Biso   1.000  C
  H958     1.0000 0.90610  0.01410  0.15200  Biso   1.000  H
  C1027    1.0000 0.91196  0.03831  0.12125  Biso   1.000  C
  H959     1.0000 0.93910  0.05670  0.12230  Biso   1.000  H
  C1028    1.0000 0.89117  0.03631  0.10188  Biso   1.000  C
  H960     1.0000 0.90440  0.05340  0.09000  Biso   1.000  H
  C1029    1.0000 0.85059  0.00878  0.10027  Biso   1.000  C
  C1030    1.0000 0.83080  0.98326  0.11803  Biso   1.000  C
  H961     1.0000 0.80370  0.96490  0.11700  Biso   1.000  H
  C1031    1.0000 0.79166  0.98834  0.08063  Biso   1.000  C
  H962     1.0000 0.78180  0.99330  0.09450  Biso   1.000  H
  H963     1.0000 0.78160  0.95990  0.07940  Biso   1.000  H
  C1032    1.0000 0.77725  0.00274  0.06079  Biso   1.000  C
  C1033    1.0000 0.77760  0.03844  0.06208  Biso   1.000  C
  C1034    1.0000 0.75864  0.04809  0.04477  Biso   1.000  C
  C1035    1.0000 0.73927  0.02144  0.02795  Biso   1.000  C
  C1036    1.0000 0.74088  0.98619  0.02596  Biso   1.000  C
  C1037    1.0000 0.76191  0.97743  0.04159  Biso   1.000  C
  C1038    1.0000 0.76679  0.94122  0.03941  Biso   1.000  C
  H964     1.0000 0.79160  0.94670  0.04610  Biso   1.000  H
  H965     1.0000 0.76680  0.93500  0.02390  Biso   1.000  H
  H966     1.0000 0.74510  0.91900  0.04690  Biso   1.000  H
  C1039    1.0000 0.79495  0.06558  0.08094  Biso   1.000  C
  H967     1.0000 0.77400  0.06270  0.09080  Biso   1.000  H
  H968     1.0000 0.80960  0.09260  0.07560  Biso   1.000  H
  H969     1.0000 0.81270  0.05930  0.08890  Biso   1.000  H
  C1040    1.0000 0.71506  0.03076  0.01111  Biso   1.000  C
  H970     1.0000 0.69770  0.03760  0.01900  Biso   1.000  H
  H971     1.0000 0.69940  0.00770  0.00190  Biso   1.000  H
  H972     1.0000 0.73300  0.05280  0.00190  Biso   1.000  H
  C1041    1.0000 0.75791  0.08624  0.04614  Biso   1.000  C
  H973     1.0000 0.77870  0.10500  0.05600  Biso   1.000  H
  H974     1.0000 0.76160  0.09840  0.03150  Biso   1.000  H
  C1042    1.0000 0.70611  0.10130  0.05276  Biso   1.000  C
  C1043    1.0000 0.66562  0.08680  0.05634  Biso   1.000  C
  H975     1.0000 0.64860  0.05970  0.05910  Biso   1.000  H
  C1044    1.0000 0.65048  0.11271  0.05576  Biso   1.000  C
  H976     1.0000 0.62340  0.10300  0.05820  Biso   1.000  H
  C1045    1.0000 0.67584  0.15313  0.05161  Biso   1.000  C
  H977     1.0000 0.66570  0.17050  0.05120  Biso   1.000  H
  C1046    1.0000 0.71634  0.16765  0.04804  Biso   1.000  C
  C1047    1.0000 0.73148  0.14174  0.04862  Biso   1.000  C
  H978     1.0000 0.75860  0.15150  0.04620  Biso   1.000  H
  C1048    1.0000 0.74239  0.20969  0.04393  Biso   1.000  C
  C1049    1.0000 0.71507  0.95659  0.00871  Biso   1.000  C
  H979     1.0000 0.71550  0.93200  0.01090  Biso   1.000  H
  H980     1.0000 0.68780  0.95080  0.01070  Biso   1.000  H
  C1050    1.0000 0.69802  0.95521  0.97075  Biso   1.000  C
  C1051    1.0000 0.70816  0.97613  0.95069  Biso   1.000  C
  H981     1.0000 0.73330  0.99850  0.94890  Biso   1.000  H
  C1052    1.0000 0.68070  0.96357  0.93329  Biso   1.000  C
  H982     1.0000 0.68750  0.97760  0.91990  Biso   1.000  H
  C1053    1.0000 0.64309  0.93006  0.93594  Biso   1.000  C
  H983     1.0000 0.62470  0.92160  0.92430  Biso   1.000  H
  C1054    1.0000 0.63295  0.90914  0.95600  Biso   1.000  C
  C1055    1.0000 0.66041  0.92170  0.97340  Biso   1.000  C
  H984     1.0000 0.65360  0.90770  0.98680  Biso   1.000  H
  C1056    1.0000 0.59315  0.87306  0.95870  Biso   1.000  C
  Mn46     1.0000 0.65698  0.82149  0.13902  Biso   1.000  Mn
  Mn47     1.0000 0.74473  0.88471  0.17152  Biso   1.000  Mn
  Mn48     1.0000 0.81433  0.95427  0.20752  Biso   1.000  Mn
  O301     1.0000 0.66319  0.87460  0.11950  Biso   1.000  O
  O302     1.0000 0.70982  0.89137  0.14353  Biso   1.000  O
  O303     1.0000 0.76723  0.04225  0.14963  Biso   1.000  O
  O304     1.0000 0.79694  0.14182  0.23174  Biso   1.000  O
  O305     1.0000 0.84127  0.15430  0.31146  Biso   1.000  O
  O306     1.0000 0.80704  0.17730  0.32963  Biso   1.000  O
  O307     1.0000 0.93569  0.19080  0.16341  Biso   1.000  O
  O308     1.0000 0.08334  0.24870  0.15900  Biso   1.000  O
  O309     1.0000 0.10375  0.30759  0.14350  Biso   1.000  O
  O310     1.0000 0.79812  0.92922  0.15250  Biso   1.000  O
  O311     1.0000 0.84467  0.97022  0.17509  Biso   1.000  O
  O312     1.0000 0.83377  0.00916  0.08065  Biso   1.000  O
  O313     1.0000 0.71799  0.07444  0.05510  Biso   1.000  O
  O314     1.0000 0.77772  0.22093  0.03760  Biso   1.000  O
  O315     1.0000 0.73262  0.23537  0.04744  Biso   1.000  O
  O316     1.0000 0.72729  0.97008  0.98670  Biso   1.000  O
  O317     1.0000 0.58284  0.85712  0.97737  Biso   1.000  O
  O318     1.0000 0.57066  0.85929  0.94167  Biso   1.000  O
  O319     1.0000 0.60320  0.77310  0.12870  Biso   1.000  O
  O320     1.0000 0.60010  0.76470  0.13160  Biso   1.000  O
  H985     1.0000 0.57900  0.77020  0.12910  Biso   1.000  H
  H986     1.0000 0.60280  0.75140  0.11880  Biso   1.000  H
  H987     1.0000 0.60490  0.74280  0.13250  Biso   1.000  H
  H988     1.0000 0.58110  0.76170  0.14280  Biso   1.000  H
  H989     1.0000 0.58400  0.78120  0.12590  Biso   1.000  H
  H990     1.0000 0.60830  0.76330  0.11510  Biso   1.000  H
  H991     1.0000 0.60640  0.75020  0.12790  Biso   1.000  H
  H992     1.0000 0.58200  0.76800  0.13870  Biso   1.000  H
  C1057    1.0000 0.35951  0.23487  0.46337  Biso   1.000  C
  C1058    1.0000 0.37105  0.27654  0.45994  Biso   1.000  C
  C1059    1.0000 0.34874  0.28642  0.44557  Biso   1.000  C
  H993     1.0000 0.32917  0.26663  0.43663  Biso   1.000  H
  C1060    1.0000 0.35500  0.32413  0.44442  Biso   1.000  C
  H994     1.0000 0.33987  0.33023  0.43483  Biso   1.000  H
  C1061    1.0000 0.38311  0.35247  0.45717  Biso   1.000  C
  H995     1.0000 0.38717  0.37823  0.45653  Biso   1.000  H
  C1062    1.0000 0.40679  0.34417  0.47167  Biso   1.000  C
  C1063    1.0000 0.40051  0.30603  0.47301  Biso   1.000  C
  H996     1.0000 0.41587  0.30013  0.48253  Biso   1.000  H
  C1064    1.0000 0.46013  0.37138  0.49847  Biso   1.000  C
  H997     1.0000 0.47687  0.36323  0.49063  Biso   1.000  H
  H998     1.0000 0.44467  0.35133  0.50963  Biso   1.000  H
  C1065    1.0000 0.48561  0.41185  0.50944  Biso   1.000  C
  C1066    1.0000 0.51479  0.44314  0.49702  Biso   1.000  C
  C1067    1.0000 0.53383  0.48074  0.50624  Biso   1.000  C
  C1068    1.0000 0.52720  0.48676  0.52840  Biso   1.000  C
  C1069    1.0000 0.49876  0.45472  0.54062  Biso   1.000  C
  C1070    1.0000 0.47569  0.41636  0.53047  Biso   1.000  C
  C1071    1.0000 0.44222  0.38324  0.54375  Biso   1.000  C
  H999     1.0000 0.42007  0.36733  0.53403  Biso   1.000  H
  H1000    1.0000 0.43387  0.39463  0.55533  Biso   1.000  H
  H1001    1.0000 0.45147  0.36663  0.55033  Biso   1.000  H
  C1072    1.0000 0.52674  0.43701  0.47363  Biso   1.000  C
  H1002    1.0000 0.53027  0.41413  0.47363  Biso   1.000  H
  H1003    1.0000 0.55127  0.46023  0.46933  Biso   1.000  H
  H1004    1.0000 0.50617  0.43283  0.46323  Biso   1.000  H
  C1073    1.0000 0.54983  0.52747  0.53854  Biso   1.000  C
  H1005    1.0000 0.57397  0.54333  0.53023  Biso   1.000  H
  H1006    1.0000 0.55637  0.52533  0.55373  Biso   1.000  H
  H1007    1.0000 0.53367  0.53993  0.53813  Biso   1.000  H
  C1074    1.0000 0.56234  0.51641  0.49268  Biso   1.000  C
  H1008    1.0000 0.55597  0.51123  0.47693  Biso   1.000  H
  H1009    1.0000 0.56017  0.53943  0.49693  Biso   1.000  H
  C1075    1.0000 0.63166  0.55708  0.48619  Biso   1.000  C
  C1076    1.0000 0.62464  0.58242  0.47289  Biso   1.000  C
  H1010    1.0000 0.59867  0.57703  0.47043  Biso   1.000  H
  C1077    1.0000 0.65650  0.61590  0.46322  Biso   1.000  C
  H1011    1.0000 0.65177  0.63283  0.45433  Biso   1.000  H
  C1078    1.0000 0.69539  0.62405  0.46686  Biso   1.000  C
  H1012    1.0000 0.71667  0.64643  0.46043  Biso   1.000  H
  C1079    1.0000 0.70241  0.59870  0.48016  Biso   1.000  C
  C1080    1.0000 0.67055  0.56522  0.48983  Biso   1.000  C
  H1013    1.0000 0.67527  0.54833  0.49873  Biso   1.000  H
  C1081    1.0000 0.74357  0.60739  0.48399  Biso   1.000  C
  C1082    1.0000 0.49040  0.46118  0.56460  Biso   1.000  C
  H1014    1.0000 0.47937  0.43623  0.57273  Biso   1.000  H
  H1015    1.0000 0.51517  0.48043  0.57183  Biso   1.000  H
  C1083    1.0000 0.45703  0.48824  0.58473  Biso   1.000  C
  C1084    1.0000 0.43060  0.50268  0.58387  Biso   1.000  C
  H1016    1.0000 0.41877  0.50273  0.57033  Biso   1.000  H
  C1085    1.0000 0.42178  0.51687  0.60279  Biso   1.000  C
  H1017    1.0000 0.40467  0.52723  0.60203  Biso   1.000  H
  C1086    1.0000 0.43869  0.51569  0.62327  Biso   1.000  C
  H1018    1.0000 0.43197  0.52423  0.63623  Biso   1.000  H
  C1087    1.0000 0.46534  0.50189  0.62411  Biso   1.000  C
  C1088    1.0000 0.47336  0.48730  0.60469  Biso   1.000  C
  H1019    1.0000 0.49027  0.47673  0.60543  Biso   1.000  H
  C1089    1.0000 0.48362  0.50006  0.64578  Biso   1.000  C
  C1090    1.0000 0.49582  0.29242  0.48991  Biso   1.000  C
  C1091    1.0000 0.51826  0.31859  0.47072  Biso   1.000  C
  C1092    1.0000 0.55884  0.34612  0.47233  Biso   1.000  C
  H1020    1.0000 0.57277  0.34743  0.48533  Biso   1.000  H
  C1093    1.0000 0.57863  0.37164  0.45458  Biso   1.000  C
  H1021    1.0000 0.60577  0.39003  0.45563  Biso   1.000  H
  C1094    1.0000 0.55784  0.36964  0.43521  Biso   1.000  C
  H1022    1.0000 0.57107  0.38673  0.42333  Biso   1.000  H
  C1095    1.0000 0.51726  0.34211  0.43360  Biso   1.000  C
  C1096    1.0000 0.49747  0.31659  0.45136  Biso   1.000  C
  H1023    1.0000 0.47037  0.29823  0.45033  Biso   1.000  H
  C1097    1.0000 0.45833  0.32167  0.41396  Biso   1.000  C
  H1024    1.0000 0.44847  0.32663  0.42783  Biso   1.000  H
  H1025    1.0000 0.44827  0.29323  0.41273  Biso   1.000  H
  C1098    1.0000 0.44392  0.33607  0.39412  Biso   1.000  C
  C1099    1.0000 0.44427  0.37177  0.39541  Biso   1.000  C
  C1100    1.0000 0.42531  0.38142  0.37810  Biso   1.000  C
  C1101    1.0000 0.40594  0.35477  0.36128  Biso   1.000  C
  C1102    1.0000 0.40755  0.31952  0.35929  Biso   1.000  C
  C1103    1.0000 0.42858  0.31076  0.37492  Biso   1.000  C
  C1104    1.0000 0.43346  0.27455  0.37274  Biso   1.000  C
  H1026    1.0000 0.45827  0.28003  0.37943  Biso   1.000  H
  H1027    1.0000 0.43347  0.26833  0.35723  Biso   1.000  H
  H1028    1.0000 0.41177  0.25233  0.38023  Biso   1.000  H
  C1105    1.0000 0.46162  0.39891  0.41427  Biso   1.000  C
  H1029    1.0000 0.44067  0.39603  0.42413  Biso   1.000  H
  H1030    1.0000 0.47627  0.42593  0.40893  Biso   1.000  H
  H1031    1.0000 0.47937  0.39263  0.42223  Biso   1.000  H
  C1106    1.0000 0.38173  0.36409  0.34444  Biso   1.000  C
  H1032    1.0000 0.36437  0.37093  0.35233  Biso   1.000  H
  H1033    1.0000 0.36607  0.34103  0.33523  Biso   1.000  H
  H1034    1.0000 0.39967  0.38613  0.33523  Biso   1.000  H
  C1107    1.0000 0.42458  0.41957  0.37947  Biso   1.000  C
  H1035    1.0000 0.44537  0.43833  0.38933  Biso   1.000  H
  H1036    1.0000 0.42827  0.43173  0.36483  Biso   1.000  H
  C1108    1.0000 0.37278  0.43463  0.38609  Biso   1.000  C
  C1109    1.0000 0.33229  0.42013  0.38967  Biso   1.000  C
  H1037    1.0000 0.31527  0.39303  0.39243  Biso   1.000  H
  C1110    1.0000 0.31715  0.44604  0.38909  Biso   1.000  C
  H1038    1.0000 0.29007  0.43633  0.39153  Biso   1.000  H
  C1111    1.0000 0.34251  0.48646  0.38494  Biso   1.000  C
  H1039    1.0000 0.33237  0.50383  0.38453  Biso   1.000  H
  C1112    1.0000 0.38301  0.50098  0.38137  Biso   1.000  C
  C1113    1.0000 0.39815  0.47507  0.38195  Biso   1.000  C
  H1040    1.0000 0.42527  0.48483  0.37953  Biso   1.000  H
  C1114    1.0000 0.40906  0.54302  0.37726  Biso   1.000  C
  C1115    1.0000 0.38174  0.28992  0.34204  Biso   1.000  C
  H1041    1.0000 0.38217  0.26533  0.34423  Biso   1.000  H
  H1042    1.0000 0.35447  0.28413  0.34403  Biso   1.000  H
  C1116    1.0000 0.36469  0.28854  0.30408  Biso   1.000  C
  C1117    1.0000 0.37483  0.30946  0.28402  Biso   1.000  C
  H1043    1.0000 0.39997  0.33183  0.28223  Biso   1.000  H
  C1118    1.0000 0.34737  0.29690  0.26662  Biso   1.000  C
  H1044    1.0000 0.35417  0.31093  0.25323  Biso   1.000  H
  C1119    1.0000 0.30976  0.26339  0.26927  Biso   1.000  C
  H1045    1.0000 0.29137  0.25493  0.25763  Biso   1.000  H
  C1120    1.0000 0.29962  0.24247  0.28933  Biso   1.000  C
  C1121    1.0000 0.32708  0.25503  0.30673  Biso   1.000  C
  H1046    1.0000 0.32027  0.24103  0.32013  Biso   1.000  H
  C1122    1.0000 0.25982  0.20639  0.29203  Biso   1.000  C
  Mn49     1.0000 0.32365  0.15482  0.47235  Biso   1.000  Mn
  Mn50     1.0000 0.41139  0.21804  0.50485  Biso   1.000  Mn
  Mn51     1.0000 0.48100  0.28761  0.54085  Biso   1.000  Mn
  O321     1.0000 0.32986  0.20793  0.45283  Biso   1.000  O
  O322     1.0000 0.37649  0.22470  0.47686  Biso   1.000  O
  O323     1.0000 0.43390  0.37558  0.48296  Biso   1.000  O
  O324     1.0000 0.46361  0.47515  0.56507  Biso   1.000  O
  O325     1.0000 0.50794  0.48763  0.64479  Biso   1.000  O
  O326     1.0000 0.47371  0.51063  0.66296  Biso   1.000  O
  O327     1.0000 0.60236  0.52413  0.49674  Biso   1.000  O
  O328     1.0000 0.75001  0.58203  0.49233  Biso   1.000  O
  O329     1.0000 0.77042  0.64092  0.47683  Biso   1.000  O
  O330     1.0000 0.46479  0.26255  0.48583  Biso   1.000  O
  O331     1.0000 0.51134  0.30355  0.50842  Biso   1.000  O
  O332     1.0000 0.50044  0.34249  0.41398  Biso   1.000  O
  O333     1.0000 0.38466  0.40777  0.38843  Biso   1.000  O
  O334     1.0000 0.44439  0.55426  0.37093  Biso   1.000  O
  O335     1.0000 0.39929  0.56870  0.38077  Biso   1.000  O
  O336     1.0000 0.39396  0.30341  0.32003  Biso   1.000  O
  O337     1.0000 0.24951  0.19045  0.31070  Biso   1.000  O
  O338     1.0000 0.23733  0.19262  0.27500  Biso   1.000  O
  O339     1.0000 0.26987  0.10643  0.46203  Biso   1.000  O
  O340     1.0000 0.26677  0.09803  0.46493  Biso   1.000  O
  H1047    1.0000 0.24567  0.10353  0.46243  Biso   1.000  H
  H1048    1.0000 0.26947  0.08473  0.45213  Biso   1.000  H
  H1049    1.0000 0.27157  0.07613  0.46583  Biso   1.000  H
  H1050    1.0000 0.24777  0.09503  0.47613  Biso   1.000  H
  H1051    1.0000 0.25067  0.11453  0.45923  Biso   1.000  H
  H1052    1.0000 0.27497  0.09663  0.44843  Biso   1.000  H
  H1053    1.0000 0.27307  0.08353  0.46123  Biso   1.000  H
  H1054    1.0000 0.24867  0.10133  0.47203  Biso   1.000  H
  C1123    1.0000 0.02617  0.56821  0.79671  Biso   1.000  C
  C1124    1.0000 0.03771  0.60988  0.79328  Biso   1.000  C
  C1125    1.0000 0.01540  0.61976  0.77891  Biso   1.000  C
  H1055    1.0000 0.99583  0.59997  0.76997  Biso   1.000  H
  C1126    1.0000 0.02166  0.65747  0.77776  Biso   1.000  C
  H1056    1.0000 0.00653  0.66357  0.76817  Biso   1.000  H
  C1127    1.0000 0.04977  0.68581  0.79051  Biso   1.000  C
  H1057    1.0000 0.05383  0.71157  0.78987  Biso   1.000  H
  C1128    1.0000 0.07345  0.67751  0.80501  Biso   1.000  C
  C1129    1.0000 0.06717  0.63937  0.80635  Biso   1.000  C
  H1058    1.0000 0.08253  0.63347  0.81587  Biso   1.000  H
  C1130    1.0000 0.12679  0.70472  0.83181  Biso   1.000  C
  H1059    1.0000 0.14353  0.69657  0.82397  Biso   1.000  H
  H1060    1.0000 0.11133  0.68467  0.84297  Biso   1.000  H
  C1131    1.0000 0.15227  0.74519  0.84278  Biso   1.000  C
  C1132    1.0000 0.18145  0.77648  0.83036  Biso   1.000  C
  C1133    1.0000 0.20049  0.81408  0.83958  Biso   1.000  C
  C1134    1.0000 0.19386  0.82010  0.86174  Biso   1.000  C
  C1135    1.0000 0.16542  0.78806  0.87396  Biso   1.000  C
  C1136    1.0000 0.14235  0.74970  0.86381  Biso   1.000  C
  C1137    1.0000 0.10888  0.71658  0.87709  Biso   1.000  C
  H1061    1.0000 0.08673  0.70067  0.86737  Biso   1.000  H
  H1062    1.0000 0.10053  0.72797  0.88867  Biso   1.000  H
  H1063    1.0000 0.11813  0.69997  0.88367  Biso   1.000  H
  C1138    1.0000 0.19340  0.77035  0.80697  Biso   1.000  C
  H1064    1.0000 0.19693  0.74747  0.80697  Biso   1.000  H
  H1065    1.0000 0.21793  0.79357  0.80267  Biso   1.000  H
  H1066    1.0000 0.17283  0.76617  0.79657  Biso   1.000  H
  C1139    1.0000 0.21649  0.86081  0.87188  Biso   1.000  C
  H1067    1.0000 0.24063  0.87667  0.86357  Biso   1.000  H
  H1068    1.0000 0.22303  0.85867  0.88707  Biso   1.000  H
  H1069    1.0000 0.20033  0.87327  0.87147  Biso   1.000  H
  C1140    1.0000 0.22900  0.84975  0.82602  Biso   1.000  C
  H1070    1.0000 0.22263  0.84457  0.81027  Biso   1.000  H
  H1071    1.0000 0.22683  0.87277  0.83027  Biso   1.000  H
  C1141    1.0000 0.29832  0.89042  0.81953  Biso   1.000  C
  C1142    1.0000 0.29130  0.91576  0.80623  Biso   1.000  C
  H1072    1.0000 0.26533  0.91037  0.80377  Biso   1.000  H
  C1143    1.0000 0.32316  0.94924  0.79656  Biso   1.000  C
  H1073    1.0000 0.31843  0.96617  0.78767  Biso   1.000  H
  C1144    1.0000 0.36205  0.95739  0.80020  Biso   1.000  C
  H1074    1.0000 0.38333  0.97977  0.79377  Biso   1.000  H
  C1145    1.0000 0.36907  0.93204  0.81350  Biso   1.000  C
  C1146    1.0000 0.33721  0.89856  0.82317  Biso   1.000  C
  H1075    1.0000 0.34193  0.88167  0.83207  Biso   1.000  H
  C1147    1.0000 0.41023  0.94073  0.81733  Biso   1.000  C
  C1148    1.0000 0.15706  0.79452  0.89794  Biso   1.000  C
  H1076    1.0000 0.14603  0.76957  0.90607  Biso   1.000  H
  H1077    1.0000 0.18183  0.81377  0.90517  Biso   1.000  H
  C1149    1.0000 0.12369  0.82158  0.91807  Biso   1.000  C
  C1150    1.0000 0.09726  0.83602  0.91721  Biso   1.000  C
  H1078    1.0000 0.08543  0.83607  0.90367  Biso   1.000  H
  C1151    1.0000 0.08844  0.85021  0.93613  Biso   1.000  C
  H1079    1.0000 0.07133  0.86057  0.93537  Biso   1.000  H
  C1152    1.0000 0.10535  0.84903  0.95661  Biso   1.000  C
  H1080    1.0000 0.09863  0.85757  0.96957  Biso   1.000  H
  C1153    1.0000 0.13200  0.83523  0.95745  Biso   1.000  C
  C1154    1.0000 0.14002  0.82064  0.93803  Biso   1.000  C
  H1081    1.0000 0.15693  0.81007  0.93877  Biso   1.000  H
  C1155    1.0000 0.15028  0.83340  0.97912  Biso   1.000  C
  C1156    1.0000 0.16248  0.62576  0.82325  Biso   1.000  C
  C1157    1.0000 0.18492  0.65193  0.80406  Biso   1.000  C
  C1158    1.0000 0.22550  0.67946  0.80567  Biso   1.000  C
  H1082    1.0000 0.23943  0.68077  0.81867  Biso   1.000  H
  C1159    1.0000 0.24529  0.70498  0.78792  Biso   1.000  C
  H1083    1.0000 0.27243  0.72337  0.78897  Biso   1.000  H
  C1160    1.0000 0.22450  0.70298  0.76855  Biso   1.000  C
  H1084    1.0000 0.23773  0.72007  0.75667  Biso   1.000  H
  C1161    1.0000 0.18392  0.67545  0.76694  Biso   1.000  C
  C1162    1.0000 0.16413  0.64993  0.78470  Biso   1.000  C
  H1085    1.0000 0.13703  0.63157  0.78367  Biso   1.000  H
  C1163    1.0000 0.12499  0.65501  0.74730  Biso   1.000  C
  H1086    1.0000 0.11513  0.65997  0.76117  Biso   1.000  H
  H1087    1.0000 0.11493  0.62657  0.74607  Biso   1.000  H
  C1164    1.0000 0.11058  0.66941  0.72746  Biso   1.000  C
  C1165    1.0000 0.11093  0.70511  0.72875  Biso   1.000  C
  C1166    1.0000 0.09197  0.71476  0.71144  Biso   1.000  C
  C1167    1.0000 0.07260  0.68811  0.69462  Biso   1.000  C
  C1168    1.0000 0.07421  0.65286  0.69263  Biso   1.000  C
  C1169    1.0000 0.09524  0.64410  0.70826  Biso   1.000  C
  C1170    1.0000 0.10012  0.60789  0.70608  Biso   1.000  C
  H1088    1.0000 0.12493  0.61337  0.71277  Biso   1.000  H
  H1089    1.0000 0.10013  0.60167  0.69057  Biso   1.000  H
  H1090    1.0000 0.07843  0.58567  0.71357  Biso   1.000  H
  C1171    1.0000 0.12828  0.73225  0.74761  Biso   1.000  C
  H1091    1.0000 0.10733  0.72937  0.75747  Biso   1.000  H
  H1092    1.0000 0.14293  0.75927  0.74227  Biso   1.000  H
  H1093    1.0000 0.14603  0.72597  0.75557  Biso   1.000  H
  C1172    1.0000 0.04839  0.69743  0.67778  Biso   1.000  C
  H1094    1.0000 0.03103  0.70427  0.68567  Biso   1.000  H
  H1095    1.0000 0.03273  0.67437  0.66857  Biso   1.000  H
  H1096    1.0000 0.06633  0.71947  0.66857  Biso   1.000  H
  C1173    1.0000 0.09124  0.75291  0.71281  Biso   1.000  C
  H1097    1.0000 0.11203  0.77167  0.72267  Biso   1.000  H
  H1098    1.0000 0.09493  0.76507  0.69817  Biso   1.000  H
  C1174    1.0000 0.03944  0.76797  0.71943  Biso   1.000  C
  C1175    1.0000 0.99895  0.75347  0.72301  Biso   1.000  C
  H1099    1.0000 0.98193  0.72637  0.72577  Biso   1.000  H
  C1176    1.0000 0.98381  0.77938  0.72243  Biso   1.000  C
  H1100    1.0000 0.95673  0.76967  0.72487  Biso   1.000  H
  C1177    1.0000 0.00917  0.81980  0.71828  Biso   1.000  C
  H1101    1.0000 0.99903  0.83717  0.71787  Biso   1.000  H
  C1178    1.0000 0.04967  0.83432  0.71471  Biso   1.000  C
  C1179    1.0000 0.06481  0.80841  0.71529  Biso   1.000  C
  H1102    1.0000 0.09193  0.81817  0.71287  Biso   1.000  H
  C1180    1.0000 0.07572  0.87636  0.71060  Biso   1.000  C
  C1181    1.0000 0.04840  0.62326  0.67538  Biso   1.000  C
  H1103    1.0000 0.04883  0.59867  0.67757  Biso   1.000  H
  H1104    1.0000 0.02113  0.61747  0.67737  Biso   1.000  H
  C1182    1.0000 0.03135  0.62188  0.63742  Biso   1.000  C
  C1183    1.0000 0.04149  0.64280  0.61736  Biso   1.000  C
  H1105    1.0000 0.06663  0.66517  0.61557  Biso   1.000  H
  C1184    1.0000 0.01403  0.63024  0.59996  Biso   1.000  C
  H1106    1.0000 0.02083  0.64427  0.58657  Biso   1.000  H
  C1185    1.0000 0.97642  0.59673  0.60261  Biso   1.000  C
  H1107    1.0000 0.95803  0.58827  0.59097  Biso   1.000  H
  C1186    1.0000 0.96628  0.57581  0.62267  Biso   1.000  C
  C1187    1.0000 0.99374  0.58837  0.64007  Biso   1.000  C
  H1108    1.0000 0.98693  0.57437  0.65347  Biso   1.000  H
  C1188    1.0000 0.92648  0.53973  0.62537  Biso   1.000  C
  Mn52     1.0000 0.99032  0.48815  0.80569  Biso   1.000  Mn
  Mn53     1.0000 0.07806  0.55137  0.83818  Biso   1.000  Mn
  Mn54     1.0000 0.14766  0.62094  0.87418  Biso   1.000  Mn
  O341     1.0000 0.99652  0.54127  0.78617  Biso   1.000  O
  O342     1.0000 0.04315  0.55804  0.81020  Biso   1.000  O
  O343     1.0000 0.10056  0.70892  0.81630  Biso   1.000  O
  O344     1.0000 0.13027  0.80849  0.89841  Biso   1.000  O
  O345     1.0000 0.17460  0.82097  0.97813  Biso   1.000  O
  O346     1.0000 0.14037  0.84397  0.99630  Biso   1.000  O
  O347     1.0000 0.26902  0.85747  0.83008  Biso   1.000  O
  O348     1.0000 0.41667  0.91537  0.82567  Biso   1.000  O
  O349     1.0000 0.43708  0.97426  0.81017  Biso   1.000  O
  O350     1.0000 0.13145  0.59589  0.81917  Biso   1.000  O
  O351     1.0000 0.17800  0.63689  0.84176  Biso   1.000  O
  O352     1.0000 0.16710  0.67583  0.74732  Biso   1.000  O
  O353     1.0000 0.05132  0.74111  0.72177  Biso   1.000  O
  O354     1.0000 0.11105  0.88760  0.70427  Biso   1.000  O
  O355     1.0000 0.06595  0.90204  0.71411  Biso   1.000  O
  O356     1.0000 0.06062  0.63675  0.65337  Biso   1.000  O
  O357     1.0000 0.91617  0.52379  0.64404  Biso   1.000  O
  O358     1.0000 0.90399  0.52596  0.60834  Biso   1.000  O
  O359     1.0000 0.93653  0.43977  0.79537  Biso   1.000  O
  O360     1.0000 0.93343  0.43137  0.79827  Biso   1.000  O
  H1109    1.0000 0.91233  0.43687  0.79577  Biso   1.000  H
  H1110    1.0000 0.93613  0.41807  0.78547  Biso   1.000  H
  H1111    1.0000 0.93823  0.40947  0.79917  Biso   1.000  H
  H1112    1.0000 0.91443  0.42837  0.80947  Biso   1.000  H
  H1113    1.0000 0.91733  0.44787  0.79257  Biso   1.000  H
  H1114    1.0000 0.94163  0.42997  0.78177  Biso   1.000  H
  H1115    1.0000 0.93973  0.41687  0.79457  Biso   1.000  H
  H1116    1.0000 0.91533  0.43467  0.80537  Biso   1.000  H
  C1189    1.0000 0.69284  0.79130  0.63004  Biso   1.000  C
  C1190    1.0000 0.70438  0.76117  0.62661  Biso   1.000  C
  C1191    1.0000 0.68207  0.72898  0.61224  Biso   1.000  C
  H1117    1.0000 0.66250  0.72920  0.60330  Biso   1.000  H
  C1192    1.0000 0.68833  0.69753  0.61109  Biso   1.000  C
  H1118    1.0000 0.67320  0.67630  0.60150  Biso   1.000  H
  C1193    1.0000 0.71644  0.69730  0.62384  Biso   1.000  C
  H1119    1.0000 0.72050  0.67560  0.62320  Biso   1.000  H
  C1194    1.0000 0.74012  0.72928  0.63834  Biso   1.000  C
  C1195    1.0000 0.73384  0.76114  0.63968  Biso   1.000  C
  H1120    1.0000 0.74920  0.78240  0.64920  Biso   1.000  H
  C1196    1.0000 0.79346  0.75541  0.66514  Biso   1.000  C
  H1121    1.0000 0.81020  0.78030  0.65730  Biso   1.000  H
  H1122    1.0000 0.77800  0.76000  0.67630  Biso   1.000  H
  C1197    1.0000 0.81894  0.74042  0.67611  Biso   1.000  C
  C1198    1.0000 0.84812  0.73831  0.66369  Biso   1.000  C
  C1199    1.0000 0.86716  0.71975  0.67291  Biso   1.000  C
  C1200    1.0000 0.86053  0.70710  0.69507  Biso   1.000  C
  C1201    1.0000 0.83209  0.71070  0.70729  Biso   1.000  C
  C1202    1.0000 0.80902  0.72599  0.69714  Biso   1.000  C
  C1203    1.0000 0.77555  0.72564  0.71042  Biso   1.000  C
  H1123    1.0000 0.75340  0.71940  0.70070  Biso   1.000  H
  H1124    1.0000 0.76720  0.70590  0.72200  Biso   1.000  H
  H1125    1.0000 0.78480  0.75150  0.71700  Biso   1.000  H
  C1204    1.0000 0.86007  0.75639  0.64030  Biso   1.000  C
  H1126    1.0000 0.86360  0.78280  0.64030  Biso   1.000  H
  H1127    1.0000 0.88460  0.75770  0.63600  Biso   1.000  H
  H1128    1.0000 0.83950  0.74000  0.62990  Biso   1.000  H
  C1205    1.0000 0.88316  0.68902  0.70521  Biso   1.000  C
  H1129    1.0000 0.90730  0.69730  0.69690  Biso   1.000  H
  H1130    1.0000 0.88970  0.69770  0.72040  Biso   1.000  H
  H1131    1.0000 0.86700  0.66040  0.70480  Biso   1.000  H
  C1206    1.0000 0.89567  0.71259  0.65935  Biso   1.000  C
  H1132    1.0000 0.88930  0.71140  0.64360  Biso   1.000  H
  H1133    1.0000 0.89350  0.68740  0.66360  Biso   1.000  H
  C1207    1.0000 0.96499  0.74124  0.65286  Biso   1.000  C
  C1208    1.0000 0.95797  0.70888  0.63956  Biso   1.000  C
  H1134    1.0000 0.93200  0.68830  0.63710  Biso   1.000  H
  C1209    1.0000 0.98983  0.70726  0.62989  Biso   1.000  C
  H1135    1.0000 0.98510  0.68560  0.62100  Biso   1.000  H
  C1210    1.0000 0.02872  0.73800  0.63353  Biso   1.000  C
  H1136    1.0000 0.05000  0.73690  0.62710  Biso   1.000  H
  C1211    1.0000 0.03574  0.77037  0.64683  Biso   1.000  C
  C1212    1.0000 0.00388  0.77199  0.65650  Biso   1.000  C
  H1137    1.0000 0.00860  0.79360  0.66540  Biso   1.000  H
  C1213    1.0000 0.07690  0.80284  0.65066  Biso   1.000  C
  C1214    1.0000 0.82373  0.69588  0.73127  Biso   1.000  C
  H1138    1.0000 0.81270  0.70980  0.73940  Biso   1.000  H
  H1139    1.0000 0.84850  0.70140  0.73850  Biso   1.000  H
  C1215    1.0000 0.79036  0.63545  0.75140  Biso   1.000  C
  C1216    1.0000 0.76393  0.59458  0.75054  Biso   1.000  C
  H1140    1.0000 0.75210  0.58270  0.73700  Biso   1.000  H
  C1217    1.0000 0.75511  0.57157  0.76946  Biso   1.000  C
  H1141    1.0000 0.73800  0.54410  0.76870  Biso   1.000  H
  C1218    1.0000 0.77202  0.58966  0.78994  Biso   1.000  C
  H1142    1.0000 0.76530  0.57440  0.80290  Biso   1.000  H
  C1219    1.0000 0.79867  0.63011  0.79078  Biso   1.000  C
  C1220    1.0000 0.80669  0.65272  0.77136  Biso   1.000  C
  H1143    1.0000 0.82360  0.68020  0.77210  Biso   1.000  H
  C1221    1.0000 0.81695  0.65022  0.81245  Biso   1.000  C
  C1222    1.0000 0.82915  0.87006  0.65658  Biso   1.000  C
  C1223    1.0000 0.85159  0.86633  0.63739  Biso   1.000  C
  C1224    1.0000 0.89217  0.87938  0.63900  Biso   1.000  C
  H1144    1.0000 0.90610  0.89200  0.65200  Biso   1.000  H
  C1225    1.0000 0.91196  0.87365  0.62125  Biso   1.000  C
  H1145    1.0000 0.93910  0.88240  0.62230  Biso   1.000  H
  C1226    1.0000 0.89117  0.85486  0.60188  Biso   1.000  C
  H1146    1.0000 0.90440  0.85100  0.59000  Biso   1.000  H
  C1227    1.0000 0.85059  0.84181  0.60027  Biso   1.000  C
  C1228    1.0000 0.83080  0.84754  0.61803  Biso   1.000  C
  H1147    1.0000 0.80370  0.83880  0.61700  Biso   1.000  H
  C1229    1.0000 0.79166  0.80332  0.58063  Biso   1.000  C
  H1148    1.0000 0.78180  0.78850  0.59450  Biso   1.000  H
  H1149    1.0000 0.78160  0.82170  0.57940  Biso   1.000  H
  C1230    1.0000 0.77725  0.77451  0.56079  Biso   1.000  C
  C1231    1.0000 0.77760  0.73916  0.56208  Biso   1.000  C
  C1232    1.0000 0.75864  0.71055  0.54477  Biso   1.000  C
  C1233    1.0000 0.73927  0.71783  0.52795  Biso   1.000  C
  C1234    1.0000 0.74088  0.75469  0.52596  Biso   1.000  C
  C1235    1.0000 0.76191  0.78448  0.54159  Biso   1.000  C
  C1236    1.0000 0.76679  0.82557  0.53941  Biso   1.000  C
  H1150    1.0000 0.79160  0.84490  0.54610  Biso   1.000  H
  H1151    1.0000 0.76680  0.83180  0.52390  Biso   1.000  H
  H1152    1.0000 0.74510  0.82610  0.54690  Biso   1.000  H
  C1237    1.0000 0.79495  0.72937  0.58094  Biso   1.000  C
  H1153    1.0000 0.77400  0.71130  0.59080  Biso   1.000  H
  H1154    1.0000 0.80960  0.71700  0.57560  Biso   1.000  H
  H1155    1.0000 0.81270  0.75340  0.58890  Biso   1.000  H
  C1238    1.0000 0.71506  0.68430  0.51111  Biso   1.000  C
  H1156    1.0000 0.69770  0.66010  0.51900  Biso   1.000  H
  H1157    1.0000 0.69940  0.69170  0.50190  Biso   1.000  H
  H1158    1.0000 0.73300  0.68020  0.50190  Biso   1.000  H
  C1239    1.0000 0.75791  0.67167  0.54614  Biso   1.000  C
  H1159    1.0000 0.77870  0.67370  0.55600  Biso   1.000  H
  H1160    1.0000 0.76160  0.66320  0.53150  Biso   1.000  H
  C1240    1.0000 0.70611  0.60481  0.55276  Biso   1.000  C
  C1241    1.0000 0.66562  0.57882  0.55634  Biso   1.000  C
  H1161    1.0000 0.64860  0.58890  0.55910  Biso   1.000  H
  C1242    1.0000 0.65048  0.53777  0.55576  Biso   1.000  C
  H1162    1.0000 0.62340  0.52040  0.55820  Biso   1.000  H
  C1243    1.0000 0.67584  0.52271  0.55161  Biso   1.000  C
  H1163    1.0000 0.66570  0.49520  0.55120  Biso   1.000  H
  C1244    1.0000 0.71634  0.54869  0.54804  Biso   1.000  C
  C1245    1.0000 0.73148  0.58974  0.54862  Biso   1.000  C
  H1164    1.0000 0.75860  0.60710  0.54620  Biso   1.000  H
  C1246    1.0000 0.74239  0.53270  0.54393  Biso   1.000  C
  C1247    1.0000 0.71507  0.75848  0.50871  Biso   1.000  C
  H1165    1.0000 0.71550  0.78350  0.51090  Biso   1.000  H
  H1166    1.0000 0.68780  0.73700  0.51070  Biso   1.000  H
  C1248    1.0000 0.69802  0.74281  0.47075  Biso   1.000  C
  C1249    1.0000 0.70816  0.73203  0.45069  Biso   1.000  C
  H1167    1.0000 0.73330  0.73480  0.44890  Biso   1.000  H
  C1250    1.0000 0.68070  0.71713  0.43329  Biso   1.000  C
  H1168    1.0000 0.68750  0.70990  0.41990  Biso   1.000  H
  C1251    1.0000 0.64309  0.71303  0.43594  Biso   1.000  C
  H1169    1.0000 0.62470  0.70310  0.42430  Biso   1.000  H
  C1252    1.0000 0.63295  0.72381  0.45600  Biso   1.000  C
  C1253    1.0000 0.66041  0.73871  0.47340  Biso   1.000  C
  H1170    1.0000 0.65360  0.74590  0.48680  Biso   1.000  H
  C1254    1.0000 0.59315  0.72009  0.45870  Biso   1.000  C
  Mn55     1.0000 0.65698  0.83550  0.63902  Biso   1.000  Mn
  Mn56     1.0000 0.74473  0.86002  0.67152  Biso   1.000  Mn
  Mn57     1.0000 0.81433  0.86006  0.70752  Biso   1.000  Mn
  O361     1.0000 0.66319  0.78859  0.61950  Biso   1.000  O
  O362     1.0000 0.70982  0.81845  0.64353  Biso   1.000  O
  O363     1.0000 0.76723  0.72498  0.64963  Biso   1.000  O
  O364     1.0000 0.79694  0.65512  0.73174  Biso   1.000  O
  O365     1.0000 0.84127  0.68697  0.81146  Biso   1.000  O
  O366     1.0000 0.80704  0.62974  0.82963  Biso   1.000  O
  O367     1.0000 0.93569  0.74489  0.66341  Biso   1.000  O
  O368     1.0000 0.08334  0.83464  0.65900  Biso   1.000  O
  O369     1.0000 0.10375  0.79616  0.64350  Biso   1.000  O
  O370     1.0000 0.79812  0.86890  0.65250  Biso   1.000  O
  O371     1.0000 0.84467  0.87445  0.67509  Biso   1.000  O
  O372     1.0000 0.83377  0.82461  0.58065  Biso   1.000  O
  O373     1.0000 0.71799  0.64355  0.55510  Biso   1.000  O
  O374     1.0000 0.77772  0.55679  0.53760  Biso   1.000  O
  O375     1.0000 0.73262  0.49725  0.54744  Biso   1.000  O
  O376     1.0000 0.72729  0.75721  0.48670  Biso   1.000  O
  O377     1.0000 0.58284  0.72572  0.47737  Biso   1.000  O
  O378     1.0000 0.57066  0.71137  0.44167  Biso   1.000  O
  O379     1.0000 0.60320  0.83010  0.62870  Biso   1.000  O
  O380     1.0000 0.60010  0.83540  0.63160  Biso   1.000  O
  H1171    1.0000 0.57900  0.80880  0.62910  Biso   1.000  H
  H1172    1.0000 0.60280  0.85140  0.61880  Biso   1.000  H
  H1173    1.0000 0.60490  0.86210  0.63250  Biso   1.000  H
  H1174    1.0000 0.58110  0.81940  0.64280  Biso   1.000  H
  H1175    1.0000 0.58400  0.80280  0.62590  Biso   1.000  H
  H1176    1.0000 0.60830  0.84500  0.61510  Biso   1.000  H
  H1177    1.0000 0.60640  0.85620  0.62790  Biso   1.000  H
  H1178    1.0000 0.58200  0.81400  0.63870  Biso   1.000  H
  C1255    1.0000 0.35951  0.12463  0.96337  Biso   1.000  C
  C1256    1.0000 0.37105  0.09450  0.95994  Biso   1.000  C
  C1257    1.0000 0.34874  0.06231  0.94557  Biso   1.000  C
  H1179    1.0000 0.32917  0.06253  0.93663  Biso   1.000  H
  C1258    1.0000 0.35500  0.03086  0.94442  Biso   1.000  C
  H1180    1.0000 0.33987  0.00963  0.93483  Biso   1.000  H
  C1259    1.0000 0.38311  0.03063  0.95717  Biso   1.000  C
  H1181    1.0000 0.38717  0.00893  0.95653  Biso   1.000  H
  C1260    1.0000 0.40679  0.06261  0.97167  Biso   1.000  C
  C1261    1.0000 0.40051  0.09447  0.97301  Biso   1.000  C
  H1182    1.0000 0.41587  0.11573  0.98253  Biso   1.000  H
  C1262    1.0000 0.46013  0.08874  0.99847  Biso   1.000  C
  H1183    1.0000 0.47687  0.11363  0.99063  Biso   1.000  H
  H1184    1.0000 0.44467  0.09333  0.00963  Biso   1.000  H
  C1263    1.0000 0.48561  0.07375  0.00944  Biso   1.000  C
  C1264    1.0000 0.51479  0.07164  0.99702  Biso   1.000  C
  C1265    1.0000 0.53383  0.05308  0.00624  Biso   1.000  C
  C1266    1.0000 0.52720  0.04043  0.02840  Biso   1.000  C
  C1267    1.0000 0.49876  0.04403  0.04062  Biso   1.000  C
  C1268    1.0000 0.47569  0.05932  0.03047  Biso   1.000  C
  C1269    1.0000 0.44222  0.05897  0.04375  Biso   1.000  C
  H1185    1.0000 0.42007  0.05273  0.03403  Biso   1.000  H
  H1186    1.0000 0.43387  0.03923  0.05533  Biso   1.000  H
  H1187    1.0000 0.45147  0.08483  0.05033  Biso   1.000  H
  C1270    1.0000 0.52674  0.08972  0.97363  Biso   1.000  C
  H1188    1.0000 0.53027  0.11613  0.97363  Biso   1.000  H
  H1189    1.0000 0.55127  0.09103  0.96933  Biso   1.000  H
  H1190    1.0000 0.50617  0.07333  0.96323  Biso   1.000  H
  C1271    1.0000 0.54983  0.02235  0.03854  Biso   1.000  C
  H1191    1.0000 0.57397  0.03063  0.03023  Biso   1.000  H
  H1192    1.0000 0.55637  0.03103  0.05373  Biso   1.000  H
  H1193    1.0000 0.53367  0.99373  0.03813  Biso   1.000  H
  C1272    1.0000 0.56234  0.04592  0.99268  Biso   1.000  C
  H1194    1.0000 0.55597  0.04473  0.97693  Biso   1.000  H
  H1195    1.0000 0.56017  0.02073  0.99693  Biso   1.000  H
  C1273    1.0000 0.63166  0.07457  0.98619  Biso   1.000  C
  C1274    1.0000 0.62464  0.04221  0.97289  Biso   1.000  C
  H1196    1.0000 0.59867  0.02163  0.97043  Biso   1.000  H
  C1275    1.0000 0.65650  0.04059  0.96322  Biso   1.000  C
  H1197    1.0000 0.65177  0.01893  0.95433  Biso   1.000  H
  C1276    1.0000 0.69539  0.07133  0.96686  Biso   1.000  C
  H1198    1.0000 0.71667  0.07023  0.96043  Biso   1.000  H
  C1277    1.0000 0.70241  0.10370  0.98016  Biso   1.000  C
  C1278    1.0000 0.67055  0.10532  0.98983  Biso   1.000  C
  H1199    1.0000 0.67527  0.12693  0.99873  Biso   1.000  H
  C1279    1.0000 0.74357  0.13617  0.98399  Biso   1.000  C
  C1280    1.0000 0.49040  0.02921  0.06460  Biso   1.000  C
  H1200    1.0000 0.47937  0.04313  0.07273  Biso   1.000  H
  H1201    1.0000 0.51517  0.03473  0.07183  Biso   1.000  H
  C1281    1.0000 0.45703  0.96878  0.08473  Biso   1.000  C
  C1282    1.0000 0.43060  0.92791  0.08387  Biso   1.000  C
  H1202    1.0000 0.41877  0.91603  0.07033  Biso   1.000  H
  C1283    1.0000 0.42178  0.90490  0.10279  Biso   1.000  C
  H1203    1.0000 0.40467  0.87743  0.10203  Biso   1.000  H
  C1284    1.0000 0.43869  0.92299  0.12327  Biso   1.000  C
  H1204    1.0000 0.43197  0.90773  0.13623  Biso   1.000  H
  C1285    1.0000 0.46534  0.96344  0.12411  Biso   1.000  C
  C1286    1.0000 0.47336  0.98605  0.10469  Biso   1.000  C
  H1205    1.0000 0.49027  0.01353  0.10543  Biso   1.000  H
  C1287    1.0000 0.48362  0.98355  0.14578  Biso   1.000  C
  C1288    1.0000 0.49582  0.20339  0.98991  Biso   1.000  C
  C1289    1.0000 0.51826  0.19966  0.97072  Biso   1.000  C
  C1290    1.0000 0.55884  0.21271  0.97233  Biso   1.000  C
  H1206    1.0000 0.57277  0.22533  0.98533  Biso   1.000  H
  C1291    1.0000 0.57863  0.20698  0.95458  Biso   1.000  C
  H1207    1.0000 0.60577  0.21573  0.95563  Biso   1.000  H
  C1292    1.0000 0.55784  0.18819  0.93521  Biso   1.000  C
  H1208    1.0000 0.57107  0.18433  0.92333  Biso   1.000  H
  C1293    1.0000 0.51726  0.17514  0.93360  Biso   1.000  C
  C1294    1.0000 0.49747  0.18087  0.95136  Biso   1.000  C
  H1209    1.0000 0.47037  0.17213  0.95033  Biso   1.000  H
  C1295    1.0000 0.45833  0.13665  0.91396  Biso   1.000  C
  H1210    1.0000 0.44847  0.12183  0.92783  Biso   1.000  H
  H1211    1.0000 0.44827  0.15503  0.91273  Biso   1.000  H
  C1296    1.0000 0.44392  0.10784  0.89412  Biso   1.000  C
  C1297    1.0000 0.44427  0.07249  0.89541  Biso   1.000  C
  C1298    1.0000 0.42531  0.04388  0.87810  Biso   1.000  C
  C1299    1.0000 0.40594  0.05116  0.86128  Biso   1.000  C
  C1300    1.0000 0.40755  0.08802  0.85929  Biso   1.000  C
  C1301    1.0000 0.42858  0.11781  0.87492  Biso   1.000  C
  C1302    1.0000 0.43346  0.15890  0.87274  Biso   1.000  C
  H1212    1.0000 0.45827  0.17823  0.87943  Biso   1.000  H
  H1213    1.0000 0.43347  0.16513  0.85723  Biso   1.000  H
  H1214    1.0000 0.41177  0.15943  0.88023  Biso   1.000  H
  C1303    1.0000 0.46162  0.06270  0.91427  Biso   1.000  C
  H1215    1.0000 0.44067  0.04463  0.92413  Biso   1.000  H
  H1216    1.0000 0.47627  0.05033  0.90893  Biso   1.000  H
  H1217    1.0000 0.47937  0.08673  0.92223  Biso   1.000  H
  C1304    1.0000 0.38173  0.01763  0.84444  Biso   1.000  C
  H1218    1.0000 0.36437  0.99343  0.85233  Biso   1.000  H
  H1219    1.0000 0.36607  0.02503  0.83523  Biso   1.000  H
  H1220    1.0000 0.39967  0.01353  0.83523  Biso   1.000  H
  C1305    1.0000 0.42458  0.00500  0.87947  Biso   1.000  C
  H1221    1.0000 0.44537  0.00703  0.88933  Biso   1.000  H
  H1222    1.0000 0.42827  0.99653  0.86483  Biso   1.000  H
  C1306    1.0000 0.37278  0.93814  0.88609  Biso   1.000  C
  C1307    1.0000 0.33229  0.91215  0.88967  Biso   1.000  C
  H1223    1.0000 0.31527  0.92223  0.89243  Biso   1.000  H
  C1308    1.0000 0.31715  0.87110  0.88909  Biso   1.000  C
  H1224    1.0000 0.29007  0.85373  0.89153  Biso   1.000  H
  C1309    1.0000 0.34251  0.85604  0.88494  Biso   1.000  C
  H1225    1.0000 0.33237  0.82853  0.88453  Biso   1.000  H
  C1310    1.0000 0.38301  0.88202  0.88137  Biso   1.000  C
  C1311    1.0000 0.39815  0.92307  0.88195  Biso   1.000  C
  H1226    1.0000 0.42527  0.94043  0.87953  Biso   1.000  H
  C1312    1.0000 0.40906  0.86603  0.87726  Biso   1.000  C
  C1313    1.0000 0.38174  0.09181  0.84204  Biso   1.000  C
  H1227    1.0000 0.38217  0.11683  0.84423  Biso   1.000  H
  H1228    1.0000 0.35447  0.07033  0.84403  Biso   1.000  H
  C1314    1.0000 0.36469  0.07614  0.80408  Biso   1.000  C
  C1315    1.0000 0.37483  0.06536  0.78402  Biso   1.000  C
  H1229    1.0000 0.39997  0.06813  0.78223  Biso   1.000  H
  C1316    1.0000 0.34737  0.05046  0.76662  Biso   1.000  C
  H1230    1.0000 0.35417  0.04323  0.75323  Biso   1.000  H
  C1317    1.0000 0.30976  0.04636  0.76927  Biso   1.000  C
  H1231    1.0000 0.29137  0.03643  0.75763  Biso   1.000  H
  C1318    1.0000 0.29962  0.05714  0.78933  Biso   1.000  C
  C1319    1.0000 0.32708  0.07204  0.80673  Biso   1.000  C
  H1232    1.0000 0.32027  0.07923  0.82013  Biso   1.000  H
  C1320    1.0000 0.25982  0.05342  0.79203  Biso   1.000  C
  Mn58     1.0000 0.32365  0.16883  0.97235  Biso   1.000  Mn
  Mn59     1.0000 0.41139  0.19335  0.00485  Biso   1.000  Mn
  Mn60     1.0000 0.48100  0.19339  0.04085  Biso   1.000  Mn
  O381     1.0000 0.32986  0.12192  0.95283  Biso   1.000  O
  O382     1.0000 0.37649  0.15178  0.97686  Biso   1.000  O
  O383     1.0000 0.43390  0.05831  0.98296  Biso   1.000  O
  O384     1.0000 0.46361  0.98845  0.06507  Biso   1.000  O
  O385     1.0000 0.50794  0.02030  0.14479  Biso   1.000  O
  O386     1.0000 0.47371  0.96307  0.16296  Biso   1.000  O
  O387     1.0000 0.60236  0.07822  0.99674  Biso   1.000  O
  O388     1.0000 0.75001  0.16797  0.99233  Biso   1.000  O
  O389     1.0000 0.77042  0.12949  0.97683  Biso   1.000  O
  O390     1.0000 0.46479  0.20223  0.98583  Biso   1.000  O
  O391     1.0000 0.51134  0.20778  0.00842  Biso   1.000  O
  O392     1.0000 0.50044  0.15794  0.91398  Biso   1.000  O
  O393     1.0000 0.38466  0.97688  0.88843  Biso   1.000  O
  O394     1.0000 0.44439  0.89012  0.87093  Biso   1.000  O
  O395     1.0000 0.39929  0.83058  0.88077  Biso   1.000  O
  O396     1.0000 0.39396  0.09054  0.82003  Biso   1.000  O
  O397     1.0000 0.24951  0.05905  0.81070  Biso   1.000  O
  O398     1.0000 0.23733  0.04470  0.77500  Biso   1.000  O
  O399     1.0000 0.26987  0.16343  0.96203  Biso   1.000  O
  O400     1.0000 0.26677  0.16873  0.96493  Biso   1.000  O
  H1233    1.0000 0.24567  0.14213  0.96243  Biso   1.000  H
  H1234    1.0000 0.26947  0.18473  0.95213  Biso   1.000  H
  H1235    1.0000 0.27157  0.19543  0.96583  Biso   1.000  H
  H1236    1.0000 0.24777  0.15273  0.97613  Biso   1.000  H
  H1237    1.0000 0.25067  0.13613  0.95923  Biso   1.000  H
  H1238    1.0000 0.27497  0.17833  0.94843  Biso   1.000  H
  H1239    1.0000 0.27307  0.18953  0.96123  Biso   1.000  H
  H1240    1.0000 0.24867  0.14733  0.97203  Biso   1.000  H
  C1321    1.0000 0.02617  0.45797  0.29671  Biso   1.000  C
  C1322    1.0000 0.03771  0.42784  0.29328  Biso   1.000  C
  C1323    1.0000 0.01540  0.39565  0.27891  Biso   1.000  C
  H1241    1.0000 0.99583  0.39587  0.26997  Biso   1.000  H
  C1324    1.0000 0.02166  0.36420  0.27776  Biso   1.000  C
  H1242    1.0000 0.00653  0.34297  0.26817  Biso   1.000  H
  C1325    1.0000 0.04977  0.36397  0.29051  Biso   1.000  C
  H1243    1.0000 0.05383  0.34227  0.28987  Biso   1.000  H
  C1326    1.0000 0.07345  0.39595  0.30501  Biso   1.000  C
  C1327    1.0000 0.06717  0.42781  0.30635  Biso   1.000  C
  H1244    1.0000 0.08253  0.44907  0.31587  Biso   1.000  H
  C1328    1.0000 0.12679  0.42208  0.33181  Biso   1.000  C
  H1245    1.0000 0.14353  0.44697  0.32397  Biso   1.000  H
  H1246    1.0000 0.11133  0.42667  0.34297  Biso   1.000  H
  C1329    1.0000 0.15227  0.40709  0.34278  Biso   1.000  C
  C1330    1.0000 0.18145  0.40498  0.33036  Biso   1.000  C
  C1331    1.0000 0.20049  0.38642  0.33958  Biso   1.000  C
  C1332    1.0000 0.19386  0.37377  0.36174  Biso   1.000  C
  C1333    1.0000 0.16542  0.37737  0.37396  Biso   1.000  C
  C1334    1.0000 0.14235  0.39266  0.36381  Biso   1.000  C
  C1335    1.0000 0.10888  0.39231  0.37709  Biso   1.000  C
  H1247    1.0000 0.08673  0.38607  0.36737  Biso   1.000  H
  H1248    1.0000 0.10053  0.37257  0.38867  Biso   1.000  H
  H1249    1.0000 0.11813  0.41817  0.38367  Biso   1.000  H
  C1336    1.0000 0.19340  0.42306  0.30697  Biso   1.000  C
  H1250    1.0000 0.19693  0.44947  0.30697  Biso   1.000  H
  H1251    1.0000 0.21793  0.42437  0.30267  Biso   1.000  H
  H1252    1.0000 0.17283  0.40667  0.29657  Biso   1.000  H
  C1337    1.0000 0.21649  0.35569  0.37188  Biso   1.000  C
  H1253    1.0000 0.24063  0.36397  0.36357  Biso   1.000  H
  H1254    1.0000 0.22303  0.36437  0.38707  Biso   1.000  H
  H1255    1.0000 0.20033  0.32707  0.37147  Biso   1.000  H
  C1338    1.0000 0.22900  0.37926  0.32602  Biso   1.000  C
  H1256    1.0000 0.22263  0.37807  0.31027  Biso   1.000  H
  H1257    1.0000 0.22683  0.35407  0.33027  Biso   1.000  H
  C1339    1.0000 0.29832  0.40791  0.31953  Biso   1.000  C
  C1340    1.0000 0.29130  0.37555  0.30623  Biso   1.000  C
  H1258    1.0000 0.26533  0.35497  0.30377  Biso   1.000  H
  C1341    1.0000 0.32316  0.37393  0.29656  Biso   1.000  C
  H1259    1.0000 0.31843  0.35227  0.28767  Biso   1.000  H
  C1342    1.0000 0.36205  0.40467  0.30020  Biso   1.000  C
  H1260    1.0000 0.38333  0.40357  0.29377  Biso   1.000  H
  C1343    1.0000 0.36907  0.43704  0.31350  Biso   1.000  C
  C1344    1.0000 0.33721  0.43866  0.32317  Biso   1.000  C
  H1261    1.0000 0.34193  0.46027  0.33207  Biso   1.000  H
  C1345    1.0000 0.41023  0.46951  0.31733  Biso   1.000  C
  C1346    1.0000 0.15706  0.36255  0.39794  Biso   1.000  C
  H1262    1.0000 0.14603  0.37647  0.40607  Biso   1.000  H
  H1263    1.0000 0.18183  0.36807  0.40517  Biso   1.000  H
  C1347    1.0000 0.12369  0.30212  0.41807  Biso   1.000  C
  C1348    1.0000 0.09726  0.26125  0.41721  Biso   1.000  C
  H1264    1.0000 0.08543  0.24937  0.40367  Biso   1.000  H
  C1349    1.0000 0.08844  0.23824  0.43613  Biso   1.000  C
  H1265    1.0000 0.07133  0.21077  0.43537  Biso   1.000  H
  C1350    1.0000 0.10535  0.25633  0.45661  Biso   1.000  C
  H1266    1.0000 0.09863  0.24107  0.46957  Biso   1.000  H
  C1351    1.0000 0.13200  0.29678  0.45745  Biso   1.000  C
  C1352    1.0000 0.14002  0.31939  0.43803  Biso   1.000  C
  H1267    1.0000 0.15693  0.34687  0.43877  Biso   1.000  H
  C1353    1.0000 0.15028  0.31689  0.47912  Biso   1.000  C
  C1354    1.0000 0.16248  0.53673  0.32325  Biso   1.000  C
  C1355    1.0000 0.18492  0.53300  0.30406  Biso   1.000  C
  C1356    1.0000 0.22550  0.54605  0.30567  Biso   1.000  C
  H1268    1.0000 0.23943  0.55867  0.31867  Biso   1.000  H
  C1357    1.0000 0.24529  0.54032  0.28792  Biso   1.000  C
  H1269    1.0000 0.27243  0.54907  0.28897  Biso   1.000  H
  C1358    1.0000 0.22450  0.52153  0.26855  Biso   1.000  C
  H1270    1.0000 0.23773  0.51767  0.25667  Biso   1.000  H
  C1359    1.0000 0.18392  0.50848  0.26694  Biso   1.000  C
  C1360    1.0000 0.16413  0.51421  0.28470  Biso   1.000  C
  H1271    1.0000 0.13703  0.50547  0.28367  Biso   1.000  H
  C1361    1.0000 0.12499  0.46999  0.24730  Biso   1.000  C
  H1272    1.0000 0.11513  0.45517  0.26117  Biso   1.000  H
  H1273    1.0000 0.11493  0.48837  0.24607  Biso   1.000  H
  C1362    1.0000 0.11058  0.44118  0.22746  Biso   1.000  C
  C1363    1.0000 0.11093  0.40583  0.22875  Biso   1.000  C
  C1364    1.0000 0.09197  0.37722  0.21144  Biso   1.000  C
  C1365    1.0000 0.07260  0.38450  0.19462  Biso   1.000  C
  C1366    1.0000 0.07421  0.42136  0.19263  Biso   1.000  C
  C1367    1.0000 0.09524  0.45115  0.20826  Biso   1.000  C
  C1368    1.0000 0.10012  0.49224  0.20608  Biso   1.000  C
  H1274    1.0000 0.12493  0.51157  0.21277  Biso   1.000  H
  H1275    1.0000 0.10013  0.49847  0.19057  Biso   1.000  H
  H1276    1.0000 0.07843  0.49277  0.21357  Biso   1.000  H
  C1369    1.0000 0.12828  0.39604  0.24761  Biso   1.000  C
  H1277    1.0000 0.10733  0.37797  0.25747  Biso   1.000  H
  H1278    1.0000 0.14293  0.38367  0.24227  Biso   1.000  H
  H1279    1.0000 0.14603  0.42007  0.25557  Biso   1.000  H
  C1370    1.0000 0.04839  0.35097  0.17778  Biso   1.000  C
  H1280    1.0000 0.03103  0.32677  0.18567  Biso   1.000  H
  H1281    1.0000 0.03273  0.35837  0.16857  Biso   1.000  H
  H1282    1.0000 0.06633  0.34687  0.16857  Biso   1.000  H
  C1371    1.0000 0.09124  0.33834  0.21281  Biso   1.000  C
  H1283    1.0000 0.11203  0.34037  0.22267  Biso   1.000  H
  H1284    1.0000 0.09493  0.32987  0.19817  Biso   1.000  H
  C1372    1.0000 0.03944  0.27148  0.21943  Biso   1.000  C
  C1373    1.0000 0.99895  0.24549  0.22301  Biso   1.000  C
  H1285    1.0000 0.98193  0.25557  0.22577  Biso   1.000  H
  C1374    1.0000 0.98381  0.20444  0.22243  Biso   1.000  C
  H1286    1.0000 0.95673  0.18707  0.22487  Biso   1.000  H
  C1375    1.0000 0.00917  0.18938  0.21828  Biso   1.000  C
  H1287    1.0000 0.99903  0.16187  0.21787  Biso   1.000  H
  C1376    1.0000 0.04967  0.21536  0.21471  Biso   1.000  C
  C1377    1.0000 0.06481  0.25641  0.21529  Biso   1.000  C
  H1288    1.0000 0.09193  0.27377  0.21287  Biso   1.000  H
  C1378    1.0000 0.07572  0.19937  0.21060  Biso   1.000  C
  C1379    1.0000 0.04840  0.42515  0.17538  Biso   1.000  C
  H1289    1.0000 0.04883  0.45017  0.17757  Biso   1.000  H
  H1290    1.0000 0.02113  0.40367  0.17737  Biso   1.000  H
  C1380    1.0000 0.03135  0.40948  0.13742  Biso   1.000  C
  C1381    1.0000 0.04149  0.39870  0.11736  Biso   1.000  C
  H1291    1.0000 0.06663  0.40147  0.11557  Biso   1.000  H
  C1382    1.0000 0.01403  0.38380  0.09996  Biso   1.000  C
  H1292    1.0000 0.02083  0.37657  0.08657  Biso   1.000  H
  C1383    1.0000 0.97642  0.37970  0.10261  Biso   1.000  C
  H1293    1.0000 0.95803  0.36977  0.09097  Biso   1.000  H
  C1384    1.0000 0.96628  0.39048  0.12267  Biso   1.000  C
  C1385    1.0000 0.99374  0.40538  0.14007  Biso   1.000  C
  H1294    1.0000 0.98693  0.41257  0.15347  Biso   1.000  H
  C1386    1.0000 0.92648  0.38676  0.12537  Biso   1.000  C
  Mn61     1.0000 0.99032  0.50216  0.30569  Biso   1.000  Mn
  Mn62     1.0000 0.07806  0.52669  0.33818  Biso   1.000  Mn
  Mn63     1.0000 0.14766  0.52672  0.37418  Biso   1.000  Mn
  O401     1.0000 0.99652  0.45526  0.28617  Biso   1.000  O
  O402     1.0000 0.04315  0.48512  0.31020  Biso   1.000  O
  O403     1.0000 0.10056  0.39165  0.31630  Biso   1.000  O
  O404     1.0000 0.13027  0.32179  0.39841  Biso   1.000  O
  O405     1.0000 0.17460  0.35364  0.47813  Biso   1.000  O
  O406     1.0000 0.14037  0.29641  0.49630  Biso   1.000  O
  O407     1.0000 0.26902  0.41156  0.33008  Biso   1.000  O
  O408     1.0000 0.41667  0.50131  0.32567  Biso   1.000  O
  O409     1.0000 0.43708  0.46283  0.31017  Biso   1.000  O
  O410     1.0000 0.13145  0.53557  0.31917  Biso   1.000  O
  O411     1.0000 0.17800  0.54112  0.34176  Biso   1.000  O
  O412     1.0000 0.16710  0.49128  0.24732  Biso   1.000  O
  O413     1.0000 0.05132  0.31022  0.22177  Biso   1.000  O
  O414     1.0000 0.11105  0.22346  0.20427  Biso   1.000  O
  O415     1.0000 0.06595  0.16392  0.21411  Biso   1.000  O
  O416     1.0000 0.06062  0.42388  0.15337  Biso   1.000  O
  O417     1.0000 0.91617  0.39239  0.14404  Biso   1.000  O
  O418     1.0000 0.90399  0.37804  0.10834  Biso   1.000  O
  O419     1.0000 0.93653  0.49677  0.29537  Biso   1.000  O
  O420     1.0000 0.93343  0.50207  0.29827  Biso   1.000  O
  H1295    1.0000 0.91233  0.47547  0.29577  Biso   1.000  H
  H1296    1.0000 0.93613  0.51807  0.28547  Biso   1.000  H
  H1297    1.0000 0.93823  0.52877  0.29917  Biso   1.000  H
  H1298    1.0000 0.91443  0.48607  0.30947  Biso   1.000  H
  H1299    1.0000 0.91733  0.46947  0.29257  Biso   1.000  H
  H1300    1.0000 0.94163  0.51167  0.28177  Biso   1.000  H
  H1301    1.0000 0.93973  0.52287  0.29457  Biso   1.000  H
  H1302    1.0000 0.91533  0.48067  0.30537  Biso   1.000  H
  C1387    1.0000 0.20870  0.90154  0.63004  Biso   1.000  C
  C1388    1.0000 0.23883  0.94321  0.62661  Biso   1.000  C
  C1389    1.0000 0.27102  0.95309  0.61224  Biso   1.000  C
  H1303    1.0000 0.27080  0.93330  0.60330  Biso   1.000  H
  C1390    1.0000 0.30247  0.99080  0.61109  Biso   1.000  C
  H1304    1.0000 0.32370  0.99690  0.60150  Biso   1.000  H
  C1391    1.0000 0.30270  0.01914  0.62384  Biso   1.000  C
  H1305    1.0000 0.32440  0.04490  0.62320  Biso   1.000  H
  C1392    1.0000 0.27072  0.01084  0.63834  Biso   1.000  C
  C1393    1.0000 0.23886  0.97270  0.63968  Biso   1.000  C
  H1306    1.0000 0.21760  0.96680  0.64920  Biso   1.000  H
  C1394    1.0000 0.24459  0.03805  0.66514  Biso   1.000  C
  H1307    1.0000 0.21970  0.02990  0.65730  Biso   1.000  H
  H1308    1.0000 0.24000  0.01800  0.67630  Biso   1.000  H
  C1395    1.0000 0.25958  0.07852  0.67611  Biso   1.000  C
  C1396    1.0000 0.26169  0.10981  0.66369  Biso   1.000  C
  C1397    1.0000 0.28025  0.14741  0.67291  Biso   1.000  C
  C1398    1.0000 0.29290  0.15343  0.69507  Biso   1.000  C
  C1399    1.0000 0.28930  0.12139  0.70729  Biso   1.000  C
  C1400    1.0000 0.27401  0.08303  0.69714  Biso   1.000  C
  C1401    1.0000 0.27436  0.04991  0.71042  Biso   1.000  C
  H1309    1.0000 0.28060  0.03400  0.70070  Biso   1.000  H
  H1310    1.0000 0.29410  0.06130  0.72200  Biso   1.000  H
  H1311    1.0000 0.24850  0.03330  0.71700  Biso   1.000  H
  C1402    1.0000 0.24361  0.10368  0.64030  Biso   1.000  C
  H1312    1.0000 0.21720  0.08080  0.64030  Biso   1.000  H
  H1313    1.0000 0.24230  0.12690  0.63600  Biso   1.000  H
  H1314    1.0000 0.26000  0.09950  0.62990  Biso   1.000  H
  C1403    1.0000 0.31098  0.19414  0.70521  Biso   1.000  C
  H1315    1.0000 0.30270  0.21000  0.69690  Biso   1.000  H
  H1316    1.0000 0.30230  0.19200  0.72040  Biso   1.000  H
  H1317    1.0000 0.33960  0.20660  0.70480  Biso   1.000  H
  C1404    1.0000 0.28741  0.18308  0.65935  Biso   1.000  C
  H1318    1.0000 0.28860  0.17790  0.64360  Biso   1.000  H
  H1319    1.0000 0.31260  0.20610  0.66360  Biso   1.000  H
  C1405    1.0000 0.25876  0.22375  0.65286  Biso   1.000  C
  C1406    1.0000 0.29112  0.24909  0.63956  Biso   1.000  C
  H1320    1.0000 0.31170  0.24370  0.63710  Biso   1.000  H
  C1407    1.0000 0.29274  0.28257  0.62989  Biso   1.000  C
  H1321    1.0000 0.31440  0.29950  0.62100  Biso   1.000  H
  C1408    1.0000 0.26200  0.29072  0.63353  Biso   1.000  C
  H1322    1.0000 0.26310  0.31310  0.62710  Biso   1.000  H
  C1409    1.0000 0.22963  0.26537  0.64683  Biso   1.000  C
  C1410    1.0000 0.22801  0.23189  0.65650  Biso   1.000  C
  H1323    1.0000 0.20640  0.21500  0.66540  Biso   1.000  H
  C1411    1.0000 0.19716  0.27406  0.65066  Biso   1.000  C
  C1412    1.0000 0.30412  0.12785  0.73127  Biso   1.000  C
  H1324    1.0000 0.29020  0.10290  0.73940  Biso   1.000  H
  H1325    1.0000 0.29860  0.14710  0.73850  Biso   1.000  H
  C1413    1.0000 0.36455  0.15491  0.75140  Biso   1.000  C
  C1414    1.0000 0.40542  0.16935  0.75054  Biso   1.000  C
  H1326    1.0000 0.41730  0.16940  0.73700  Biso   1.000  H
  C1415    1.0000 0.42843  0.18354  0.76946  Biso   1.000  C
  H1327    1.0000 0.45590  0.19390  0.76870  Biso   1.000  H
  C1416    1.0000 0.41034  0.18236  0.78994  Biso   1.000  C
  H1328    1.0000 0.42560  0.19090  0.80290  Biso   1.000  H
  C1417    1.0000 0.36989  0.16856  0.79078  Biso   1.000  C
  C1418    1.0000 0.34728  0.15397  0.77136  Biso   1.000  C
  H1329    1.0000 0.31980  0.14340  0.77210  Biso   1.000  H
  C1419    1.0000 0.34978  0.16673  0.81245  Biso   1.000  C
  C1420    1.0000 0.12994  0.95909  0.65658  Biso   1.000  C
  C1421    1.0000 0.13367  0.98526  0.63739  Biso   1.000  C
  C1422    1.0000 0.12062  0.01279  0.63900  Biso   1.000  C
  H1330    1.0000 0.10800  0.01410  0.65200  Biso   1.000  H
  C1423    1.0000 0.12635  0.03831  0.62125  Biso   1.000  C
  H1331    1.0000 0.11760  0.05670  0.62230  Biso   1.000  H
  C1424    1.0000 0.14514  0.03631  0.60188  Biso   1.000  C
  H1332    1.0000 0.14900  0.05340  0.59000  Biso   1.000  H
  C1425    1.0000 0.15819  0.00878  0.60027  Biso   1.000  C
  C1426    1.0000 0.15246  0.98326  0.61803  Biso   1.000  C
  H1333    1.0000 0.16120  0.96490  0.61700  Biso   1.000  H
  C1427    1.0000 0.19668  0.98834  0.58063  Biso   1.000  C
  H1334    1.0000 0.21150  0.99330  0.59450  Biso   1.000  H
  H1335    1.0000 0.17830  0.95990  0.57940  Biso   1.000  H
  C1428    1.0000 0.22549  0.00274  0.56079  Biso   1.000  C
  C1429    1.0000 0.26084  0.03844  0.56208  Biso   1.000  C
  C1430    1.0000 0.28945  0.04809  0.54477  Biso   1.000  C
  C1431    1.0000 0.28217  0.02144  0.52795  Biso   1.000  C
  C1432    1.0000 0.24531  0.98619  0.52596  Biso   1.000  C
  C1433    1.0000 0.21552  0.97743  0.54159  Biso   1.000  C
  C1434    1.0000 0.17443  0.94122  0.53941  Biso   1.000  C
  H1336    1.0000 0.15510  0.94670  0.54610  Biso   1.000  H
  H1337    1.0000 0.16820  0.93500  0.52390  Biso   1.000  H
  H1338    1.0000 0.17390  0.91900  0.54690  Biso   1.000  H
  C1435    1.0000 0.27063  0.06558  0.58094  Biso   1.000  C
  H1339    1.0000 0.28870  0.06270  0.59080  Biso   1.000  H
  H1340    1.0000 0.28300  0.09260  0.57560  Biso   1.000  H
  H1341    1.0000 0.24660  0.05930  0.58890  Biso   1.000  H
  C1436    1.0000 0.31570  0.03076  0.51111  Biso   1.000  C
  H1342    1.0000 0.33990  0.03760  0.51900  Biso   1.000  H
  H1343    1.0000 0.30830  0.00770  0.50190  Biso   1.000  H
  H1344    1.0000 0.31980  0.05280  0.50190  Biso   1.000  H
  C1437    1.0000 0.32833  0.08624  0.54614  Biso   1.000  C
  H1345    1.0000 0.32630  0.10500  0.55600  Biso   1.000  H
  H1346    1.0000 0.33680  0.09840  0.53150  Biso   1.000  H
  C1438    1.0000 0.39519  0.10130  0.55276  Biso   1.000  C
  C1439    1.0000 0.42118  0.08680  0.55634  Biso   1.000  C
  H1347    1.0000 0.41110  0.05970  0.55910  Biso   1.000  H
  C1440    1.0000 0.46223  0.11271  0.55576  Biso   1.000  C
  H1348    1.0000 0.47960  0.10300  0.55820  Biso   1.000  H
  C1441    1.0000 0.47729  0.15313  0.55161  Biso   1.000  C
  H1349    1.0000 0.50480  0.17050  0.55120  Biso   1.000  H
  C1442    1.0000 0.45131  0.16765  0.54804  Biso   1.000  C
  C1443    1.0000 0.41026  0.14174  0.54862  Biso   1.000  C
  H1350    1.0000 0.39290  0.15150  0.54620  Biso   1.000  H
  C1444    1.0000 0.46730  0.20969  0.54393  Biso   1.000  C
  C1445    1.0000 0.24152  0.95659  0.50871  Biso   1.000  C
  H1351    1.0000 0.21650  0.93200  0.51090  Biso   1.000  H
  H1352    1.0000 0.26300  0.95080  0.51070  Biso   1.000  H
  C1446    1.0000 0.25719  0.95521  0.47075  Biso   1.000  C
  C1447    1.0000 0.26797  0.97613  0.45069  Biso   1.000  C
  H1353    1.0000 0.26520  0.99850  0.44890  Biso   1.000  H
  C1448    1.0000 0.28287  0.96357  0.43329  Biso   1.000  C
  H1354    1.0000 0.29010  0.97760  0.41990  Biso   1.000  H
  C1449    1.0000 0.28697  0.93006  0.43594  Biso   1.000  C
  H1355    1.0000 0.29690  0.92160  0.42430  Biso   1.000  H
  C1450    1.0000 0.27619  0.90914  0.45600  Biso   1.000  C
  C1451    1.0000 0.26129  0.92170  0.47340  Biso   1.000  C
  H1356    1.0000 0.25410  0.90770  0.48680  Biso   1.000  H
  C1452    1.0000 0.27991  0.87306  0.45870  Biso   1.000  C
  Mn64     1.0000 0.16450  0.82149  0.63902  Biso   1.000  Mn
  Mn65     1.0000 0.13998  0.88471  0.67152  Biso   1.000  Mn
  Mn66     1.0000 0.13994  0.95427  0.70752  Biso   1.000  Mn
  O421     1.0000 0.21141  0.87460  0.61950  Biso   1.000  O
  O422     1.0000 0.18155  0.89137  0.64353  Biso   1.000  O
  O423     1.0000 0.27502  0.04225  0.64963  Biso   1.000  O
  O424     1.0000 0.34488  0.14182  0.73174  Biso   1.000  O
  O425     1.0000 0.31303  0.15430  0.81146  Biso   1.000  O
  O426     1.0000 0.37026  0.17730  0.82963  Biso   1.000  O
  O427     1.0000 0.25511  0.19080  0.66341  Biso   1.000  O
  O428     1.0000 0.16536  0.24870  0.65900  Biso   1.000  O
  O429     1.0000 0.20384  0.30759  0.64350  Biso   1.000  O
  O430     1.0000 0.13110  0.92922  0.65250  Biso   1.000  O
  O431     1.0000 0.12555  0.97022  0.67509  Biso   1.000  O
  O432     1.0000 0.17539  0.00916  0.58065  Biso   1.000  O
  O433     1.0000 0.35645  0.07444  0.55510  Biso   1.000  O
  O434     1.0000 0.44321  0.22093  0.53760  Biso   1.000  O
  O435     1.0000 0.50275  0.23537  0.54744  Biso   1.000  O
  O436     1.0000 0.24279  0.97008  0.48670  Biso   1.000  O
  O437     1.0000 0.27428  0.85712  0.47737  Biso   1.000  O
  O438     1.0000 0.28863  0.85929  0.44167  Biso   1.000  O
  O439     1.0000 0.16990  0.77310  0.62870  Biso   1.000  O
  O440     1.0000 0.16460  0.76470  0.63160  Biso   1.000  O
  H1357    1.0000 0.19120  0.77020  0.62910  Biso   1.000  H
  H1358    1.0000 0.14860  0.75140  0.61880  Biso   1.000  H
  H1359    1.0000 0.13790  0.74280  0.63250  Biso   1.000  H
  H1360    1.0000 0.18060  0.76170  0.64280  Biso   1.000  H
  H1361    1.0000 0.19720  0.78120  0.62590  Biso   1.000  H
  H1362    1.0000 0.15500  0.76330  0.61510  Biso   1.000  H
  H1363    1.0000 0.14380  0.75020  0.62790  Biso   1.000  H
  H1364    1.0000 0.18600  0.76800  0.63870  Biso   1.000  H
  C1453    1.0000 0.87537  0.23487  0.96337  Biso   1.000  C
  C1454    1.0000 0.90550  0.27654  0.95994  Biso   1.000  C
  C1455    1.0000 0.93769  0.28642  0.94557  Biso   1.000  C
  H1365    1.0000 0.93747  0.26663  0.93663  Biso   1.000  H
  C1456    1.0000 0.96914  0.32413  0.94442  Biso   1.000  C
  H1366    1.0000 0.99037  0.33023  0.93483  Biso   1.000  H
  C1457    1.0000 0.96937  0.35247  0.95717  Biso   1.000  C
  H1367    1.0000 0.99107  0.37823  0.95653  Biso   1.000  H
  C1458    1.0000 0.93739  0.34417  0.97167  Biso   1.000  C
  C1459    1.0000 0.90553  0.30603  0.97301  Biso   1.000  C
  H1368    1.0000 0.88427  0.30013  0.98253  Biso   1.000  H
  C1460    1.0000 0.91126  0.37138  0.99847  Biso   1.000  C
  H1369    1.0000 0.88637  0.36323  0.99063  Biso   1.000  H
  H1370    1.0000 0.90667  0.35133  0.00963  Biso   1.000  H
  C1461    1.0000 0.92625  0.41185  0.00944  Biso   1.000  C
  C1462    1.0000 0.92836  0.44314  0.99702  Biso   1.000  C
  C1463    1.0000 0.94692  0.48074  0.00624  Biso   1.000  C
  C1464    1.0000 0.95957  0.48676  0.02840  Biso   1.000  C
  C1465    1.0000 0.95597  0.45472  0.04062  Biso   1.000  C
  C1466    1.0000 0.94068  0.41636  0.03047  Biso   1.000  C
  C1467    1.0000 0.94103  0.38324  0.04375  Biso   1.000  C
  H1371    1.0000 0.94727  0.36733  0.03403  Biso   1.000  H
  H1372    1.0000 0.96077  0.39463  0.05533  Biso   1.000  H
  H1373    1.0000 0.91517  0.36663  0.05033  Biso   1.000  H
  C1468    1.0000 0.91028  0.43701  0.97363  Biso   1.000  C
  H1374    1.0000 0.88387  0.41413  0.97363  Biso   1.000  H
  H1375    1.0000 0.90897  0.46023  0.96933  Biso   1.000  H
  H1376    1.0000 0.92667  0.43283  0.96323  Biso   1.000  H
  C1469    1.0000 0.97765  0.52747  0.03854  Biso   1.000  C
  H1377    1.0000 0.96937  0.54333  0.03023  Biso   1.000  H
  H1378    1.0000 0.96897  0.52533  0.05373  Biso   1.000  H
  H1379    1.0000 0.00627  0.53993  0.03813  Biso   1.000  H
  C1470    1.0000 0.95408  0.51641  0.99268  Biso   1.000  C
  H1380    1.0000 0.95527  0.51123  0.97693  Biso   1.000  H
  H1381    1.0000 0.97927  0.53943  0.99693  Biso   1.000  H
  C1471    1.0000 0.92543  0.55708  0.98619  Biso   1.000  C
  C1472    1.0000 0.95779  0.58242  0.97289  Biso   1.000  C
  H1382    1.0000 0.97837  0.57703  0.97043  Biso   1.000  H
  C1473    1.0000 0.95941  0.61590  0.96322  Biso   1.000  C
  H1383    1.0000 0.98107  0.63283  0.95433  Biso   1.000  H
  C1474    1.0000 0.92867  0.62405  0.96686  Biso   1.000  C
  H1384    1.0000 0.92977  0.64643  0.96043  Biso   1.000  H
  C1475    1.0000 0.89630  0.59870  0.98016  Biso   1.000  C
  C1476    1.0000 0.89468  0.56522  0.98983  Biso   1.000  C
  H1385    1.0000 0.87307  0.54833  0.99873  Biso   1.000  H
  C1477    1.0000 0.86383  0.60739  0.98399  Biso   1.000  C
  C1478    1.0000 0.97079  0.46118  0.06460  Biso   1.000  C
  H1386    1.0000 0.95687  0.43623  0.07273  Biso   1.000  H
  H1387    1.0000 0.96527  0.48043  0.07183  Biso   1.000  H
  C1479    1.0000 0.03122  0.48824  0.08473  Biso   1.000  C
  C1480    1.0000 0.07209  0.50268  0.08387  Biso   1.000  C
  H1388    1.0000 0.08397  0.50273  0.07033  Biso   1.000  H
  C1481    1.0000 0.09510  0.51687  0.10279  Biso   1.000  C
  H1389    1.0000 0.12257  0.52723  0.10203  Biso   1.000  H
  C1482    1.0000 0.07701  0.51569  0.12327  Biso   1.000  C
  H1390    1.0000 0.09227  0.52423  0.13623  Biso   1.000  H
  C1483    1.0000 0.03656  0.50189  0.12411  Biso   1.000  C
  C1484    1.0000 0.01395  0.48730  0.10469  Biso   1.000  C
  H1391    1.0000 0.98647  0.47673  0.10543  Biso   1.000  H
  C1485    1.0000 0.01645  0.50006  0.14578  Biso   1.000  C
  C1486    1.0000 0.79661  0.29242  0.98991  Biso   1.000  C
  C1487    1.0000 0.80034  0.31859  0.97072  Biso   1.000  C
  C1488    1.0000 0.78729  0.34612  0.97233  Biso   1.000  C
  H1392    1.0000 0.77467  0.34743  0.98533  Biso   1.000  H
  C1489    1.0000 0.79302  0.37164  0.95458  Biso   1.000  C
  H1393    1.0000 0.78427  0.39003  0.95563  Biso   1.000  H
  C1490    1.0000 0.81181  0.36964  0.93521  Biso   1.000  C
  H1394    1.0000 0.81567  0.38673  0.92333  Biso   1.000  H
  C1491    1.0000 0.82486  0.34211  0.93360  Biso   1.000  C
  C1492    1.0000 0.81913  0.31659  0.95136  Biso   1.000  C
  H1395    1.0000 0.82787  0.29823  0.95033  Biso   1.000  H
  C1493    1.0000 0.86335  0.32167  0.91396  Biso   1.000  C
  H1396    1.0000 0.87817  0.32663  0.92783  Biso   1.000  H
  H1397    1.0000 0.84497  0.29323  0.91273  Biso   1.000  H
  C1494    1.0000 0.89216  0.33607  0.89412  Biso   1.000  C
  C1495    1.0000 0.92751  0.37177  0.89541  Biso   1.000  C
  C1496    1.0000 0.95612  0.38142  0.87810  Biso   1.000  C
  C1497    1.0000 0.94884  0.35477  0.86128  Biso   1.000  C
  C1498    1.0000 0.91198  0.31952  0.85929  Biso   1.000  C
  C1499    1.0000 0.88219  0.31076  0.87492  Biso   1.000  C
  C1500    1.0000 0.84110  0.27455  0.87274  Biso   1.000  C
  H1398    1.0000 0.82177  0.28003  0.87943  Biso   1.000  H
  H1399    1.0000 0.83487  0.26833  0.85723  Biso   1.000  H
  H1400    1.0000 0.84057  0.25233  0.88023  Biso   1.000  H
  C1501    1.0000 0.93730  0.39891  0.91427  Biso   1.000  C
  H1401    1.0000 0.95537  0.39603  0.92413  Biso   1.000  H
  H1402    1.0000 0.94967  0.42593  0.90893  Biso   1.000  H
  H1403    1.0000 0.91327  0.39263  0.92223  Biso   1.000  H
  C1502    1.0000 0.98237  0.36409  0.84444  Biso   1.000  C
  H1404    1.0000 0.00657  0.37093  0.85233  Biso   1.000  H
  H1405    1.0000 0.97497  0.34103  0.83523  Biso   1.000  H
  H1406    1.0000 0.98647  0.38613  0.83523  Biso   1.000  H
  C1503    1.0000 0.99500  0.41957  0.87947  Biso   1.000  C
  H1407    1.0000 0.99297  0.43833  0.88933  Biso   1.000  H
  H1408    1.0000 0.00347  0.43173  0.86483  Biso   1.000  H
  C1504    1.0000 0.06186  0.43463  0.88609  Biso   1.000  C
  C1505    1.0000 0.08785  0.42013  0.88967  Biso   1.000  C
  H1409    1.0000 0.07777  0.39303  0.89243  Biso   1.000  H
  C1506    1.0000 0.12890  0.44604  0.88909  Biso   1.000  C
  H1410    1.0000 0.14627  0.43633  0.89153  Biso   1.000  H
  C1507    1.0000 0.14396  0.48646  0.88494  Biso   1.000  C
  H1411    1.0000 0.17147  0.50383  0.88453  Biso   1.000  H
  C1508    1.0000 0.11798  0.50098  0.88137  Biso   1.000  C
  C1509    1.0000 0.07693  0.47507  0.88195  Biso   1.000  C
  H1412    1.0000 0.05957  0.48483  0.87953  Biso   1.000  H
  C1510    1.0000 0.13397  0.54302  0.87726  Biso   1.000  C
  C1511    1.0000 0.90819  0.28992  0.84204  Biso   1.000  C
  H1413    1.0000 0.88317  0.26533  0.84423  Biso   1.000  H
  H1414    1.0000 0.92967  0.28413  0.84403  Biso   1.000  H
  C1512    1.0000 0.92386  0.28854  0.80408  Biso   1.000  C
  C1513    1.0000 0.93464  0.30946  0.78402  Biso   1.000  C
  H1415    1.0000 0.93187  0.33183  0.78223  Biso   1.000  H
  C1514    1.0000 0.94954  0.29690  0.76662  Biso   1.000  C
  H1416    1.0000 0.95677  0.31093  0.75323  Biso   1.000  H
  C1515    1.0000 0.95364  0.26339  0.76927  Biso   1.000  C
  H1417    1.0000 0.96357  0.25493  0.75763  Biso   1.000  H
  C1516    1.0000 0.94286  0.24247  0.78933  Biso   1.000  C
  C1517    1.0000 0.92796  0.25503  0.80673  Biso   1.000  C
  H1418    1.0000 0.92077  0.24103  0.82013  Biso   1.000  H
  C1518    1.0000 0.94658  0.20639  0.79203  Biso   1.000  C
  Mn67     1.0000 0.83117  0.15482  0.97235  Biso   1.000  Mn
  Mn68     1.0000 0.80665  0.21804  0.00485  Biso   1.000  Mn
  Mn69     1.0000 0.80661  0.28761  0.04085  Biso   1.000  Mn
  O441     1.0000 0.87808  0.20793  0.95283  Biso   1.000  O
  O442     1.0000 0.84822  0.22470  0.97686  Biso   1.000  O
  O443     1.0000 0.94169  0.37558  0.98296  Biso   1.000  O
  O444     1.0000 0.01155  0.47515  0.06507  Biso   1.000  O
  O445     1.0000 0.97970  0.48763  0.14479  Biso   1.000  O
  O446     1.0000 0.03693  0.51063  0.16296  Biso   1.000  O
  O447     1.0000 0.92178  0.52413  0.99674  Biso   1.000  O
  O448     1.0000 0.83203  0.58203  0.99233  Biso   1.000  O
  O449     1.0000 0.87051  0.64092  0.97683  Biso   1.000  O
  O450     1.0000 0.79777  0.26255  0.98583  Biso   1.000  O
  O451     1.0000 0.79222  0.30355  0.00842  Biso   1.000  O
  O452     1.0000 0.84206  0.34249  0.91398  Biso   1.000  O
  O453     1.0000 0.02312  0.40777  0.88843  Biso   1.000  O
  O454     1.0000 0.10988  0.55426  0.87093  Biso   1.000  O
  O455     1.0000 0.16942  0.56870  0.88077  Biso   1.000  O
  O456     1.0000 0.90946  0.30341  0.82003  Biso   1.000  O
  O457     1.0000 0.94095  0.19045  0.81070  Biso   1.000  O
  O458     1.0000 0.95530  0.19262  0.77500  Biso   1.000  O
  O459     1.0000 0.83657  0.10643  0.96203  Biso   1.000  O
  O460     1.0000 0.83127  0.09803  0.96493  Biso   1.000  O
  H1419    1.0000 0.85787  0.10353  0.96243  Biso   1.000  H
  H1420    1.0000 0.81527  0.08473  0.95213  Biso   1.000  H
  H1421    1.0000 0.80457  0.07613  0.96583  Biso   1.000  H
  H1422    1.0000 0.84727  0.09503  0.97613  Biso   1.000  H
  H1423    1.0000 0.86387  0.11453  0.95923  Biso   1.000  H
  H1424    1.0000 0.82167  0.09663  0.94843  Biso   1.000  H
  H1425    1.0000 0.81047  0.08353  0.96123  Biso   1.000  H
  H1426    1.0000 0.85267  0.10133  0.97203  Biso   1.000  H
  C1519    1.0000 0.54203  0.56821  0.29671  Biso   1.000  C
  C1520    1.0000 0.57216  0.60988  0.29328  Biso   1.000  C
  C1521    1.0000 0.60435  0.61976  0.27891  Biso   1.000  C
  H1427    1.0000 0.60413  0.59997  0.26997  Biso   1.000  H
  C1522    1.0000 0.63580  0.65747  0.27776  Biso   1.000  C
  H1428    1.0000 0.65703  0.66357  0.26817  Biso   1.000  H
  C1523    1.0000 0.63603  0.68581  0.29051  Biso   1.000  C
  H1429    1.0000 0.65773  0.71157  0.28987  Biso   1.000  H
  C1524    1.0000 0.60405  0.67751  0.30501  Biso   1.000  C
  C1525    1.0000 0.57219  0.63937  0.30635  Biso   1.000  C
  H1430    1.0000 0.55093  0.63347  0.31587  Biso   1.000  H
  C1526    1.0000 0.57792  0.70472  0.33181  Biso   1.000  C
  H1431    1.0000 0.55303  0.69657  0.32397  Biso   1.000  H
  H1432    1.0000 0.57333  0.68467  0.34297  Biso   1.000  H
  C1527    1.0000 0.59291  0.74519  0.34278  Biso   1.000  C
  C1528    1.0000 0.59502  0.77648  0.33036  Biso   1.000  C
  C1529    1.0000 0.61358  0.81408  0.33958  Biso   1.000  C
  C1530    1.0000 0.62623  0.82010  0.36174  Biso   1.000  C
  C1531    1.0000 0.62263  0.78806  0.37396  Biso   1.000  C
  C1532    1.0000 0.60734  0.74970  0.36381  Biso   1.000  C
  C1533    1.0000 0.60769  0.71658  0.37709  Biso   1.000  C
  H1433    1.0000 0.61393  0.70067  0.36737  Biso   1.000  H
  H1434    1.0000 0.62743  0.72797  0.38867  Biso   1.000  H
  H1435    1.0000 0.58183  0.69997  0.38367  Biso   1.000  H
  C1534    1.0000 0.57694  0.77035  0.30697  Biso   1.000  C
  H1436    1.0000 0.55053  0.74747  0.30697  Biso   1.000  H
  H1437    1.0000 0.57563  0.79357  0.30267  Biso   1.000  H
  H1438    1.0000 0.59333  0.76617  0.29657  Biso   1.000  H
  C1535    1.0000 0.64431  0.86081  0.37188  Biso   1.000  C
  H1439    1.0000 0.63603  0.87667  0.36357  Biso   1.000  H
  H1440    1.0000 0.63563  0.85867  0.38707  Biso   1.000  H
  H1441    1.0000 0.67293  0.87327  0.37147  Biso   1.000  H
  C1536    1.0000 0.62074  0.84975  0.32602  Biso   1.000  C
  H1442    1.0000 0.62193  0.84457  0.31027  Biso   1.000  H
  H1443    1.0000 0.64593  0.87277  0.33027  Biso   1.000  H
  C1537    1.0000 0.59209  0.89042  0.31953  Biso   1.000  C
  C1538    1.0000 0.62445  0.91576  0.30623  Biso   1.000  C
  H1444    1.0000 0.64503  0.91037  0.30377  Biso   1.000  H
  C1539    1.0000 0.62607  0.94924  0.29656  Biso   1.000  C
  H1445    1.0000 0.64773  0.96617  0.28767  Biso   1.000  H
  C1540    1.0000 0.59533  0.95739  0.30020  Biso   1.000  C
  H1446    1.0000 0.59643  0.97977  0.29377  Biso   1.000  H
  C1541    1.0000 0.56296  0.93204  0.31350  Biso   1.000  C
  C1542    1.0000 0.56134  0.89856  0.32317  Biso   1.000  C
  H1447    1.0000 0.53973  0.88167  0.33207  Biso   1.000  H
  C1543    1.0000 0.53049  0.94073  0.31733  Biso   1.000  C
  C1544    1.0000 0.63745  0.79452  0.39794  Biso   1.000  C
  H1448    1.0000 0.62353  0.76957  0.40607  Biso   1.000  H
  H1449    1.0000 0.63193  0.81377  0.40517  Biso   1.000  H
  C1545    1.0000 0.69788  0.82158  0.41807  Biso   1.000  C
  C1546    1.0000 0.73875  0.83602  0.41721  Biso   1.000  C
  H1450    1.0000 0.75063  0.83607  0.40367  Biso   1.000  H
  C1547    1.0000 0.76176  0.85021  0.43613  Biso   1.000  C
  H1451    1.0000 0.78923  0.86057  0.43537  Biso   1.000  H
  C1548    1.0000 0.74367  0.84903  0.45661  Biso   1.000  C
  H1452    1.0000 0.75893  0.85757  0.46957  Biso   1.000  H
  C1549    1.0000 0.70322  0.83523  0.45745  Biso   1.000  C
  C1550    1.0000 0.68061  0.82064  0.43803  Biso   1.000  C
  H1453    1.0000 0.65313  0.81007  0.43877  Biso   1.000  H
  C1551    1.0000 0.68311  0.83340  0.47912  Biso   1.000  C
  C1552    1.0000 0.46327  0.62576  0.32325  Biso   1.000  C
  C1553    1.0000 0.46700  0.65193  0.30406  Biso   1.000  C
  C1554    1.0000 0.45395  0.67946  0.30567  Biso   1.000  C
  H1454    1.0000 0.44133  0.68077  0.31867  Biso   1.000  H
  C1555    1.0000 0.45968  0.70498  0.28792  Biso   1.000  C
  H1455    1.0000 0.45093  0.72337  0.28897  Biso   1.000  H
  C1556    1.0000 0.47847  0.70298  0.26855  Biso   1.000  C
  H1456    1.0000 0.48233  0.72007  0.25667  Biso   1.000  H
  C1557    1.0000 0.49152  0.67545  0.26694  Biso   1.000  C
  C1558    1.0000 0.48579  0.64993  0.28470  Biso   1.000  C
  H1457    1.0000 0.49453  0.63157  0.28367  Biso   1.000  H
  C1559    1.0000 0.53001  0.65501  0.24730  Biso   1.000  C
  H1458    1.0000 0.54483  0.65997  0.26117  Biso   1.000  H
  H1459    1.0000 0.51163  0.62657  0.24607  Biso   1.000  H
  C1560    1.0000 0.55882  0.66941  0.22746  Biso   1.000  C
  C1561    1.0000 0.59417  0.70511  0.22875  Biso   1.000  C
  C1562    1.0000 0.62278  0.71476  0.21144  Biso   1.000  C
  C1563    1.0000 0.61550  0.68811  0.19462  Biso   1.000  C
  C1564    1.0000 0.57864  0.65286  0.19263  Biso   1.000  C
  C1565    1.0000 0.54885  0.64410  0.20826  Biso   1.000  C
  C1566    1.0000 0.50776  0.60789  0.20608  Biso   1.000  C
  H1460    1.0000 0.48843  0.61337  0.21277  Biso   1.000  H
  H1461    1.0000 0.50153  0.60167  0.19057  Biso   1.000  H
  H1462    1.0000 0.50723  0.58567  0.21357  Biso   1.000  H
  C1567    1.0000 0.60396  0.73225  0.24761  Biso   1.000  C
  H1463    1.0000 0.62203  0.72937  0.25747  Biso   1.000  H
  H1464    1.0000 0.61633  0.75927  0.24227  Biso   1.000  H
  H1465    1.0000 0.57993  0.72597  0.25557  Biso   1.000  H
  C1568    1.0000 0.64903  0.69743  0.17778  Biso   1.000  C
  H1466    1.0000 0.67323  0.70427  0.18567  Biso   1.000  H
  H1467    1.0000 0.64163  0.67437  0.16857  Biso   1.000  H
  H1468    1.0000 0.65313  0.71947  0.16857  Biso   1.000  H
  C1569    1.0000 0.66166  0.75291  0.21281  Biso   1.000  C
  H1469    1.0000 0.65963  0.77167  0.22267  Biso   1.000  H
  H1470    1.0000 0.67013  0.76507  0.19817  Biso   1.000  H
  C1570    1.0000 0.72852  0.76797  0.21943  Biso   1.000  C
  C1571    1.0000 0.75451  0.75347  0.22301  Biso   1.000  C
  H1471    1.0000 0.74443  0.72637  0.22577  Biso   1.000  H
  C1572    1.0000 0.79556  0.77938  0.22243  Biso   1.000  C
  H1472    1.0000 0.81293  0.76967  0.22487  Biso   1.000  H
  C1573    1.0000 0.81062  0.81980  0.21828  Biso   1.000  C
  H1473    1.0000 0.83813  0.83717  0.21787  Biso   1.000  H
  C1574    1.0000 0.78464  0.83432  0.21471  Biso   1.000  C
  C1575    1.0000 0.74359  0.80841  0.21529  Biso   1.000  C
  H1474    1.0000 0.72623  0.81817  0.21287  Biso   1.000  H
  C1576    1.0000 0.80063  0.87636  0.21060  Biso   1.000  C
  C1577    1.0000 0.57485  0.62326  0.17538  Biso   1.000  C
  H1475    1.0000 0.54983  0.59867  0.17757  Biso   1.000  H
  H1476    1.0000 0.59633  0.61747  0.17737  Biso   1.000  H
  C1578    1.0000 0.59052  0.62188  0.13742  Biso   1.000  C
  C1579    1.0000 0.60130  0.64280  0.11736  Biso   1.000  C
  H1477    1.0000 0.59853  0.66517  0.11557  Biso   1.000  H
  C1580    1.0000 0.61620  0.63024  0.09996  Biso   1.000  C
  H1478    1.0000 0.62343  0.64427  0.08657  Biso   1.000  H
  C1581    1.0000 0.62030  0.59673  0.10261  Biso   1.000  C
  H1479    1.0000 0.63023  0.58827  0.09097  Biso   1.000  H
  C1582    1.0000 0.60952  0.57581  0.12267  Biso   1.000  C
  C1583    1.0000 0.59462  0.58837  0.14007  Biso   1.000  C
  H1480    1.0000 0.58743  0.57437  0.15347  Biso   1.000  H
  C1584    1.0000 0.61324  0.53973  0.12537  Biso   1.000  C
  Mn70     1.0000 0.49784  0.48815  0.30569  Biso   1.000  Mn
  Mn71     1.0000 0.47331  0.55137  0.33818  Biso   1.000  Mn
  Mn72     1.0000 0.47328  0.62094  0.37418  Biso   1.000  Mn
  O461     1.0000 0.54474  0.54127  0.28617  Biso   1.000  O
  O462     1.0000 0.51488  0.55804  0.31020  Biso   1.000  O
  O463     1.0000 0.60835  0.70892  0.31630  Biso   1.000  O
  O464     1.0000 0.67821  0.80849  0.39841  Biso   1.000  O
  O465     1.0000 0.64636  0.82097  0.47813  Biso   1.000  O
  O466     1.0000 0.70359  0.84397  0.49630  Biso   1.000  O
  O467     1.0000 0.58844  0.85747  0.33008  Biso   1.000  O
  O468     1.0000 0.49869  0.91537  0.32567  Biso   1.000  O
  O469     1.0000 0.53717  0.97426  0.31017  Biso   1.000  O
  O470     1.0000 0.46443  0.59589  0.31917  Biso   1.000  O
  O471     1.0000 0.45888  0.63689  0.34176  Biso   1.000  O
  O472     1.0000 0.50872  0.67583  0.24732  Biso   1.000  O
  O473     1.0000 0.68978  0.74111  0.22177  Biso   1.000  O
  O474     1.0000 0.77654  0.88760  0.20427  Biso   1.000  O
  O475     1.0000 0.83608  0.90204  0.21411  Biso   1.000  O
  O476     1.0000 0.57612  0.63675  0.15337  Biso   1.000  O
  O477     1.0000 0.60761  0.52379  0.14404  Biso   1.000  O
  O478     1.0000 0.62196  0.52596  0.10834  Biso   1.000  O
  O479     1.0000 0.50323  0.43977  0.29537  Biso   1.000  O
  O480     1.0000 0.49793  0.43137  0.29827  Biso   1.000  O
  H1481    1.0000 0.52453  0.43687  0.29577  Biso   1.000  H
  H1482    1.0000 0.48193  0.41807  0.28547  Biso   1.000  H
  H1483    1.0000 0.47123  0.40947  0.29917  Biso   1.000  H
  H1484    1.0000 0.51393  0.42837  0.30947  Biso   1.000  H
  H1485    1.0000 0.53053  0.44787  0.29257  Biso   1.000  H
  H1486    1.0000 0.48833  0.42997  0.28177  Biso   1.000  H
  H1487    1.0000 0.47713  0.41687  0.29457  Biso   1.000  H
  H1488    1.0000 0.51933  0.43467  0.30537  Biso   1.000  H
  C1585    1.0000 0.09846  0.30716  0.63004  Biso   1.000  C
  C1586    1.0000 0.05679  0.29562  0.62661  Biso   1.000  C
  C1587    1.0000 0.04691  0.31793  0.61224  Biso   1.000  C
  H1489    1.0000 0.06670  0.33750  0.60330  Biso   1.000  H
  C1588    1.0000 0.00920  0.31167  0.61109  Biso   1.000  C
  H1490    1.0000 0.00310  0.32680  0.60150  Biso   1.000  H
  C1589    1.0000 0.98086  0.28356  0.62384  Biso   1.000  C
  H1491    1.0000 0.95510  0.27950  0.62320  Biso   1.000  H
  C1590    1.0000 0.98916  0.25988  0.63834  Biso   1.000  C
  C1591    1.0000 0.02730  0.26616  0.63968  Biso   1.000  C
  H1492    1.0000 0.03320  0.25080  0.64920  Biso   1.000  H
  C1592    1.0000 0.96195  0.20654  0.66514  Biso   1.000  C
  H1493    1.0000 0.97010  0.18980  0.65730  Biso   1.000  H
  H1494    1.0000 0.98200  0.22200  0.67630  Biso   1.000  H
  C1593    1.0000 0.92148  0.18106  0.67611  Biso   1.000  C
  C1594    1.0000 0.89019  0.15188  0.66369  Biso   1.000  C
  C1595    1.0000 0.85259  0.13284  0.67291  Biso   1.000  C
  C1596    1.0000 0.84657  0.13947  0.69507  Biso   1.000  C
  C1597    1.0000 0.87861  0.16791  0.70729  Biso   1.000  C
  C1598    1.0000 0.91697  0.19098  0.69714  Biso   1.000  C
  C1599    1.0000 0.95009  0.22445  0.71042  Biso   1.000  C
  H1495    1.0000 0.96600  0.24660  0.70070  Biso   1.000  H
  H1496    1.0000 0.93870  0.23280  0.72200  Biso   1.000  H
  H1497    1.0000 0.96670  0.21520  0.71700  Biso   1.000  H
  C1600    1.0000 0.89632  0.13993  0.64030  Biso   1.000  C
  H1498    1.0000 0.91920  0.13640  0.64030  Biso   1.000  H
  H1499    1.0000 0.87310  0.11540  0.63600  Biso   1.000  H
  H1500    1.0000 0.90050  0.16050  0.62990  Biso   1.000  H
  C1601    1.0000 0.80586  0.11684  0.70521  Biso   1.000  C
  H1501    1.0000 0.79000  0.09270  0.69690  Biso   1.000  H
  H1502    1.0000 0.80800  0.11030  0.72040  Biso   1.000  H
  H1503    1.0000 0.79340  0.13300  0.70480  Biso   1.000  H
  C1602    1.0000 0.81692  0.10433  0.65935  Biso   1.000  C
  H1504    1.0000 0.82210  0.11070  0.64360  Biso   1.000  H
  H1505    1.0000 0.79390  0.10650  0.66360  Biso   1.000  H
  C1603    1.0000 0.77625  0.03501  0.65286  Biso   1.000  C
  C1604    1.0000 0.75091  0.04203  0.63956  Biso   1.000  C
  H1506    1.0000 0.75630  0.06800  0.63710  Biso   1.000  H
  C1605    1.0000 0.71743  0.01017  0.62989  Biso   1.000  C
  H1507    1.0000 0.70050  0.01490  0.62100  Biso   1.000  H
  C1606    1.0000 0.70928  0.97128  0.63353  Biso   1.000  C
  H1508    1.0000 0.68690  0.95000  0.62710  Biso   1.000  H
  C1607    1.0000 0.73463  0.96426  0.64683  Biso   1.000  C
  C1608    1.0000 0.76811  0.99612  0.65650  Biso   1.000  C
  H1509    1.0000 0.78500  0.99140  0.66540  Biso   1.000  H
  C1609    1.0000 0.72594  0.92310  0.65066  Biso   1.000  C
  C1610    1.0000 0.87215  0.17627  0.73127  Biso   1.000  C
  H1510    1.0000 0.89710  0.18730  0.73940  Biso   1.000  H
  H1511    1.0000 0.85290  0.15150  0.73850  Biso   1.000  H
  C1611    1.0000 0.84509  0.20964  0.75140  Biso   1.000  C
  C1612    1.0000 0.83065  0.23607  0.75054  Biso   1.000  C
  H1512    1.0000 0.83060  0.24790  0.73700  Biso   1.000  H
  C1613    1.0000 0.81646  0.24489  0.76946  Biso   1.000  C
  H1513    1.0000 0.80610  0.26200  0.76870  Biso   1.000  H
  C1614    1.0000 0.81764  0.22798  0.78994  Biso   1.000  C
  H1514    1.0000 0.80910  0.23470  0.80290  Biso   1.000  H
  C1615    1.0000 0.83144  0.20133  0.79078  Biso   1.000  C
  C1616    1.0000 0.84603  0.19331  0.77136  Biso   1.000  C
  H1515    1.0000 0.85660  0.17640  0.77210  Biso   1.000  H
  C1617    1.0000 0.83327  0.18305  0.81245  Biso   1.000  C
  C1618    1.0000 0.04091  0.17085  0.65658  Biso   1.000  C
  C1619    1.0000 0.01474  0.14841  0.63739  Biso   1.000  C
  C1620    1.0000 0.98721  0.10783  0.63900  Biso   1.000  C
  H1516    1.0000 0.98590  0.09390  0.65200  Biso   1.000  H
  C1621    1.0000 0.96169  0.08804  0.62125  Biso   1.000  C
  H1517    1.0000 0.94330  0.06090  0.62230  Biso   1.000  H
  C1622    1.0000 0.96369  0.10883  0.60188  Biso   1.000  C
  H1518    1.0000 0.94660  0.09560  0.59000  Biso   1.000  H
  C1623    1.0000 0.99122  0.14941  0.60027  Biso   1.000  C
  C1624    1.0000 0.01674  0.16920  0.61803  Biso   1.000  C
  H1519    1.0000 0.03510  0.19630  0.61700  Biso   1.000  H
  C1625    1.0000 0.01166  0.20834  0.58063  Biso   1.000  C
  H1520    1.0000 0.00670  0.21820  0.59450  Biso   1.000  H
  H1521    1.0000 0.04010  0.21840  0.57940  Biso   1.000  H
  C1626    1.0000 0.99726  0.22275  0.56079  Biso   1.000  C
  C1627    1.0000 0.96156  0.22240  0.56208  Biso   1.000  C
  C1628    1.0000 0.95191  0.24136  0.54477  Biso   1.000  C
  C1629    1.0000 0.97856  0.26073  0.52795  Biso   1.000  C
  C1630    1.0000 0.01381  0.25912  0.52596  Biso   1.000  C
  C1631    1.0000 0.02257  0.23809  0.54159  Biso   1.000  C
  C1632    1.0000 0.05878  0.23321  0.53941  Biso   1.000  C
  H1522    1.0000 0.05330  0.20840  0.54610  Biso   1.000  H
  H1523    1.0000 0.06500  0.23320  0.52390  Biso   1.000  H
  H1524    1.0000 0.08100  0.25490  0.54690  Biso   1.000  H
  C1633    1.0000 0.93442  0.20505  0.58094  Biso   1.000  C
  H1525    1.0000 0.93730  0.22600  0.59080  Biso   1.000  H
  H1526    1.0000 0.90740  0.19040  0.57560  Biso   1.000  H
  H1527    1.0000 0.94070  0.18730  0.58890  Biso   1.000  H
  C1634    1.0000 0.96924  0.28494  0.51111  Biso   1.000  C
  H1528    1.0000 0.96240  0.30230  0.51900  Biso   1.000  H
  H1529    1.0000 0.99230  0.30060  0.50190  Biso   1.000  H
  H1530    1.0000 0.94720  0.26700  0.50190  Biso   1.000  H
  C1635    1.0000 0.91376  0.24209  0.54614  Biso   1.000  C
  H1531    1.0000 0.89500  0.22130  0.55600  Biso   1.000  H
  H1532    1.0000 0.90160  0.23840  0.53150  Biso   1.000  H
  C1636    1.0000 0.89870  0.29389  0.55276  Biso   1.000  C
  C1637    1.0000 0.91320  0.33438  0.55634  Biso   1.000  C
  H1533    1.0000 0.94030  0.35140  0.55910  Biso   1.000  H
  C1638    1.0000 0.88729  0.34952  0.55576  Biso   1.000  C
  H1534    1.0000 0.89700  0.37660  0.55820  Biso   1.000  H
  C1639    1.0000 0.84687  0.32416  0.55161  Biso   1.000  C
  H1535    1.0000 0.82950  0.33430  0.55120  Biso   1.000  H
  C1640    1.0000 0.83235  0.28366  0.54804  Biso   1.000  C
  C1641    1.0000 0.85826  0.26852  0.54862  Biso   1.000  C
  H1536    1.0000 0.84850  0.24140  0.54620  Biso   1.000  H
  C1642    1.0000 0.79031  0.25761  0.54393  Biso   1.000  C
  C1643    1.0000 0.04341  0.28493  0.50871  Biso   1.000  C
  H1537    1.0000 0.06800  0.28450  0.51090  Biso   1.000  H
  H1538    1.0000 0.04920  0.31220  0.51070  Biso   1.000  H
  C1644    1.0000 0.04479  0.30198  0.47075  Biso   1.000  C
  C1645    1.0000 0.02387  0.29184  0.45069  Biso   1.000  C
  H1539    1.0000 0.00150  0.26670  0.44890  Biso   1.000  H
  C1646    1.0000 0.03643  0.31930  0.43329  Biso   1.000  C
  H1540    1.0000 0.02240  0.31250  0.41990  Biso   1.000  H
  C1647    1.0000 0.06994  0.35691  0.43594  Biso   1.000  C
  H1541    1.0000 0.07840  0.37530  0.42430  Biso   1.000  H
  C1648    1.0000 0.09086  0.36705  0.45600  Biso   1.000  C
  C1649    1.0000 0.07830  0.33959  0.47340  Biso   1.000  C
  H1542    1.0000 0.09230  0.34640  0.48680  Biso   1.000  H
  C1650    1.0000 0.12694  0.40685  0.45870  Biso   1.000  C
  Mn73     1.0000 0.17851  0.34302  0.63902  Biso   1.000  Mn
  Mn74     1.0000 0.11529  0.25527  0.67152  Biso   1.000  Mn
  Mn75     1.0000 0.04573  0.18567  0.70752  Biso   1.000  Mn
  O481     1.0000 0.12540  0.33681  0.61950  Biso   1.000  O
  O482     1.0000 0.10863  0.29018  0.64353  Biso   1.000  O
  O483     1.0000 0.95775  0.23277  0.64963  Biso   1.000  O
  O484     1.0000 0.85818  0.20306  0.73174  Biso   1.000  O
  O485     1.0000 0.84570  0.15873  0.81146  Biso   1.000  O
  O486     1.0000 0.82270  0.19296  0.82963  Biso   1.000  O
  O487     1.0000 0.80920  0.06431  0.66341  Biso   1.000  O
  O488     1.0000 0.75130  0.91666  0.65900  Biso   1.000  O
  O489     1.0000 0.69241  0.89625  0.64350  Biso   1.000  O
  O490     1.0000 0.07078  0.20188  0.65250  Biso   1.000  O
  O491     1.0000 0.02978  0.15533  0.67509  Biso   1.000  O
  O492     1.0000 0.99084  0.16623  0.58065  Biso   1.000  O
  O493     1.0000 0.92556  0.28201  0.55510  Biso   1.000  O
  O494     1.0000 0.77907  0.22228  0.53760  Biso   1.000  O
  O495     1.0000 0.76463  0.26738  0.54744  Biso   1.000  O
  O496     1.0000 0.02992  0.27271  0.48670  Biso   1.000  O
  O497     1.0000 0.14288  0.41716  0.47737  Biso   1.000  O
  O498     1.0000 0.14071  0.42934  0.44167  Biso   1.000  O
  O499     1.0000 0.22690  0.39680  0.62870  Biso   1.000  O
  O500     1.0000 0.23530  0.39990  0.63160  Biso   1.000  O
  H1543    1.0000 0.22980  0.42100  0.62910  Biso   1.000  H
  H1544    1.0000 0.24860  0.39720  0.61880  Biso   1.000  H
  H1545    1.0000 0.25720  0.39510  0.63250  Biso   1.000  H
  H1546    1.0000 0.23830  0.41890  0.64280  Biso   1.000  H
  H1547    1.0000 0.21880  0.41600  0.62590  Biso   1.000  H
  H1548    1.0000 0.23670  0.39170  0.61510  Biso   1.000  H
  H1549    1.0000 0.24980  0.39360  0.62790  Biso   1.000  H
  H1550    1.0000 0.23200  0.41800  0.63870  Biso   1.000  H
  C1651    1.0000 0.76513  0.64049  0.96337  Biso   1.000  C
  C1652    1.0000 0.72346  0.62895  0.95994  Biso   1.000  C
  C1653    1.0000 0.71358  0.65126  0.94557  Biso   1.000  C
  H1551    1.0000 0.73337  0.67083  0.93663  Biso   1.000  H
  C1654    1.0000 0.67587  0.64500  0.94442  Biso   1.000  C
  H1552    1.0000 0.66977  0.66013  0.93483  Biso   1.000  H
  C1655    1.0000 0.64753  0.61689  0.95717  Biso   1.000  C
  H1553    1.0000 0.62177  0.61283  0.95653  Biso   1.000  H
  C1656    1.0000 0.65583  0.59321  0.97167  Biso   1.000  C
  C1657    1.0000 0.69397  0.59949  0.97301  Biso   1.000  C
  H1554    1.0000 0.69987  0.58413  0.98253  Biso   1.000  H
  C1658    1.0000 0.62862  0.53987  0.99847  Biso   1.000  C
  H1555    1.0000 0.63677  0.52313  0.99063  Biso   1.000  H
  H1556    1.0000 0.64867  0.55533  0.00963  Biso   1.000  H
  C1659    1.0000 0.58815  0.51439  0.00944  Biso   1.000  C
  C1660    1.0000 0.55686  0.48521  0.99702  Biso   1.000  C
  C1661    1.0000 0.51926  0.46617  0.00624  Biso   1.000  C
  C1662    1.0000 0.51324  0.47280  0.02840  Biso   1.000  C
  C1663    1.0000 0.54528  0.50124  0.04062  Biso   1.000  C
  C1664    1.0000 0.58364  0.52431  0.03047  Biso   1.000  C
  C1665    1.0000 0.61676  0.55778  0.04375  Biso   1.000  C
  H1557    1.0000 0.63267  0.57993  0.03403  Biso   1.000  H
  H1558    1.0000 0.60537  0.56613  0.05533  Biso   1.000  H
  H1559    1.0000 0.63337  0.54853  0.05033  Biso   1.000  H
  C1666    1.0000 0.56299  0.47326  0.97363  Biso   1.000  C
  H1560    1.0000 0.58587  0.46973  0.97363  Biso   1.000  H
  H1561    1.0000 0.53977  0.44873  0.96933  Biso   1.000  H
  H1562    1.0000 0.56717  0.49383  0.96323  Biso   1.000  H
  C1667    1.0000 0.47253  0.45017  0.03854  Biso   1.000  C
  H1563    1.0000 0.45667  0.42603  0.03023  Biso   1.000  H
  H1564    1.0000 0.47467  0.44363  0.05373  Biso   1.000  H
  H1565    1.0000 0.46007  0.46633  0.03813  Biso   1.000  H
  C1668    1.0000 0.48359  0.43766  0.99268  Biso   1.000  C
  H1566    1.0000 0.48877  0.44403  0.97693  Biso   1.000  H
  H1567    1.0000 0.46057  0.43983  0.99693  Biso   1.000  H
  C1669    1.0000 0.44292  0.36834  0.98619  Biso   1.000  C
  C1670    1.0000 0.41758  0.37536  0.97289  Biso   1.000  C
  H1568    1.0000 0.42297  0.40133  0.97043  Biso   1.000  H
  C1671    1.0000 0.38410  0.34350  0.96322  Biso   1.000  C
  H1569    1.0000 0.36717  0.34823  0.95433  Biso   1.000  H
  C1672    1.0000 0.37595  0.30461  0.96686  Biso   1.000  C
  H1570    1.0000 0.35357  0.28333  0.96043  Biso   1.000  H
  C1673    1.0000 0.40130  0.29759  0.98016  Biso   1.000  C
  C1674    1.0000 0.43478  0.32945  0.98983  Biso   1.000  C
  H1571    1.0000 0.45167  0.32473  0.99873  Biso   1.000  H
  C1675    1.0000 0.39261  0.25643  0.98399  Biso   1.000  C
  C1676    1.0000 0.53882  0.50960  0.06460  Biso   1.000  C
  H1572    1.0000 0.56377  0.52063  0.07273  Biso   1.000  H
  H1573    1.0000 0.51957  0.48483  0.07183  Biso   1.000  H
  C1677    1.0000 0.51176  0.54297  0.08473  Biso   1.000  C
  C1678    1.0000 0.49732  0.56940  0.08387  Biso   1.000  C
  H1574    1.0000 0.49727  0.58123  0.07033  Biso   1.000  H
  C1679    1.0000 0.48313  0.57822  0.10279  Biso   1.000  C
  H1575    1.0000 0.47277  0.59533  0.10203  Biso   1.000  H
  C1680    1.0000 0.48431  0.56131  0.12327  Biso   1.000  C
  H1576    1.0000 0.47577  0.56803  0.13623  Biso   1.000  H
  C1681    1.0000 0.49811  0.53466  0.12411  Biso   1.000  C
  C1682    1.0000 0.51270  0.52664  0.10469  Biso   1.000  C
  H1577    1.0000 0.52327  0.50973  0.10543  Biso   1.000  H
  C1683    1.0000 0.49994  0.51638  0.14578  Biso   1.000  C
  C1684    1.0000 0.70758  0.50418  0.98991  Biso   1.000  C
  C1685    1.0000 0.68141  0.48174  0.97072  Biso   1.000  C
  C1686    1.0000 0.65388  0.44116  0.97233  Biso   1.000  C
  H1578    1.0000 0.65257  0.42723  0.98533  Biso   1.000  H
  C1687    1.0000 0.62836  0.42137  0.95458  Biso   1.000  C
  H1579    1.0000 0.60997  0.39423  0.95563  Biso   1.000  H
  C1688    1.0000 0.63036  0.44216  0.93521  Biso   1.000  C
  H1580    1.0000 0.61327  0.42893  0.92333  Biso   1.000  H
  C1689    1.0000 0.65789  0.48274  0.93360  Biso   1.000  C
  C1690    1.0000 0.68341  0.50253  0.95136  Biso   1.000  C
  H1581    1.0000 0.70177  0.52963  0.95033  Biso   1.000  H
  C1691    1.0000 0.67833  0.54167  0.91396  Biso   1.000  C
  H1582    1.0000 0.67337  0.55153  0.92783  Biso   1.000  H
  H1583    1.0000 0.70677  0.55173  0.91273  Biso   1.000  H
  C1692    1.0000 0.66393  0.55608  0.89412  Biso   1.000  C
  C1693    1.0000 0.62823  0.55573  0.89541  Biso   1.000  C
  C1694    1.0000 0.61858  0.57469  0.87810  Biso   1.000  C
  C1695    1.0000 0.64523  0.59406  0.86128  Biso   1.000  C
  C1696    1.0000 0.68048  0.59245  0.85929  Biso   1.000  C
  C1697    1.0000 0.68924  0.57142  0.87492  Biso   1.000  C
  C1698    1.0000 0.72545  0.56654  0.87274  Biso   1.000  C
  H1584    1.0000 0.71997  0.54173  0.87943  Biso   1.000  H
  H1585    1.0000 0.73167  0.56653  0.85723  Biso   1.000  H
  H1586    1.0000 0.74767  0.58823  0.88023  Biso   1.000  H
  C1699    1.0000 0.60109  0.53838  0.91427  Biso   1.000  C
  H1587    1.0000 0.60397  0.55933  0.92413  Biso   1.000  H
  H1588    1.0000 0.57407  0.52373  0.90893  Biso   1.000  H
  H1589    1.0000 0.60737  0.52063  0.92223  Biso   1.000  H
  C1700    1.0000 0.63591  0.61827  0.84444  Biso   1.000  C
  H1590    1.0000 0.62907  0.63563  0.85233  Biso   1.000  H
  H1591    1.0000 0.65897  0.63393  0.83523  Biso   1.000  H
  H1592    1.0000 0.61387  0.60033  0.83523  Biso   1.000  H
  C1701    1.0000 0.58043  0.57542  0.87947  Biso   1.000  C
  H1593    1.0000 0.56167  0.55463  0.88933  Biso   1.000  H
  H1594    1.0000 0.56827  0.57173  0.86483  Biso   1.000  H
  C1702    1.0000 0.56537  0.62722  0.88609  Biso   1.000  C
  C1703    1.0000 0.57987  0.66771  0.88967  Biso   1.000  C
  H1595    1.0000 0.60697  0.68473  0.89243  Biso   1.000  H
  C1704    1.0000 0.55396  0.68285  0.88909  Biso   1.000  C
  H1596    1.0000 0.56367  0.70993  0.89153  Biso   1.000  H
  C1705    1.0000 0.51354  0.65749  0.88494  Biso   1.000  C
  H1597    1.0000 0.49617  0.66763  0.88453  Biso   1.000  H
  C1706    1.0000 0.49902  0.61699  0.88137  Biso   1.000  C
  C1707    1.0000 0.52493  0.60185  0.88195  Biso   1.000  C
  H1598    1.0000 0.51517  0.57473  0.87953  Biso   1.000  H
  C1708    1.0000 0.45698  0.59094  0.87726  Biso   1.000  C
  C1709    1.0000 0.71008  0.61826  0.84204  Biso   1.000  C
  H1599    1.0000 0.73467  0.61783  0.84423  Biso   1.000  H
  H1600    1.0000 0.71587  0.64553  0.84403  Biso   1.000  H
  C1710    1.0000 0.71146  0.63531  0.80408  Biso   1.000  C
  C1711    1.0000 0.69054  0.62517  0.78402  Biso   1.000  C
  H1601    1.0000 0.66817  0.60003  0.78223  Biso   1.000  H
  C1712    1.0000 0.70310  0.65263  0.76662  Biso   1.000  C
  H1602    1.0000 0.68907  0.64583  0.75323  Biso   1.000  H
  C1713    1.0000 0.73661  0.69024  0.76927  Biso   1.000  C
  H1603    1.0000 0.74507  0.70863  0.75763  Biso   1.000  H
  C1714    1.0000 0.75753  0.70038  0.78933  Biso   1.000  C
  C1715    1.0000 0.74497  0.67292  0.80673  Biso   1.000  C
  H1604    1.0000 0.75897  0.67973  0.82013  Biso   1.000  H
  C1716    1.0000 0.79361  0.74018  0.79203  Biso   1.000  C
  Mn76     1.0000 0.84518  0.67635  0.97235  Biso   1.000  Mn
  Mn77     1.0000 0.78196  0.58861  0.00485  Biso   1.000  Mn
  Mn78     1.0000 0.71239  0.51900  0.04085  Biso   1.000  Mn
  O501     1.0000 0.79207  0.67014  0.95283  Biso   1.000  O
  O502     1.0000 0.77530  0.62351  0.97686  Biso   1.000  O
  O503     1.0000 0.62442  0.56610  0.98296  Biso   1.000  O
  O504     1.0000 0.52485  0.53639  0.06507  Biso   1.000  O
  O505     1.0000 0.51237  0.49206  0.14479  Biso   1.000  O
  O506     1.0000 0.48937  0.52629  0.16296  Biso   1.000  O
  O507     1.0000 0.47587  0.39764  0.99674  Biso   1.000  O
  O508     1.0000 0.41797  0.24999  0.99233  Biso   1.000  O
  O509     1.0000 0.35908  0.22958  0.97683  Biso   1.000  O
  O510     1.0000 0.73745  0.53521  0.98583  Biso   1.000  O
  O511     1.0000 0.69645  0.48866  0.00842  Biso   1.000  O
  O512     1.0000 0.65751  0.49956  0.91398  Biso   1.000  O
  O513     1.0000 0.59223  0.61534  0.88843  Biso   1.000  O
  O514     1.0000 0.44574  0.55561  0.87093  Biso   1.000  O
  O515     1.0000 0.43130  0.60071  0.88077  Biso   1.000  O
  O516     1.0000 0.69659  0.60604  0.82003  Biso   1.000  O
  O517     1.0000 0.80955  0.75049  0.81070  Biso   1.000  O
  O518     1.0000 0.80738  0.76267  0.77500  Biso   1.000  O
  O519     1.0000 0.89357  0.73013  0.96203  Biso   1.000  O
  O520     1.0000 0.90197  0.73323  0.96493  Biso   1.000  O
  H1605    1.0000 0.89647  0.75433  0.96243  Biso   1.000  H
  H1606    1.0000 0.91527  0.73053  0.95213  Biso   1.000  H
  H1607    1.0000 0.92387  0.72843  0.96583  Biso   1.000  H
  H1608    1.0000 0.90497  0.75223  0.97613  Biso   1.000  H
  H1609    1.0000 0.88547  0.74933  0.95923  Biso   1.000  H
  H1610    1.0000 0.90337  0.72503  0.94843  Biso   1.000  H
  H1611    1.0000 0.91647  0.72693  0.96123  Biso   1.000  H
  H1612    1.0000 0.89867  0.75133  0.97203  Biso   1.000  H
  C1717    1.0000 0.43179  0.97383  0.29671  Biso   1.000  C
  C1718    1.0000 0.39012  0.96229  0.29328  Biso   1.000  C
  C1719    1.0000 0.38024  0.98460  0.27891  Biso   1.000  C
  H1613    1.0000 0.40003  0.00417  0.26997  Biso   1.000  H
  C1720    1.0000 0.34253  0.97834  0.27776  Biso   1.000  C
  H1614    1.0000 0.33643  0.99347  0.26817  Biso   1.000  H
  C1721    1.0000 0.31419  0.95023  0.29051  Biso   1.000  C
  H1615    1.0000 0.28843  0.94617  0.28987  Biso   1.000  H
  C1722    1.0000 0.32249  0.92655  0.30501  Biso   1.000  C
  C1723    1.0000 0.36063  0.93283  0.30635  Biso   1.000  C
  H1616    1.0000 0.36653  0.91747  0.31587  Biso   1.000  H
  C1724    1.0000 0.29528  0.87321  0.33181  Biso   1.000  C
  H1617    1.0000 0.30343  0.85647  0.32397  Biso   1.000  H
  H1618    1.0000 0.31533  0.88867  0.34297  Biso   1.000  H
  C1725    1.0000 0.25481  0.84773  0.34278  Biso   1.000  C
  C1726    1.0000 0.22352  0.81855  0.33036  Biso   1.000  C
  C1727    1.0000 0.18592  0.79951  0.33958  Biso   1.000  C
  C1728    1.0000 0.17990  0.80614  0.36174  Biso   1.000  C
  C1729    1.0000 0.21194  0.83458  0.37396  Biso   1.000  C
  C1730    1.0000 0.25030  0.85765  0.36381  Biso   1.000  C
  C1731    1.0000 0.28342  0.89112  0.37709  Biso   1.000  C
  H1619    1.0000 0.29933  0.91327  0.36737  Biso   1.000  H
  H1620    1.0000 0.27203  0.89947  0.38867  Biso   1.000  H
  H1621    1.0000 0.30003  0.88187  0.38367  Biso   1.000  H
  C1732    1.0000 0.22965  0.80660  0.30697  Biso   1.000  C
  H1622    1.0000 0.25253  0.80307  0.30697  Biso   1.000  H
  H1623    1.0000 0.20643  0.78207  0.30267  Biso   1.000  H
  H1624    1.0000 0.23383  0.82717  0.29657  Biso   1.000  H
  C1733    1.0000 0.13919  0.78351  0.37188  Biso   1.000  C
  H1625    1.0000 0.12333  0.75937  0.36357  Biso   1.000  H
  H1626    1.0000 0.14133  0.77697  0.38707  Biso   1.000  H
  H1627    1.0000 0.12673  0.79967  0.37147  Biso   1.000  H
  C1734    1.0000 0.15025  0.77100  0.32602  Biso   1.000  C
  H1628    1.0000 0.15543  0.77737  0.31027  Biso   1.000  H
  H1629    1.0000 0.12723  0.77317  0.33027  Biso   1.000  H
  C1735    1.0000 0.10958  0.70168  0.31953  Biso   1.000  C
  C1736    1.0000 0.08424  0.70870  0.30623  Biso   1.000  C
  H1630    1.0000 0.08963  0.73467  0.30377  Biso   1.000  H
  C1737    1.0000 0.05076  0.67684  0.29656  Biso   1.000  C
  H1631    1.0000 0.03383  0.68157  0.28767  Biso   1.000  H
  C1738    1.0000 0.04261  0.63795  0.30020  Biso   1.000  C
  H1632    1.0000 0.02023  0.61667  0.29377  Biso   1.000  H
  C1739    1.0000 0.06796  0.63093  0.31350  Biso   1.000  C
  C1740    1.0000 0.10144  0.66279  0.32317  Biso   1.000  C
  H1633    1.0000 0.11833  0.65807  0.33207  Biso   1.000  H
  C1741    1.0000 0.05927  0.58977  0.31733  Biso   1.000  C
  C1742    1.0000 0.20548  0.84294  0.39794  Biso   1.000  C
  H1634    1.0000 0.23043  0.85397  0.40607  Biso   1.000  H
  H1635    1.0000 0.18623  0.81817  0.40517  Biso   1.000  H
  C1743    1.0000 0.17842  0.87631  0.41807  Biso   1.000  C
  C1744    1.0000 0.16398  0.90274  0.41721  Biso   1.000  C
  H1636    1.0000 0.16393  0.91457  0.40367  Biso   1.000  H
  C1745    1.0000 0.14979  0.91156  0.43613  Biso   1.000  C
  H1637    1.0000 0.13943  0.92867  0.43537  Biso   1.000  H
  C1746    1.0000 0.15097  0.89465  0.45661  Biso   1.000  C
  H1638    1.0000 0.14243  0.90137  0.46957  Biso   1.000  H
  C1747    1.0000 0.16477  0.86800  0.45745  Biso   1.000  C
  C1748    1.0000 0.17936  0.85998  0.43803  Biso   1.000  C
  H1639    1.0000 0.18993  0.84307  0.43877  Biso   1.000  H
  C1749    1.0000 0.16660  0.84972  0.47912  Biso   1.000  C
  C1750    1.0000 0.37424  0.83752  0.32325  Biso   1.000  C
  C1751    1.0000 0.34807  0.81508  0.30406  Biso   1.000  C
  C1752    1.0000 0.32054  0.77450  0.30567  Biso   1.000  C
  H1640    1.0000 0.31923  0.76057  0.31867  Biso   1.000  H
  C1753    1.0000 0.29502  0.75471  0.28792  Biso   1.000  C
  H1641    1.0000 0.27663  0.72757  0.28897  Biso   1.000  H
  C1754    1.0000 0.29702  0.77550  0.26855  Biso   1.000  C
  H1642    1.0000 0.27993  0.76227  0.25667  Biso   1.000  H
  C1755    1.0000 0.32455  0.81608  0.26694  Biso   1.000  C
  C1756    1.0000 0.35007  0.83587  0.28470  Biso   1.000  C
  H1643    1.0000 0.36843  0.86297  0.28367  Biso   1.000  H
  C1757    1.0000 0.34499  0.87501  0.24730  Biso   1.000  C
  H1644    1.0000 0.34003  0.88487  0.26117  Biso   1.000  H
  H1645    1.0000 0.37343  0.88507  0.24607  Biso   1.000  H
  C1758    1.0000 0.33059  0.88942  0.22746  Biso   1.000  C
  C1759    1.0000 0.29489  0.88907  0.22875  Biso   1.000  C
  C1760    1.0000 0.28524  0.90803  0.21144  Biso   1.000  C
  C1761    1.0000 0.31189  0.92740  0.19462  Biso   1.000  C
  C1762    1.0000 0.34714  0.92579  0.19263  Biso   1.000  C
  C1763    1.0000 0.35590  0.90476  0.20826  Biso   1.000  C
  C1764    1.0000 0.39211  0.89988  0.20608  Biso   1.000  C
  H1646    1.0000 0.38663  0.87507  0.21277  Biso   1.000  H
  H1647    1.0000 0.39833  0.89987  0.19057  Biso   1.000  H
  H1648    1.0000 0.41433  0.92157  0.21357  Biso   1.000  H
  C1765    1.0000 0.26775  0.87172  0.24761  Biso   1.000  C
  H1649    1.0000 0.27063  0.89267  0.25747  Biso   1.000  H
  H1650    1.0000 0.24073  0.85707  0.24227  Biso   1.000  H
  H1651    1.0000 0.27403  0.85397  0.25557  Biso   1.000  H
  C1766    1.0000 0.30257  0.95161  0.17778  Biso   1.000  C
  H1652    1.0000 0.29573  0.96897  0.18567  Biso   1.000  H
  H1653    1.0000 0.32563  0.96727  0.16857  Biso   1.000  H
  H1654    1.0000 0.28053  0.93367  0.16857  Biso   1.000  H
  C1767    1.0000 0.24709  0.90876  0.21281  Biso   1.000  C
  H1655    1.0000 0.22833  0.88797  0.22267  Biso   1.000  H
  H1656    1.0000 0.23493  0.90507  0.19817  Biso   1.000  H
  C1768    1.0000 0.23203  0.96056  0.21943  Biso   1.000  C
  C1769    1.0000 0.24653  0.00105  0.22301  Biso   1.000  C
  H1657    1.0000 0.27363  0.01807  0.22577  Biso   1.000  H
  C1770    1.0000 0.22062  0.01619  0.22243  Biso   1.000  C
  H1658    1.0000 0.23033  0.04327  0.22487  Biso   1.000  H
  C1771    1.0000 0.18020  0.99083  0.21828  Biso   1.000  C
  H1659    1.0000 0.16283  0.00097  0.21787  Biso   1.000  H
  C1772    1.0000 0.16568  0.95033  0.21471  Biso   1.000  C
  C1773    1.0000 0.19159  0.93519  0.21529  Biso   1.000  C
  H1660    1.0000 0.18183  0.90807  0.21287  Biso   1.000  H
  C1774    1.0000 0.12364  0.92428  0.21060  Biso   1.000  C
  C1775    1.0000 0.37674  0.95160  0.17538  Biso   1.000  C
  H1661    1.0000 0.40133  0.95117  0.17757  Biso   1.000  H
  H1662    1.0000 0.38253  0.97887  0.17737  Biso   1.000  H
  C1776    1.0000 0.37812  0.96865  0.13742  Biso   1.000  C
  C1777    1.0000 0.35720  0.95851  0.11736  Biso   1.000  C
  H1663    1.0000 0.33483  0.93337  0.11557  Biso   1.000  H
  C1778    1.0000 0.36976  0.98597  0.09996  Biso   1.000  C
  H1664    1.0000 0.35573  0.97917  0.08657  Biso   1.000  H
  C1779    1.0000 0.40327  0.02358  0.10261  Biso   1.000  C
  H1665    1.0000 0.41173  0.04197  0.09097  Biso   1.000  H
  C1780    1.0000 0.42419  0.03372  0.12267  Biso   1.000  C
  C1781    1.0000 0.41163  0.00626  0.14007  Biso   1.000  C
  H1666    1.0000 0.42563  0.01307  0.15347  Biso   1.000  H
  C1782    1.0000 0.46027  0.07352  0.12537  Biso   1.000  C
  Mn79     1.0000 0.51185  0.00968  0.30569  Biso   1.000  Mn
  Mn80     1.0000 0.44863  0.92194  0.33818  Biso   1.000  Mn
  Mn81     1.0000 0.37906  0.85234  0.37418  Biso   1.000  Mn
  O521     1.0000 0.45873  0.00348  0.28617  Biso   1.000  O
  O522     1.0000 0.44196  0.95685  0.31020  Biso   1.000  O
  O523     1.0000 0.29108  0.89944  0.31630  Biso   1.000  O
  O524     1.0000 0.19151  0.86973  0.39841  Biso   1.000  O
  O525     1.0000 0.17903  0.82540  0.47813  Biso   1.000  O
  O526     1.0000 0.15603  0.85963  0.49630  Biso   1.000  O
  O527     1.0000 0.14253  0.73098  0.33008  Biso   1.000  O
  O528     1.0000 0.08463  0.58333  0.32567  Biso   1.000  O
  O529     1.0000 0.02574  0.56292  0.31017  Biso   1.000  O
  O530     1.0000 0.40411  0.86855  0.31917  Biso   1.000  O
  O531     1.0000 0.36311  0.82200  0.34176  Biso   1.000  O
  O532     1.0000 0.32417  0.83290  0.24732  Biso   1.000  O
  O533     1.0000 0.25889  0.94868  0.22177  Biso   1.000  O
  O534     1.0000 0.11240  0.88895  0.20427  Biso   1.000  O
  O535     1.0000 0.09796  0.93405  0.21411  Biso   1.000  O
  O536     1.0000 0.36325  0.93938  0.15337  Biso   1.000  O
  O537     1.0000 0.47621  0.08383  0.14404  Biso   1.000  O
  O538     1.0000 0.47404  0.09601  0.10834  Biso   1.000  O
  O539     1.0000 0.56023  0.06347  0.29537  Biso   1.000  O
  O540     1.0000 0.56863  0.06657  0.29827  Biso   1.000  O
  H1667    1.0000 0.56313  0.08767  0.29577  Biso   1.000  H
  H1668    1.0000 0.58193  0.06387  0.28547  Biso   1.000  H
  H1669    1.0000 0.59053  0.06177  0.29917  Biso   1.000  H
  H1670    1.0000 0.57163  0.08557  0.30947  Biso   1.000  H
  H1671    1.0000 0.55213  0.08267  0.29257  Biso   1.000  H
  H1672    1.0000 0.57003  0.05837  0.28177  Biso   1.000  H
  H1673    1.0000 0.58313  0.06027  0.29457  Biso   1.000  H
  H1674    1.0000 0.56533  0.08467  0.30537  Biso   1.000  H
  C1783    1.0000 0.79130  0.69284  0.86996  Biso   1.000  C
  C1784    1.0000 0.76117  0.70438  0.87339  Biso   1.000  C
  C1785    1.0000 0.72898  0.68207  0.88776  Biso   1.000  C
  H1675    1.0000 0.72920  0.66250  0.89670  Biso   1.000  H
  C1786    1.0000 0.69753  0.68833  0.88891  Biso   1.000  C
  H1676    1.0000 0.67630  0.67320  0.89850  Biso   1.000  H
  C1787    1.0000 0.69730  0.71644  0.87616  Biso   1.000  C
  H1677    1.0000 0.67560  0.72050  0.87680  Biso   1.000  H
  C1788    1.0000 0.72928  0.74012  0.86166  Biso   1.000  C
  C1789    1.0000 0.76114  0.73384  0.86032  Biso   1.000  C
  H1678    1.0000 0.78240  0.74920  0.85080  Biso   1.000  H
  C1790    1.0000 0.75541  0.79346  0.83486  Biso   1.000  C
  H1679    1.0000 0.78030  0.81020  0.84270  Biso   1.000  H
  H1680    1.0000 0.76000  0.77800  0.82370  Biso   1.000  H
  C1791    1.0000 0.74042  0.81894  0.82389  Biso   1.000  C
  C1792    1.0000 0.73831  0.84812  0.83631  Biso   1.000  C
  C1793    1.0000 0.71975  0.86716  0.82709  Biso   1.000  C
  C1794    1.0000 0.70710  0.86053  0.80493  Biso   1.000  C
  C1795    1.0000 0.71070  0.83209  0.79271  Biso   1.000  C
  C1796    1.0000 0.72599  0.80902  0.80286  Biso   1.000  C
  C1797    1.0000 0.72564  0.77555  0.78958  Biso   1.000  C
  H1681    1.0000 0.71940  0.75340  0.79930  Biso   1.000  H
  H1682    1.0000 0.70590  0.76720  0.77800  Biso   1.000  H
  H1683    1.0000 0.75150  0.78480  0.78300  Biso   1.000  H
  C1798    1.0000 0.75639  0.86007  0.85970  Biso   1.000  C
  H1684    1.0000 0.78280  0.86360  0.85970  Biso   1.000  H
  H1685    1.0000 0.75770  0.88460  0.86400  Biso   1.000  H
  H1686    1.0000 0.74000  0.83950  0.87010  Biso   1.000  H
  C1799    1.0000 0.68902  0.88316  0.79479  Biso   1.000  C
  H1687    1.0000 0.69730  0.90730  0.80310  Biso   1.000  H
  H1688    1.0000 0.69770  0.88970  0.77960  Biso   1.000  H
  H1689    1.0000 0.66040  0.86700  0.79520  Biso   1.000  H
  C1800    1.0000 0.71259  0.89567  0.84065  Biso   1.000  C
  H1690    1.0000 0.71140  0.88930  0.85640  Biso   1.000  H
  H1691    1.0000 0.68740  0.89350  0.83640  Biso   1.000  H
  C1801    1.0000 0.74124  0.96499  0.84714  Biso   1.000  C
  C1802    1.0000 0.70888  0.95797  0.86044  Biso   1.000  C
  H1692    1.0000 0.68830  0.93200  0.86290  Biso   1.000  H
  C1803    1.0000 0.70726  0.98983  0.87011  Biso   1.000  C
  H1693    1.0000 0.68560  0.98510  0.87900  Biso   1.000  H
  C1804    1.0000 0.73800  0.02872  0.86647  Biso   1.000  C
  H1694    1.0000 0.73690  0.05000  0.87290  Biso   1.000  H
  C1805    1.0000 0.77037  0.03574  0.85317  Biso   1.000  C
  C1806    1.0000 0.77199  0.00388  0.84350  Biso   1.000  C
  H1695    1.0000 0.79360  0.00860  0.83460  Biso   1.000  H
  C1807    1.0000 0.80284  0.07690  0.84934  Biso   1.000  C
  C1808    1.0000 0.69588  0.82373  0.76873  Biso   1.000  C
  H1696    1.0000 0.70980  0.81270  0.76060  Biso   1.000  H
  H1697    1.0000 0.70140  0.84850  0.76150  Biso   1.000  H
  C1809    1.0000 0.63545  0.79036  0.74860  Biso   1.000  C
  C1810    1.0000 0.59458  0.76393  0.74946  Biso   1.000  C
  H1698    1.0000 0.58270  0.75210  0.76300  Biso   1.000  H
  C1811    1.0000 0.57157  0.75511  0.73054  Biso   1.000  C
  H1699    1.0000 0.54410  0.73800  0.73130  Biso   1.000  H
  C1812    1.0000 0.58966  0.77202  0.71006  Biso   1.000  C
  H1700    1.0000 0.57440  0.76530  0.69710  Biso   1.000  H
  C1813    1.0000 0.63011  0.79867  0.70922  Biso   1.000  C
  C1814    1.0000 0.65272  0.80669  0.72864  Biso   1.000  C
  H1701    1.0000 0.68020  0.82360  0.72790  Biso   1.000  H
  C1815    1.0000 0.65022  0.81695  0.68755  Biso   1.000  C
  C1816    1.0000 0.87006  0.82915  0.84342  Biso   1.000  C
  C1817    1.0000 0.86633  0.85159  0.86261  Biso   1.000  C
  C1818    1.0000 0.87938  0.89217  0.86100  Biso   1.000  C
  H1702    1.0000 0.89200  0.90610  0.84800  Biso   1.000  H
  C1819    1.0000 0.87365  0.91196  0.87875  Biso   1.000  C
  H1703    1.0000 0.88240  0.93910  0.87770  Biso   1.000  H
  C1820    1.0000 0.85486  0.89117  0.89812  Biso   1.000  C
  H1704    1.0000 0.85100  0.90440  0.91000  Biso   1.000  H
  C1821    1.0000 0.84181  0.85059  0.89973  Biso   1.000  C
  C1822    1.0000 0.84754  0.83080  0.88197  Biso   1.000  C
  H1705    1.0000 0.83880  0.80370  0.88300  Biso   1.000  H
  C1823    1.0000 0.80332  0.79166  0.91937  Biso   1.000  C
  H1706    1.0000 0.78850  0.78180  0.90550  Biso   1.000  H
  H1707    1.0000 0.82170  0.78160  0.92060  Biso   1.000  H
  C1824    1.0000 0.77451  0.77725  0.93921  Biso   1.000  C
  C1825    1.0000 0.73916  0.77760  0.93792  Biso   1.000  C
  C1826    1.0000 0.71055  0.75864  0.95523  Biso   1.000  C
  C1827    1.0000 0.71783  0.73927  0.97205  Biso   1.000  C
  C1828    1.0000 0.75469  0.74088  0.97404  Biso   1.000  C
  C1829    1.0000 0.78448  0.76191  0.95841  Biso   1.000  C
  C1830    1.0000 0.82557  0.76679  0.96059  Biso   1.000  C
  H1708    1.0000 0.84490  0.79160  0.95390  Biso   1.000  H
  H1709    1.0000 0.83180  0.76680  0.97610  Biso   1.000  H
  H1710    1.0000 0.82610  0.74510  0.95310  Biso   1.000  H
  C1831    1.0000 0.72937  0.79495  0.91906  Biso   1.000  C
  H1711    1.0000 0.71130  0.77400  0.90920  Biso   1.000  H
  H1712    1.0000 0.71700  0.80960  0.92440  Biso   1.000  H
  H1713    1.0000 0.75340  0.81270  0.91110  Biso   1.000  H
  C1832    1.0000 0.68430  0.71506  0.98889  Biso   1.000  C
  H1714    1.0000 0.66010  0.69770  0.98100  Biso   1.000  H
  H1715    1.0000 0.69170  0.69940  0.99810  Biso   1.000  H
  H1716    1.0000 0.68020  0.73300  0.99810  Biso   1.000  H
  C1833    1.0000 0.67167  0.75791  0.95386  Biso   1.000  C
  H1717    1.0000 0.67370  0.77870  0.94400  Biso   1.000  H
  H1718    1.0000 0.66320  0.76160  0.96850  Biso   1.000  H
  C1834    1.0000 0.60481  0.70611  0.94724  Biso   1.000  C
  C1835    1.0000 0.57882  0.66562  0.94366  Biso   1.000  C
  H1719    1.0000 0.58890  0.64860  0.94090  Biso   1.000  H
  C1836    1.0000 0.53777  0.65048  0.94424  Biso   1.000  C
  H1720    1.0000 0.52040  0.62340  0.94180  Biso   1.000  H
  C1837    1.0000 0.52271  0.67584  0.94839  Biso   1.000  C
  H1721    1.0000 0.49520  0.66570  0.94880  Biso   1.000  H
  C1838    1.0000 0.54869  0.71634  0.95196  Biso   1.000  C
  C1839    1.0000 0.58974  0.73148  0.95138  Biso   1.000  C
  H1722    1.0000 0.60710  0.75860  0.95380  Biso   1.000  H
  C1840    1.0000 0.53270  0.74239  0.95607  Biso   1.000  C
  C1841    1.0000 0.75848  0.71507  0.99129  Biso   1.000  C
  H1723    1.0000 0.78350  0.71550  0.98910  Biso   1.000  H
  H1724    1.0000 0.73700  0.68780  0.98930  Biso   1.000  H
  C1842    1.0000 0.74281  0.69802  0.02925  Biso   1.000  C
  C1843    1.0000 0.73203  0.70816  0.04931  Biso   1.000  C
  H1725    1.0000 0.73480  0.73330  0.05110  Biso   1.000  H
  C1844    1.0000 0.71713  0.68070  0.06671  Biso   1.000  C
  H1726    1.0000 0.70990  0.68750  0.08010  Biso   1.000  H
  C1845    1.0000 0.71303  0.64309  0.06406  Biso   1.000  C
  H1727    1.0000 0.70310  0.62470  0.07570  Biso   1.000  H
  C1846    1.0000 0.72381  0.63295  0.04400  Biso   1.000  C
  C1847    1.0000 0.73871  0.66041  0.02660  Biso   1.000  C
  H1728    1.0000 0.74590  0.65360  0.01320  Biso   1.000  H
  C1848    1.0000 0.72009  0.59315  0.04130  Biso   1.000  C
  Mn82     1.0000 0.83550  0.65698  0.86098  Biso   1.000  Mn
  Mn83     1.0000 0.86002  0.74473  0.82848  Biso   1.000  Mn
  Mn84     1.0000 0.86006  0.81433  0.79248  Biso   1.000  Mn
  O541     1.0000 0.78859  0.66319  0.88050  Biso   1.000  O
  O542     1.0000 0.81845  0.70982  0.85647  Biso   1.000  O
  O543     1.0000 0.72498  0.76723  0.85037  Biso   1.000  O
  O544     1.0000 0.65512  0.79694  0.76826  Biso   1.000  O
  O545     1.0000 0.68697  0.84127  0.68854  Biso   1.000  O
  O546     1.0000 0.62974  0.80704  0.67037  Biso   1.000  O
  O547     1.0000 0.74489  0.93569  0.83659  Biso   1.000  O
  O548     1.0000 0.83464  0.08334  0.84100  Biso   1.000  O
  O549     1.0000 0.79616  0.10375  0.85650  Biso   1.000  O
  O550     1.0000 0.86890  0.79812  0.84750  Biso   1.000  O
  O551     1.0000 0.87445  0.84467  0.82491  Biso   1.000  O
  O552     1.0000 0.82461  0.83377  0.91935  Biso   1.000  O
  O553     1.0000 0.64355  0.71799  0.94490  Biso   1.000  O
  O554     1.0000 0.55679  0.77772  0.96240  Biso   1.000  O
  O555     1.0000 0.49725  0.73262  0.95256  Biso   1.000  O
  O556     1.0000 0.75721  0.72729  0.01330  Biso   1.000  O
  O557     1.0000 0.72572  0.58284  0.02263  Biso   1.000  O
  O558     1.0000 0.71137  0.57066  0.05833  Biso   1.000  O
  O559     1.0000 0.83010  0.60320  0.87130  Biso   1.000  O
  O560     1.0000 0.83540  0.60010  0.86840  Biso   1.000  O
  H1729    1.0000 0.80880  0.57900  0.87090  Biso   1.000  H
  H1730    1.0000 0.85140  0.60280  0.88120  Biso   1.000  H
  H1731    1.0000 0.86210  0.60490  0.86750  Biso   1.000  H
  H1732    1.0000 0.81940  0.58110  0.85720  Biso   1.000  H
  H1733    1.0000 0.80280  0.58400  0.87410  Biso   1.000  H
  H1734    1.0000 0.84500  0.60830  0.88490  Biso   1.000  H
  H1735    1.0000 0.85620  0.60640  0.87210  Biso   1.000  H
  H1736    1.0000 0.81400  0.58200  0.86130  Biso   1.000  H
  C1849    1.0000 0.45797  0.02617  0.20329  Biso   1.000  C
  C1850    1.0000 0.42784  0.03771  0.20672  Biso   1.000  C
  C1851    1.0000 0.39565  0.01540  0.22109  Biso   1.000  C
  H1737    1.0000 0.39587  0.99583  0.23003  Biso   1.000  H
  C1852    1.0000 0.36420  0.02166  0.22224  Biso   1.000  C
  H1738    1.0000 0.34297  0.00653  0.23183  Biso   1.000  H
  C1853    1.0000 0.36397  0.04977  0.20949  Biso   1.000  C
  H1739    1.0000 0.34227  0.05383  0.21013  Biso   1.000  H
  C1854    1.0000 0.39595  0.07345  0.19499  Biso   1.000  C
  C1855    1.0000 0.42781  0.06717  0.19365  Biso   1.000  C
  H1740    1.0000 0.44907  0.08253  0.18413  Biso   1.000  H
  C1856    1.0000 0.42208  0.12679  0.16819  Biso   1.000  C
  H1741    1.0000 0.44697  0.14353  0.17603  Biso   1.000  H
  H1742    1.0000 0.42667  0.11133  0.15703  Biso   1.000  H
  C1857    1.0000 0.40709  0.15227  0.15722  Biso   1.000  C
  C1858    1.0000 0.40498  0.18145  0.16964  Biso   1.000  C
  C1859    1.0000 0.38642  0.20049  0.16042  Biso   1.000  C
  C1860    1.0000 0.37377  0.19386  0.13826  Biso   1.000  C
  C1861    1.0000 0.37737  0.16542  0.12604  Biso   1.000  C
  C1862    1.0000 0.39266  0.14235  0.13619  Biso   1.000  C
  C1863    1.0000 0.39231  0.10888  0.12291  Biso   1.000  C
  H1743    1.0000 0.38607  0.08673  0.13263  Biso   1.000  H
  H1744    1.0000 0.37257  0.10053  0.11133  Biso   1.000  H
  H1745    1.0000 0.41817  0.11813  0.11633  Biso   1.000  H
  C1864    1.0000 0.42306  0.19340  0.19303  Biso   1.000  C
  H1746    1.0000 0.44947  0.19693  0.19303  Biso   1.000  H
  H1747    1.0000 0.42437  0.21793  0.19733  Biso   1.000  H
  H1748    1.0000 0.40667  0.17283  0.20343  Biso   1.000  H
  C1865    1.0000 0.35569  0.21649  0.12812  Biso   1.000  C
  H1749    1.0000 0.36397  0.24063  0.13643  Biso   1.000  H
  H1750    1.0000 0.36437  0.22303  0.11293  Biso   1.000  H
  H1751    1.0000 0.32707  0.20033  0.12853  Biso   1.000  H
  C1866    1.0000 0.37926  0.22900  0.17398  Biso   1.000  C
  H1752    1.0000 0.37807  0.22263  0.18973  Biso   1.000  H
  H1753    1.0000 0.35407  0.22683  0.16973  Biso   1.000  H
  C1867    1.0000 0.40791  0.29832  0.18047  Biso   1.000  C
  C1868    1.0000 0.37555  0.29130  0.19377  Biso   1.000  C
  H1754    1.0000 0.35497  0.26533  0.19623  Biso   1.000  H
  C1869    1.0000 0.37393  0.32316  0.20344  Biso   1.000  C
  H1755    1.0000 0.35227  0.31843  0.21233  Biso   1.000  H
  C1870    1.0000 0.40467  0.36205  0.19980  Biso   1.000  C
  H1756    1.0000 0.40357  0.38333  0.20623  Biso   1.000  H
  C1871    1.0000 0.43704  0.36907  0.18650  Biso   1.000  C
  C1872    1.0000 0.43866  0.33721  0.17683  Biso   1.000  C
  H1757    1.0000 0.46027  0.34193  0.16793  Biso   1.000  H
  C1873    1.0000 0.46951  0.41023  0.18267  Biso   1.000  C
  C1874    1.0000 0.36255  0.15706  0.10206  Biso   1.000  C
  H1758    1.0000 0.37647  0.14603  0.09393  Biso   1.000  H
  H1759    1.0000 0.36807  0.18183  0.09483  Biso   1.000  H
  C1875    1.0000 0.30212  0.12369  0.08193  Biso   1.000  C
  C1876    1.0000 0.26125  0.09726  0.08279  Biso   1.000  C
  H1760    1.0000 0.24937  0.08543  0.09633  Biso   1.000  H
  C1877    1.0000 0.23824  0.08844  0.06387  Biso   1.000  C
  H1761    1.0000 0.21077  0.07133  0.06463  Biso   1.000  H
  C1878    1.0000 0.25633  0.10535  0.04339  Biso   1.000  C
  H1762    1.0000 0.24107  0.09863  0.03043  Biso   1.000  H
  C1879    1.0000 0.29678  0.13200  0.04255  Biso   1.000  C
  C1880    1.0000 0.31939  0.14002  0.06197  Biso   1.000  C
  H1763    1.0000 0.34687  0.15693  0.06123  Biso   1.000  H
  C1881    1.0000 0.31689  0.15028  0.02088  Biso   1.000  C
  C1882    1.0000 0.53673  0.16248  0.17675  Biso   1.000  C
  C1883    1.0000 0.53300  0.18492  0.19594  Biso   1.000  C
  C1884    1.0000 0.54605  0.22550  0.19433  Biso   1.000  C
  H1764    1.0000 0.55867  0.23943  0.18133  Biso   1.000  H
  C1885    1.0000 0.54032  0.24529  0.21208  Biso   1.000  C
  H1765    1.0000 0.54907  0.27243  0.21103  Biso   1.000  H
  C1886    1.0000 0.52153  0.22450  0.23145  Biso   1.000  C
  H1766    1.0000 0.51767  0.23773  0.24333  Biso   1.000  H
  C1887    1.0000 0.50848  0.18392  0.23306  Biso   1.000  C
  C1888    1.0000 0.51421  0.16413  0.21530  Biso   1.000  C
  H1767    1.0000 0.50547  0.13703  0.21633  Biso   1.000  H
  C1889    1.0000 0.46999  0.12499  0.25270  Biso   1.000  C
  H1768    1.0000 0.45517  0.11513  0.23883  Biso   1.000  H
  H1769    1.0000 0.48837  0.11493  0.25393  Biso   1.000  H
  C1890    1.0000 0.44118  0.11058  0.27254  Biso   1.000  C
  C1891    1.0000 0.40583  0.11093  0.27125  Biso   1.000  C
  C1892    1.0000 0.37722  0.09197  0.28856  Biso   1.000  C
  C1893    1.0000 0.38450  0.07260  0.30538  Biso   1.000  C
  C1894    1.0000 0.42136  0.07421  0.30737  Biso   1.000  C
  C1895    1.0000 0.45115  0.09524  0.29174  Biso   1.000  C
  C1896    1.0000 0.49224  0.10012  0.29392  Biso   1.000  C
  H1770    1.0000 0.51157  0.12493  0.28723  Biso   1.000  H
  H1771    1.0000 0.49847  0.10013  0.30943  Biso   1.000  H
  H1772    1.0000 0.49277  0.07843  0.28643  Biso   1.000  H
  C1897    1.0000 0.39604  0.12828  0.25239  Biso   1.000  C
  H1773    1.0000 0.37797  0.10733  0.24253  Biso   1.000  H
  H1774    1.0000 0.38367  0.14293  0.25773  Biso   1.000  H
  H1775    1.0000 0.42007  0.14603  0.24443  Biso   1.000  H
  C1898    1.0000 0.35097  0.04839  0.32222  Biso   1.000  C
  H1776    1.0000 0.32677  0.03103  0.31433  Biso   1.000  H
  H1777    1.0000 0.35837  0.03273  0.33143  Biso   1.000  H
  H1778    1.0000 0.34687  0.06633  0.33143  Biso   1.000  H
  C1899    1.0000 0.33834  0.09124  0.28719  Biso   1.000  C
  H1779    1.0000 0.34037  0.11203  0.27733  Biso   1.000  H
  H1780    1.0000 0.32987  0.09493  0.30183  Biso   1.000  H
  C1900    1.0000 0.27148  0.03944  0.28057  Biso   1.000  C
  C1901    1.0000 0.24549  0.99895  0.27699  Biso   1.000  C
  H1781    1.0000 0.25557  0.98193  0.27423  Biso   1.000  H
  C1902    1.0000 0.20444  0.98381  0.27757  Biso   1.000  C
  H1782    1.0000 0.18707  0.95673  0.27513  Biso   1.000  H
  C1903    1.0000 0.18938  0.00917  0.28172  Biso   1.000  C
  H1783    1.0000 0.16187  0.99903  0.28213  Biso   1.000  H
  C1904    1.0000 0.21536  0.04967  0.28529  Biso   1.000  C
  C1905    1.0000 0.25641  0.06481  0.28471  Biso   1.000  C
  H1784    1.0000 0.27377  0.09193  0.28713  Biso   1.000  H
  C1906    1.0000 0.19937  0.07572  0.28940  Biso   1.000  C
  C1907    1.0000 0.42515  0.04840  0.32462  Biso   1.000  C
  H1785    1.0000 0.45017  0.04883  0.32243  Biso   1.000  H
  H1786    1.0000 0.40367  0.02113  0.32263  Biso   1.000  H
  C1908    1.0000 0.40948  0.03135  0.36258  Biso   1.000  C
  C1909    1.0000 0.39870  0.04149  0.38264  Biso   1.000  C
  H1787    1.0000 0.40147  0.06663  0.38443  Biso   1.000  H
  C1910    1.0000 0.38380  0.01403  0.40004  Biso   1.000  C
  H1788    1.0000 0.37657  0.02083  0.41343  Biso   1.000  H
  C1911    1.0000 0.37970  0.97642  0.39739  Biso   1.000  C
  H1789    1.0000 0.36977  0.95803  0.40903  Biso   1.000  H
  C1912    1.0000 0.39048  0.96628  0.37733  Biso   1.000  C
  C1913    1.0000 0.40538  0.99374  0.35993  Biso   1.000  C
  H1790    1.0000 0.41257  0.98693  0.34653  Biso   1.000  H
  C1914    1.0000 0.38676  0.92648  0.37463  Biso   1.000  C
  Mn85     1.0000 0.50216  0.99032  0.19431  Biso   1.000  Mn
  Mn86     1.0000 0.52669  0.07806  0.16182  Biso   1.000  Mn
  Mn87     1.0000 0.52672  0.14766  0.12582  Biso   1.000  Mn
  O561     1.0000 0.45526  0.99652  0.21383  Biso   1.000  O
  O562     1.0000 0.48512  0.04315  0.18980  Biso   1.000  O
  O563     1.0000 0.39165  0.10056  0.18370  Biso   1.000  O
  O564     1.0000 0.32179  0.13027  0.10159  Biso   1.000  O
  O565     1.0000 0.35364  0.17460  0.02187  Biso   1.000  O
  O566     1.0000 0.29641  0.14037  0.00370  Biso   1.000  O
  O567     1.0000 0.41156  0.26902  0.16992  Biso   1.000  O
  O568     1.0000 0.50131  0.41667  0.17433  Biso   1.000  O
  O569     1.0000 0.46283  0.43708  0.18983  Biso   1.000  O
  O570     1.0000 0.53557  0.13145  0.18083  Biso   1.000  O
  O571     1.0000 0.54112  0.17800  0.15824  Biso   1.000  O
  O572     1.0000 0.49128  0.16710  0.25268  Biso   1.000  O
  O573     1.0000 0.31022  0.05132  0.27823  Biso   1.000  O
  O574     1.0000 0.22346  0.11105  0.29573  Biso   1.000  O
  O575     1.0000 0.16392  0.06595  0.28589  Biso   1.000  O
  O576     1.0000 0.42388  0.06062  0.34663  Biso   1.000  O
  O577     1.0000 0.39239  0.91617  0.35596  Biso   1.000  O
  O578     1.0000 0.37804  0.90399  0.39166  Biso   1.000  O
  O579     1.0000 0.49677  0.93653  0.20463  Biso   1.000  O
  O580     1.0000 0.50207  0.93343  0.20173  Biso   1.000  O
  H1791    1.0000 0.47547  0.91233  0.20423  Biso   1.000  H
  H1792    1.0000 0.51807  0.93613  0.21453  Biso   1.000  H
  H1793    1.0000 0.52877  0.93823  0.20083  Biso   1.000  H
  H1794    1.0000 0.48607  0.91443  0.19053  Biso   1.000  H
  H1795    1.0000 0.46947  0.91733  0.20743  Biso   1.000  H
  H1796    1.0000 0.51167  0.94163  0.21823  Biso   1.000  H
  H1797    1.0000 0.52287  0.93973  0.20543  Biso   1.000  H
  H1798    1.0000 0.48067  0.91533  0.19463  Biso   1.000  H
  C1915    1.0000 0.12463  0.35951  0.53663  Biso   1.000  C
  C1916    1.0000 0.09450  0.37105  0.54006  Biso   1.000  C
  C1917    1.0000 0.06231  0.34874  0.55443  Biso   1.000  C
  H1799    1.0000 0.06253  0.32917  0.56337  Biso   1.000  H
  C1918    1.0000 0.03086  0.35500  0.55558  Biso   1.000  C
  H1800    1.0000 0.00963  0.33987  0.56517  Biso   1.000  H
  C1919    1.0000 0.03063  0.38311  0.54283  Biso   1.000  C
  H1801    1.0000 0.00893  0.38717  0.54347  Biso   1.000  H
  C1920    1.0000 0.06261  0.40679  0.52833  Biso   1.000  C
  C1921    1.0000 0.09447  0.40051  0.52699  Biso   1.000  C
  H1802    1.0000 0.11573  0.41587  0.51747  Biso   1.000  H
  C1922    1.0000 0.08874  0.46013  0.50153  Biso   1.000  C
  H1803    1.0000 0.11363  0.47687  0.50937  Biso   1.000  H
  H1804    1.0000 0.09333  0.44467  0.49037  Biso   1.000  H
  C1923    1.0000 0.07375  0.48561  0.49056  Biso   1.000  C
  C1924    1.0000 0.07164  0.51479  0.50298  Biso   1.000  C
  C1925    1.0000 0.05308  0.53383  0.49376  Biso   1.000  C
  C1926    1.0000 0.04043  0.52720  0.47160  Biso   1.000  C
  C1927    1.0000 0.04403  0.49876  0.45938  Biso   1.000  C
  C1928    1.0000 0.05932  0.47569  0.46953  Biso   1.000  C
  C1929    1.0000 0.05897  0.44222  0.45625  Biso   1.000  C
  H1805    1.0000 0.05273  0.42007  0.46597  Biso   1.000  H
  H1806    1.0000 0.03923  0.43387  0.44467  Biso   1.000  H
  H1807    1.0000 0.08483  0.45147  0.44967  Biso   1.000  H
  C1930    1.0000 0.08972  0.52674  0.52637  Biso   1.000  C
  H1808    1.0000 0.11613  0.53027  0.52637  Biso   1.000  H
  H1809    1.0000 0.09103  0.55127  0.53067  Biso   1.000  H
  H1810    1.0000 0.07333  0.50617  0.53677  Biso   1.000  H
  C1931    1.0000 0.02235  0.54983  0.46146  Biso   1.000  C
  H1811    1.0000 0.03063  0.57397  0.46977  Biso   1.000  H
  H1812    1.0000 0.03103  0.55637  0.44627  Biso   1.000  H
  H1813    1.0000 0.99373  0.53367  0.46187  Biso   1.000  H
  C1932    1.0000 0.04592  0.56234  0.50732  Biso   1.000  C
  H1814    1.0000 0.04473  0.55597  0.52307  Biso   1.000  H
  H1815    1.0000 0.02073  0.56017  0.50307  Biso   1.000  H
  C1933    1.0000 0.07457  0.63166  0.51381  Biso   1.000  C
  C1934    1.0000 0.04221  0.62464  0.52711  Biso   1.000  C
  H1816    1.0000 0.02163  0.59867  0.52957  Biso   1.000  H
  C1935    1.0000 0.04059  0.65650  0.53678  Biso   1.000  C
  H1817    1.0000 0.01893  0.65177  0.54567  Biso   1.000  H
  C1936    1.0000 0.07133  0.69539  0.53314  Biso   1.000  C
  H1818    1.0000 0.07023  0.71667  0.53957  Biso   1.000  H
  C1937    1.0000 0.10370  0.70241  0.51984  Biso   1.000  C
  C1938    1.0000 0.10532  0.67055  0.51017  Biso   1.000  C
  H1819    1.0000 0.12693  0.67527  0.50127  Biso   1.000  H
  C1939    1.0000 0.13617  0.74357  0.51601  Biso   1.000  C
  C1940    1.0000 0.02921  0.49040  0.43540  Biso   1.000  C
  H1820    1.0000 0.04313  0.47937  0.42727  Biso   1.000  H
  H1821    1.0000 0.03473  0.51517  0.42817  Biso   1.000  H
  C1941    1.0000 0.96878  0.45703  0.41527  Biso   1.000  C
  C1942    1.0000 0.92791  0.43060  0.41613  Biso   1.000  C
  H1822    1.0000 0.91603  0.41877  0.42967  Biso   1.000  H
  C1943    1.0000 0.90490  0.42178  0.39721  Biso   1.000  C
  H1823    1.0000 0.87743  0.40467  0.39797  Biso   1.000  H
  C1944    1.0000 0.92299  0.43869  0.37673  Biso   1.000  C
  H1824    1.0000 0.90773  0.43197  0.36377  Biso   1.000  H
  C1945    1.0000 0.96344  0.46534  0.37589  Biso   1.000  C
  C1946    1.0000 0.98605  0.47336  0.39531  Biso   1.000  C
  H1825    1.0000 0.01353  0.49027  0.39457  Biso   1.000  H
  C1947    1.0000 0.98355  0.48362  0.35422  Biso   1.000  C
  C1948    1.0000 0.20339  0.49582  0.51009  Biso   1.000  C
  C1949    1.0000 0.19966  0.51826  0.52928  Biso   1.000  C
  C1950    1.0000 0.21271  0.55884  0.52767  Biso   1.000  C
  H1826    1.0000 0.22533  0.57277  0.51467  Biso   1.000  H
  C1951    1.0000 0.20698  0.57863  0.54542  Biso   1.000  C
  H1827    1.0000 0.21573  0.60577  0.54437  Biso   1.000  H
  C1952    1.0000 0.18819  0.55784  0.56479  Biso   1.000  C
  H1828    1.0000 0.18433  0.57107  0.57667  Biso   1.000  H
  C1953    1.0000 0.17514  0.51726  0.56640  Biso   1.000  C
  C1954    1.0000 0.18087  0.49747  0.54864  Biso   1.000  C
  H1829    1.0000 0.17213  0.47037  0.54967  Biso   1.000  H
  C1955    1.0000 0.13665  0.45833  0.58604  Biso   1.000  C
  H1830    1.0000 0.12183  0.44847  0.57217  Biso   1.000  H
  H1831    1.0000 0.15503  0.44827  0.58727  Biso   1.000  H
  C1956    1.0000 0.10784  0.44392  0.60588  Biso   1.000  C
  C1957    1.0000 0.07249  0.44427  0.60459  Biso   1.000  C
  C1958    1.0000 0.04388  0.42531  0.62190  Biso   1.000  C
  C1959    1.0000 0.05116  0.40594  0.63872  Biso   1.000  C
  C1960    1.0000 0.08802  0.40755  0.64071  Biso   1.000  C
  C1961    1.0000 0.11781  0.42858  0.62508  Biso   1.000  C
  C1962    1.0000 0.15890  0.43346  0.62726  Biso   1.000  C
  H1832    1.0000 0.17823  0.45827  0.62057  Biso   1.000  H
  H1833    1.0000 0.16513  0.43347  0.64277  Biso   1.000  H
  H1834    1.0000 0.15943  0.41177  0.61977  Biso   1.000  H
  C1963    1.0000 0.06270  0.46162  0.58573  Biso   1.000  C
  H1835    1.0000 0.04463  0.44067  0.57587  Biso   1.000  H
  H1836    1.0000 0.05033  0.47627  0.59107  Biso   1.000  H
  H1837    1.0000 0.08673  0.47937  0.57777  Biso   1.000  H
  C1964    1.0000 0.01763  0.38173  0.65556  Biso   1.000  C
  H1838    1.0000 0.99343  0.36437  0.64767  Biso   1.000  H
  H1839    1.0000 0.02503  0.36607  0.66477  Biso   1.000  H
  H1840    1.0000 0.01353  0.39967  0.66477  Biso   1.000  H
  C1965    1.0000 0.00500  0.42458  0.62053  Biso   1.000  C
  H1841    1.0000 0.00703  0.44537  0.61067  Biso   1.000  H
  H1842    1.0000 0.99653  0.42827  0.63517  Biso   1.000  H
  C1966    1.0000 0.93814  0.37278  0.61391  Biso   1.000  C
  C1967    1.0000 0.91215  0.33229  0.61033  Biso   1.000  C
  H1843    1.0000 0.92223  0.31527  0.60757  Biso   1.000  H
  C1968    1.0000 0.87110  0.31715  0.61091  Biso   1.000  C
  H1844    1.0000 0.85373  0.29007  0.60847  Biso   1.000  H
  C1969    1.0000 0.85604  0.34251  0.61506  Biso   1.000  C
  H1845    1.0000 0.82853  0.33237  0.61547  Biso   1.000  H
  C1970    1.0000 0.88202  0.38301  0.61863  Biso   1.000  C
  C1971    1.0000 0.92307  0.39815  0.61805  Biso   1.000  C
  H1846    1.0000 0.94043  0.42527  0.62047  Biso   1.000  H
  C1972    1.0000 0.86603  0.40906  0.62274  Biso   1.000  C
  C1973    1.0000 0.09181  0.38174  0.65796  Biso   1.000  C
  H1847    1.0000 0.11683  0.38217  0.65577  Biso   1.000  H
  H1848    1.0000 0.07033  0.35447  0.65597  Biso   1.000  H
  C1974    1.0000 0.07614  0.36469  0.69592  Biso   1.000  C
  C1975    1.0000 0.06536  0.37483  0.71598  Biso   1.000  C
  H1849    1.0000 0.06813  0.39997  0.71777  Biso   1.000  H
  C1976    1.0000 0.05046  0.34737  0.73338  Biso   1.000  C
  H1850    1.0000 0.04323  0.35417  0.74677  Biso   1.000  H
  C1977    1.0000 0.04636  0.30976  0.73073  Biso   1.000  C
  H1851    1.0000 0.03643  0.29137  0.74237  Biso   1.000  H
  C1978    1.0000 0.05714  0.29962  0.71067  Biso   1.000  C
  C1979    1.0000 0.07204  0.32708  0.69327  Biso   1.000  C
  H1852    1.0000 0.07923  0.32027  0.67987  Biso   1.000  H
  C1980    1.0000 0.05342  0.25982  0.70797  Biso   1.000  C
  Mn88     1.0000 0.16883  0.32365  0.52765  Biso   1.000  Mn
  Mn89     1.0000 0.19335  0.41139  0.49515  Biso   1.000  Mn
  Mn90     1.0000 0.19339  0.48100  0.45915  Biso   1.000  Mn
  O581     1.0000 0.12192  0.32986  0.54717  Biso   1.000  O
  O582     1.0000 0.15178  0.37649  0.52314  Biso   1.000  O
  O583     1.0000 0.05831  0.43390  0.51704  Biso   1.000  O
  O584     1.0000 0.98845  0.46361  0.43493  Biso   1.000  O
  O585     1.0000 0.02030  0.50794  0.35521  Biso   1.000  O
  O586     1.0000 0.96307  0.47371  0.33704  Biso   1.000  O
  O587     1.0000 0.07822  0.60236  0.50326  Biso   1.000  O
  O588     1.0000 0.16797  0.75001  0.50767  Biso   1.000  O
  O589     1.0000 0.12949  0.77042  0.52317  Biso   1.000  O
  O590     1.0000 0.20223  0.46479  0.51417  Biso   1.000  O
  O591     1.0000 0.20778  0.51134  0.49158  Biso   1.000  O
  O592     1.0000 0.15794  0.50044  0.58602  Biso   1.000  O
  O593     1.0000 0.97688  0.38466  0.61157  Biso   1.000  O
  O594     1.0000 0.89012  0.44439  0.62907  Biso   1.000  O
  O595     1.0000 0.83058  0.39929  0.61923  Biso   1.000  O
  O596     1.0000 0.09054  0.39396  0.67997  Biso   1.000  O
  O597     1.0000 0.05905  0.24951  0.68930  Biso   1.000  O
  O598     1.0000 0.04470  0.23733  0.72500  Biso   1.000  O
  O599     1.0000 0.16343  0.26987  0.53797  Biso   1.000  O
  O600     1.0000 0.16873  0.26677  0.53507  Biso   1.000  O
  H1853    1.0000 0.14213  0.24567  0.53757  Biso   1.000  H
  H1854    1.0000 0.18473  0.26947  0.54787  Biso   1.000  H
  H1855    1.0000 0.19543  0.27157  0.53417  Biso   1.000  H
  H1856    1.0000 0.15273  0.24777  0.52387  Biso   1.000  H
  H1857    1.0000 0.13613  0.25067  0.54077  Biso   1.000  H
  H1858    1.0000 0.17833  0.27497  0.55157  Biso   1.000  H
  H1859    1.0000 0.18953  0.27307  0.53877  Biso   1.000  H
  H1860    1.0000 0.14733  0.24867  0.52797  Biso   1.000  H
  C1981    1.0000 0.90154  0.20870  0.86996  Biso   1.000  C
  C1982    1.0000 0.94321  0.23883  0.87339  Biso   1.000  C
  C1983    1.0000 0.95309  0.27102  0.88776  Biso   1.000  C
  H1861    1.0000 0.93330  0.27080  0.89670  Biso   1.000  H
  C1984    1.0000 0.99080  0.30247  0.88891  Biso   1.000  C
  H1862    1.0000 0.99690  0.32370  0.89850  Biso   1.000  H
  C1985    1.0000 0.01914  0.30270  0.87616  Biso   1.000  C
  H1863    1.0000 0.04490  0.32440  0.87680  Biso   1.000  H
  C1986    1.0000 0.01084  0.27072  0.86166  Biso   1.000  C
  C1987    1.0000 0.97270  0.23886  0.86032  Biso   1.000  C
  H1864    1.0000 0.96680  0.21760  0.85080  Biso   1.000  H
  C1988    1.0000 0.03805  0.24459  0.83486  Biso   1.000  C
  H1865    1.0000 0.02990  0.21970  0.84270  Biso   1.000  H
  H1866    1.0000 0.01800  0.24000  0.82370  Biso   1.000  H
  C1989    1.0000 0.07852  0.25958  0.82389  Biso   1.000  C
  C1990    1.0000 0.10981  0.26169  0.83631  Biso   1.000  C
  C1991    1.0000 0.14741  0.28025  0.82709  Biso   1.000  C
  C1992    1.0000 0.15343  0.29290  0.80493  Biso   1.000  C
  C1993    1.0000 0.12139  0.28930  0.79271  Biso   1.000  C
  C1994    1.0000 0.08303  0.27401  0.80286  Biso   1.000  C
  C1995    1.0000 0.04991  0.27436  0.78958  Biso   1.000  C
  H1867    1.0000 0.03400  0.28060  0.79930  Biso   1.000  H
  H1868    1.0000 0.06130  0.29410  0.77800  Biso   1.000  H
  H1869    1.0000 0.03330  0.24850  0.78300  Biso   1.000  H
  C1996    1.0000 0.10368  0.24361  0.85970  Biso   1.000  C
  H1870    1.0000 0.08080  0.21720  0.85970  Biso   1.000  H
  H1871    1.0000 0.12690  0.24230  0.86400  Biso   1.000  H
  H1872    1.0000 0.09950  0.26000  0.87010  Biso   1.000  H
  C1997    1.0000 0.19414  0.31098  0.79479  Biso   1.000  C
  H1873    1.0000 0.21000  0.30270  0.80310  Biso   1.000  H
  H1874    1.0000 0.19200  0.30230  0.77960  Biso   1.000  H
  H1875    1.0000 0.20660  0.33960  0.79520  Biso   1.000  H
  C1998    1.0000 0.18308  0.28741  0.84065  Biso   1.000  C
  H1876    1.0000 0.17790  0.28860  0.85640  Biso   1.000  H
  H1877    1.0000 0.20610  0.31260  0.83640  Biso   1.000  H
  C1999    1.0000 0.22375  0.25876  0.84714  Biso   1.000  C
  C2000    1.0000 0.24909  0.29112  0.86044  Biso   1.000  C
  H1878    1.0000 0.24370  0.31170  0.86290  Biso   1.000  H
  C2001    1.0000 0.28257  0.29274  0.87011  Biso   1.000  C
  H1879    1.0000 0.29950  0.31440  0.87900  Biso   1.000  H
  C2002    1.0000 0.29072  0.26200  0.86647  Biso   1.000  C
  H1880    1.0000 0.31310  0.26310  0.87290  Biso   1.000  H
  C2003    1.0000 0.26537  0.22963  0.85317  Biso   1.000  C
  C2004    1.0000 0.23189  0.22801  0.84350  Biso   1.000  C
  H1881    1.0000 0.21500  0.20640  0.83460  Biso   1.000  H
  C2005    1.0000 0.27406  0.19716  0.84934  Biso   1.000  C
  C2006    1.0000 0.12785  0.30412  0.76873  Biso   1.000  C
  H1882    1.0000 0.10290  0.29020  0.76060  Biso   1.000  H
  H1883    1.0000 0.14710  0.29860  0.76150  Biso   1.000  H
  C2007    1.0000 0.15491  0.36455  0.74860  Biso   1.000  C
  C2008    1.0000 0.16935  0.40542  0.74946  Biso   1.000  C
  H1884    1.0000 0.16940  0.41730  0.76300  Biso   1.000  H
  C2009    1.0000 0.18354  0.42843  0.73054  Biso   1.000  C
  H1885    1.0000 0.19390  0.45590  0.73130  Biso   1.000  H
  C2010    1.0000 0.18236  0.41034  0.71006  Biso   1.000  C
  H1886    1.0000 0.19090  0.42560  0.69710  Biso   1.000  H
  C2011    1.0000 0.16856  0.36989  0.70922  Biso   1.000  C
  C2012    1.0000 0.15397  0.34728  0.72864  Biso   1.000  C
  H1887    1.0000 0.14340  0.31980  0.72790  Biso   1.000  H
  C2013    1.0000 0.16673  0.34978  0.68755  Biso   1.000  C
  C2014    1.0000 0.95909  0.12994  0.84342  Biso   1.000  C
  C2015    1.0000 0.98526  0.13367  0.86261  Biso   1.000  C
  C2016    1.0000 0.01279  0.12062  0.86100  Biso   1.000  C
  H1888    1.0000 0.01410  0.10800  0.84800  Biso   1.000  H
  C2017    1.0000 0.03831  0.12635  0.87875  Biso   1.000  C
  H1889    1.0000 0.05670  0.11760  0.87770  Biso   1.000  H
  C2018    1.0000 0.03631  0.14514  0.89812  Biso   1.000  C
  H1890    1.0000 0.05340  0.14900  0.91000  Biso   1.000  H
  C2019    1.0000 0.00878  0.15819  0.89973  Biso   1.000  C
  C2020    1.0000 0.98326  0.15246  0.88197  Biso   1.000  C
  H1891    1.0000 0.96490  0.16120  0.88300  Biso   1.000  H
  C2021    1.0000 0.98834  0.19668  0.91937  Biso   1.000  C
  H1892    1.0000 0.99330  0.21150  0.90550  Biso   1.000  H
  H1893    1.0000 0.95990  0.17830  0.92060  Biso   1.000  H
  C2022    1.0000 0.00274  0.22549  0.93921  Biso   1.000  C
  C2023    1.0000 0.03844  0.26084  0.93792  Biso   1.000  C
  C2024    1.0000 0.04809  0.28945  0.95523  Biso   1.000  C
  C2025    1.0000 0.02144  0.28217  0.97205  Biso   1.000  C
  C2026    1.0000 0.98619  0.24531  0.97404  Biso   1.000  C
  C2027    1.0000 0.97743  0.21552  0.95841  Biso   1.000  C
  C2028    1.0000 0.94122  0.17443  0.96059  Biso   1.000  C
  H1894    1.0000 0.94670  0.15510  0.95390  Biso   1.000  H
  H1895    1.0000 0.93500  0.16820  0.97610  Biso   1.000  H
  H1896    1.0000 0.91900  0.17390  0.95310  Biso   1.000  H
  C2029    1.0000 0.06558  0.27063  0.91906  Biso   1.000  C
  H1897    1.0000 0.06270  0.28870  0.90920  Biso   1.000  H
  H1898    1.0000 0.09260  0.28300  0.92440  Biso   1.000  H
  H1899    1.0000 0.05930  0.24660  0.91110  Biso   1.000  H
  C2030    1.0000 0.03076  0.31570  0.98889  Biso   1.000  C
  H1900    1.0000 0.03760  0.33990  0.98100  Biso   1.000  H
  H1901    1.0000 0.00770  0.30830  0.99810  Biso   1.000  H
  H1902    1.0000 0.05280  0.31980  0.99810  Biso   1.000  H
  C2031    1.0000 0.08624  0.32833  0.95386  Biso   1.000  C
  H1903    1.0000 0.10500  0.32630  0.94400  Biso   1.000  H
  H1904    1.0000 0.09840  0.33680  0.96850  Biso   1.000  H
  C2032    1.0000 0.10130  0.39519  0.94724  Biso   1.000  C
  C2033    1.0000 0.08680  0.42118  0.94366  Biso   1.000  C
  H1905    1.0000 0.05970  0.41110  0.94090  Biso   1.000  H
  C2034    1.0000 0.11271  0.46223  0.94424  Biso   1.000  C
  H1906    1.0000 0.10300  0.47960  0.94180  Biso   1.000  H
  C2035    1.0000 0.15313  0.47729  0.94839  Biso   1.000  C
  H1907    1.0000 0.17050  0.50480  0.94880  Biso   1.000  H
  C2036    1.0000 0.16765  0.45131  0.95196  Biso   1.000  C
  C2037    1.0000 0.14174  0.41026  0.95138  Biso   1.000  C
  H1908    1.0000 0.15150  0.39290  0.95380  Biso   1.000  H
  C2038    1.0000 0.20969  0.46730  0.95607  Biso   1.000  C
  C2039    1.0000 0.95659  0.24152  0.99129  Biso   1.000  C
  H1909    1.0000 0.93200  0.21650  0.98910  Biso   1.000  H
  H1910    1.0000 0.95080  0.26300  0.98930  Biso   1.000  H
  C2040    1.0000 0.95521  0.25719  0.02925  Biso   1.000  C
  C2041    1.0000 0.97613  0.26797  0.04931  Biso   1.000  C
  H1911    1.0000 0.99850  0.26520  0.05110  Biso   1.000  H
  C2042    1.0000 0.96357  0.28287  0.06671  Biso   1.000  C
  H1912    1.0000 0.97760  0.29010  0.08010  Biso   1.000  H
  C2043    1.0000 0.93006  0.28697  0.06406  Biso   1.000  C
  H1913    1.0000 0.92160  0.29690  0.07570  Biso   1.000  H
  C2044    1.0000 0.90914  0.27619  0.04400  Biso   1.000  C
  C2045    1.0000 0.92170  0.26129  0.02660  Biso   1.000  C
  H1914    1.0000 0.90770  0.25410  0.01320  Biso   1.000  H
  C2046    1.0000 0.87306  0.27991  0.04130  Biso   1.000  C
  Mn91     1.0000 0.82149  0.16450  0.86098  Biso   1.000  Mn
  Mn92     1.0000 0.88471  0.13998  0.82848  Biso   1.000  Mn
  Mn93     1.0000 0.95427  0.13994  0.79248  Biso   1.000  Mn
  O601     1.0000 0.87460  0.21141  0.88050  Biso   1.000  O
  O602     1.0000 0.89137  0.18155  0.85647  Biso   1.000  O
  O603     1.0000 0.04225  0.27502  0.85037  Biso   1.000  O
  O604     1.0000 0.14182  0.34488  0.76826  Biso   1.000  O
  O605     1.0000 0.15430  0.31303  0.68854  Biso   1.000  O
  O606     1.0000 0.17730  0.37026  0.67037  Biso   1.000  O
  O607     1.0000 0.19080  0.25511  0.83659  Biso   1.000  O
  O608     1.0000 0.24870  0.16536  0.84100  Biso   1.000  O
  O609     1.0000 0.30759  0.20384  0.85650  Biso   1.000  O
  O610     1.0000 0.92922  0.13110  0.84750  Biso   1.000  O
  O611     1.0000 0.97022  0.12555  0.82491  Biso   1.000  O
  O612     1.0000 0.00916  0.17539  0.91935  Biso   1.000  O
  O613     1.0000 0.07444  0.35645  0.94490  Biso   1.000  O
  O614     1.0000 0.22093  0.44321  0.96240  Biso   1.000  O
  O615     1.0000 0.23537  0.50275  0.95256  Biso   1.000  O
  O616     1.0000 0.97008  0.24279  0.01330  Biso   1.000  O
  O617     1.0000 0.85712  0.27428  0.02263  Biso   1.000  O
  O618     1.0000 0.85929  0.28863  0.05833  Biso   1.000  O
  O619     1.0000 0.77310  0.16990  0.87130  Biso   1.000  O
  O620     1.0000 0.76470  0.16460  0.86840  Biso   1.000  O
  H1915    1.0000 0.77020  0.19120  0.87090  Biso   1.000  H
  H1916    1.0000 0.75140  0.14860  0.88120  Biso   1.000  H
  H1917    1.0000 0.74280  0.13790  0.86750  Biso   1.000  H
  H1918    1.0000 0.76170  0.18060  0.85720  Biso   1.000  H
  H1919    1.0000 0.78120  0.19720  0.87410  Biso   1.000  H
  H1920    1.0000 0.76330  0.15500  0.88490  Biso   1.000  H
  H1921    1.0000 0.75020  0.14380  0.87210  Biso   1.000  H
  H1922    1.0000 0.76800  0.18600  0.86130  Biso   1.000  H
  C2047    1.0000 0.56821  0.54203  0.20329  Biso   1.000  C
  C2048    1.0000 0.60988  0.57216  0.20672  Biso   1.000  C
  C2049    1.0000 0.61976  0.60435  0.22109  Biso   1.000  C
  H1923    1.0000 0.59997  0.60413  0.23003  Biso   1.000  H
  C2050    1.0000 0.65747  0.63580  0.22224  Biso   1.000  C
  H1924    1.0000 0.66357  0.65703  0.23183  Biso   1.000  H
  C2051    1.0000 0.68581  0.63603  0.20949  Biso   1.000  C
  H1925    1.0000 0.71157  0.65773  0.21013  Biso   1.000  H
  C2052    1.0000 0.67751  0.60405  0.19499  Biso   1.000  C
  C2053    1.0000 0.63937  0.57219  0.19365  Biso   1.000  C
  H1926    1.0000 0.63347  0.55093  0.18413  Biso   1.000  H
  C2054    1.0000 0.70472  0.57792  0.16819  Biso   1.000  C
  H1927    1.0000 0.69657  0.55303  0.17603  Biso   1.000  H
  H1928    1.0000 0.68467  0.57333  0.15703  Biso   1.000  H
  C2055    1.0000 0.74519  0.59291  0.15722  Biso   1.000  C
  C2056    1.0000 0.77648  0.59502  0.16964  Biso   1.000  C
  C2057    1.0000 0.81408  0.61358  0.16042  Biso   1.000  C
  C2058    1.0000 0.82010  0.62623  0.13826  Biso   1.000  C
  C2059    1.0000 0.78806  0.62263  0.12604  Biso   1.000  C
  C2060    1.0000 0.74970  0.60734  0.13619  Biso   1.000  C
  C2061    1.0000 0.71658  0.60769  0.12291  Biso   1.000  C
  H1929    1.0000 0.70067  0.61393  0.13263  Biso   1.000  H
  H1930    1.0000 0.72797  0.62743  0.11133  Biso   1.000  H
  H1931    1.0000 0.69997  0.58183  0.11633  Biso   1.000  H
  C2062    1.0000 0.77035  0.57694  0.19303  Biso   1.000  C
  H1932    1.0000 0.74747  0.55053  0.19303  Biso   1.000  H
  H1933    1.0000 0.79357  0.57563  0.19733  Biso   1.000  H
  H1934    1.0000 0.76617  0.59333  0.20343  Biso   1.000  H
  C2063    1.0000 0.86081  0.64431  0.12812  Biso   1.000  C
  H1935    1.0000 0.87667  0.63603  0.13643  Biso   1.000  H
  H1936    1.0000 0.85867  0.63563  0.11293  Biso   1.000  H
  H1937    1.0000 0.87327  0.67293  0.12853  Biso   1.000  H
  C2064    1.0000 0.84975  0.62074  0.17398  Biso   1.000  C
  H1938    1.0000 0.84457  0.62193  0.18973  Biso   1.000  H
  H1939    1.0000 0.87277  0.64593  0.16973  Biso   1.000  H
  C2065    1.0000 0.89042  0.59209  0.18047  Biso   1.000  C
  C2066    1.0000 0.91576  0.62445  0.19377  Biso   1.000  C
  H1940    1.0000 0.91037  0.64503  0.19623  Biso   1.000  H
  C2067    1.0000 0.94924  0.62607  0.20344  Biso   1.000  C
  H1941    1.0000 0.96617  0.64773  0.21233  Biso   1.000  H
  C2068    1.0000 0.95739  0.59533  0.19980  Biso   1.000  C
  H1942    1.0000 0.97977  0.59643  0.20623  Biso   1.000  H
  C2069    1.0000 0.93204  0.56296  0.18650  Biso   1.000  C
  C2070    1.0000 0.89856  0.56134  0.17683  Biso   1.000  C
  H1943    1.0000 0.88167  0.53973  0.16793  Biso   1.000  H
  C2071    1.0000 0.94073  0.53049  0.18267  Biso   1.000  C
  C2072    1.0000 0.79452  0.63745  0.10206  Biso   1.000  C
  H1944    1.0000 0.76957  0.62353  0.09393  Biso   1.000  H
  H1945    1.0000 0.81377  0.63193  0.09483  Biso   1.000  H
  C2073    1.0000 0.82158  0.69788  0.08193  Biso   1.000  C
  C2074    1.0000 0.83602  0.73875  0.08279  Biso   1.000  C
  H1946    1.0000 0.83607  0.75063  0.09633  Biso   1.000  H
  C2075    1.0000 0.85021  0.76176  0.06387  Biso   1.000  C
  H1947    1.0000 0.86057  0.78923  0.06463  Biso   1.000  H
  C2076    1.0000 0.84903  0.74367  0.04339  Biso   1.000  C
  H1948    1.0000 0.85757  0.75893  0.03043  Biso   1.000  H
  C2077    1.0000 0.83523  0.70322  0.04255  Biso   1.000  C
  C2078    1.0000 0.82064  0.68061  0.06197  Biso   1.000  C
  H1949    1.0000 0.81007  0.65313  0.06123  Biso   1.000  H
  C2079    1.0000 0.83340  0.68311  0.02088  Biso   1.000  C
  C2080    1.0000 0.62576  0.46327  0.17675  Biso   1.000  C
  C2081    1.0000 0.65193  0.46700  0.19594  Biso   1.000  C
  C2082    1.0000 0.67946  0.45395  0.19433  Biso   1.000  C
  H1950    1.0000 0.68077  0.44133  0.18133  Biso   1.000  H
  C2083    1.0000 0.70498  0.45968  0.21208  Biso   1.000  C
  H1951    1.0000 0.72337  0.45093  0.21103  Biso   1.000  H
  C2084    1.0000 0.70298  0.47847  0.23145  Biso   1.000  C
  H1952    1.0000 0.72007  0.48233  0.24333  Biso   1.000  H
  C2085    1.0000 0.67545  0.49152  0.23306  Biso   1.000  C
  C2086    1.0000 0.64993  0.48579  0.21530  Biso   1.000  C
  H1953    1.0000 0.63157  0.49453  0.21633  Biso   1.000  H
  C2087    1.0000 0.65501  0.53001  0.25270  Biso   1.000  C
  H1954    1.0000 0.65997  0.54483  0.23883  Biso   1.000  H
  H1955    1.0000 0.62657  0.51163  0.25393  Biso   1.000  H
  C2088    1.0000 0.66941  0.55882  0.27254  Biso   1.000  C
  C2089    1.0000 0.70511  0.59417  0.27125  Biso   1.000  C
  C2090    1.0000 0.71476  0.62278  0.28856  Biso   1.000  C
  C2091    1.0000 0.68811  0.61550  0.30538  Biso   1.000  C
  C2092    1.0000 0.65286  0.57864  0.30737  Biso   1.000  C
  C2093    1.0000 0.64410  0.54885  0.29174  Biso   1.000  C
  C2094    1.0000 0.60789  0.50776  0.29392  Biso   1.000  C
  H1956    1.0000 0.61337  0.48843  0.28723  Biso   1.000  H
  H1957    1.0000 0.60167  0.50153  0.30943  Biso   1.000  H
  H1958    1.0000 0.58567  0.50723  0.28643  Biso   1.000  H
  C2095    1.0000 0.73225  0.60396  0.25239  Biso   1.000  C
  H1959    1.0000 0.72937  0.62203  0.24253  Biso   1.000  H
  H1960    1.0000 0.75927  0.61633  0.25773  Biso   1.000  H
  H1961    1.0000 0.72597  0.57993  0.24443  Biso   1.000  H
  C2096    1.0000 0.69743  0.64903  0.32222  Biso   1.000  C
  H1962    1.0000 0.70427  0.67323  0.31433  Biso   1.000  H
  H1963    1.0000 0.67437  0.64163  0.33143  Biso   1.000  H
  H1964    1.0000 0.71947  0.65313  0.33143  Biso   1.000  H
  C2097    1.0000 0.75291  0.66166  0.28719  Biso   1.000  C
  H1965    1.0000 0.77167  0.65963  0.27733  Biso   1.000  H
  H1966    1.0000 0.76507  0.67013  0.30183  Biso   1.000  H
  C2098    1.0000 0.76797  0.72852  0.28057  Biso   1.000  C
  C2099    1.0000 0.75347  0.75451  0.27699  Biso   1.000  C
  H1967    1.0000 0.72637  0.74443  0.27423  Biso   1.000  H
  C2100    1.0000 0.77938  0.79556  0.27757  Biso   1.000  C
  H1968    1.0000 0.76967  0.81293  0.27513  Biso   1.000  H
  C2101    1.0000 0.81980  0.81062  0.28172  Biso   1.000  C
  H1969    1.0000 0.83717  0.83813  0.28213  Biso   1.000  H
  C2102    1.0000 0.83432  0.78464  0.28529  Biso   1.000  C
  C2103    1.0000 0.80841  0.74359  0.28471  Biso   1.000  C
  H1970    1.0000 0.81817  0.72623  0.28713  Biso   1.000  H
  C2104    1.0000 0.87636  0.80063  0.28940  Biso   1.000  C
  C2105    1.0000 0.62326  0.57485  0.32462  Biso   1.000  C
  H1971    1.0000 0.59867  0.54983  0.32243  Biso   1.000  H
  H1972    1.0000 0.61747  0.59633  0.32263  Biso   1.000  H
  C2106    1.0000 0.62188  0.59052  0.36258  Biso   1.000  C
  C2107    1.0000 0.64280  0.60130  0.38264  Biso   1.000  C
  H1973    1.0000 0.66517  0.59853  0.38443  Biso   1.000  H
  C2108    1.0000 0.63024  0.61620  0.40004  Biso   1.000  C
  H1974    1.0000 0.64427  0.62343  0.41343  Biso   1.000  H
  C2109    1.0000 0.59673  0.62030  0.39739  Biso   1.000  C
  H1975    1.0000 0.58827  0.63023  0.40903  Biso   1.000  H
  C2110    1.0000 0.57581  0.60952  0.37733  Biso   1.000  C
  C2111    1.0000 0.58837  0.59462  0.35993  Biso   1.000  C
  H1976    1.0000 0.57437  0.58743  0.34653  Biso   1.000  H
  C2112    1.0000 0.53973  0.61324  0.37463  Biso   1.000  C
  Mn94     1.0000 0.48815  0.49784  0.19431  Biso   1.000  Mn
  Mn95     1.0000 0.55137  0.47331  0.16182  Biso   1.000  Mn
  Mn96     1.0000 0.62094  0.47328  0.12582  Biso   1.000  Mn
  O621     1.0000 0.54127  0.54474  0.21383  Biso   1.000  O
  O622     1.0000 0.55804  0.51488  0.18980  Biso   1.000  O
  O623     1.0000 0.70892  0.60835  0.18370  Biso   1.000  O
  O624     1.0000 0.80849  0.67821  0.10159  Biso   1.000  O
  O625     1.0000 0.82097  0.64636  0.02187  Biso   1.000  O
  O626     1.0000 0.84397  0.70359  0.00370  Biso   1.000  O
  O627     1.0000 0.85747  0.58844  0.16992  Biso   1.000  O
  O628     1.0000 0.91537  0.49869  0.17433  Biso   1.000  O
  O629     1.0000 0.97426  0.53717  0.18983  Biso   1.000  O
  O630     1.0000 0.59589  0.46443  0.18083  Biso   1.000  O
  O631     1.0000 0.63689  0.45888  0.15824  Biso   1.000  O
  O632     1.0000 0.67583  0.50872  0.25268  Biso   1.000  O
  O633     1.0000 0.74111  0.68978  0.27823  Biso   1.000  O
  O634     1.0000 0.88760  0.77654  0.29573  Biso   1.000  O
  O635     1.0000 0.90204  0.83608  0.28589  Biso   1.000  O
  O636     1.0000 0.63675  0.57612  0.34663  Biso   1.000  O
  O637     1.0000 0.52379  0.60761  0.35596  Biso   1.000  O
  O638     1.0000 0.52596  0.62196  0.39166  Biso   1.000  O
  O639     1.0000 0.43977  0.50323  0.20463  Biso   1.000  O
  O640     1.0000 0.43137  0.49793  0.20173  Biso   1.000  O
  H1977    1.0000 0.43687  0.52453  0.20423  Biso   1.000  H
  H1978    1.0000 0.41807  0.48193  0.21453  Biso   1.000  H
  H1979    1.0000 0.40947  0.47123  0.20083  Biso   1.000  H
  H1980    1.0000 0.42837  0.51393  0.19053  Biso   1.000  H
  H1981    1.0000 0.44787  0.53053  0.20743  Biso   1.000  H
  H1982    1.0000 0.42997  0.48833  0.21823  Biso   1.000  H
  H1983    1.0000 0.41687  0.47713  0.20543  Biso   1.000  H
  H1984    1.0000 0.43467  0.51933  0.19463  Biso   1.000  H
  C2113    1.0000 0.23487  0.87537  0.53663  Biso   1.000  C
  C2114    1.0000 0.27654  0.90550  0.54006  Biso   1.000  C
  C2115    1.0000 0.28642  0.93769  0.55443  Biso   1.000  C
  H1985    1.0000 0.26663  0.93747  0.56337  Biso   1.000  H
  C2116    1.0000 0.32413  0.96914  0.55558  Biso   1.000  C
  H1986    1.0000 0.33023  0.99037  0.56517  Biso   1.000  H
  C2117    1.0000 0.35247  0.96937  0.54283  Biso   1.000  C
  H1987    1.0000 0.37823  0.99107  0.54347  Biso   1.000  H
  C2118    1.0000 0.34417  0.93739  0.52833  Biso   1.000  C
  C2119    1.0000 0.30603  0.90553  0.52699  Biso   1.000  C
  H1988    1.0000 0.30013  0.88427  0.51747  Biso   1.000  H
  C2120    1.0000 0.37138  0.91126  0.50153  Biso   1.000  C
  H1989    1.0000 0.36323  0.88637  0.50937  Biso   1.000  H
  H1990    1.0000 0.35133  0.90667  0.49037  Biso   1.000  H
  C2121    1.0000 0.41185  0.92625  0.49056  Biso   1.000  C
  C2122    1.0000 0.44314  0.92836  0.50298  Biso   1.000  C
  C2123    1.0000 0.48074  0.94692  0.49376  Biso   1.000  C
  C2124    1.0000 0.48676  0.95957  0.47160  Biso   1.000  C
  C2125    1.0000 0.45472  0.95597  0.45938  Biso   1.000  C
  C2126    1.0000 0.41636  0.94068  0.46953  Biso   1.000  C
  C2127    1.0000 0.38324  0.94103  0.45625  Biso   1.000  C
  H1991    1.0000 0.36733  0.94727  0.46597  Biso   1.000  H
  H1992    1.0000 0.39463  0.96077  0.44467  Biso   1.000  H
  H1993    1.0000 0.36663  0.91517  0.44967  Biso   1.000  H
  C2128    1.0000 0.43701  0.91028  0.52637  Biso   1.000  C
  H1994    1.0000 0.41413  0.88387  0.52637  Biso   1.000  H
  H1995    1.0000 0.46023  0.90897  0.53067  Biso   1.000  H
  H1996    1.0000 0.43283  0.92667  0.53677  Biso   1.000  H
  C2129    1.0000 0.52747  0.97765  0.46146  Biso   1.000  C
  H1997    1.0000 0.54333  0.96937  0.46977  Biso   1.000  H
  H1998    1.0000 0.52533  0.96897  0.44627  Biso   1.000  H
  H1999    1.0000 0.53993  0.00627  0.46187  Biso   1.000  H
  C2130    1.0000 0.51641  0.95408  0.50732  Biso   1.000  C
  H2000    1.0000 0.51123  0.95527  0.52307  Biso   1.000  H
  H2001    1.0000 0.53943  0.97927  0.50307  Biso   1.000  H
  C2131    1.0000 0.55708  0.92543  0.51381  Biso   1.000  C
  C2132    1.0000 0.58242  0.95779  0.52711  Biso   1.000  C
  H2002    1.0000 0.57703  0.97837  0.52957  Biso   1.000  H
  C2133    1.0000 0.61590  0.95941  0.53678  Biso   1.000  C
  H2003    1.0000 0.63283  0.98107  0.54567  Biso   1.000  H
  C2134    1.0000 0.62405  0.92867  0.53314  Biso   1.000  C
  H2004    1.0000 0.64643  0.92977  0.53957  Biso   1.000  H
  C2135    1.0000 0.59870  0.89630  0.51984  Biso   1.000  C
  C2136    1.0000 0.56522  0.89468  0.51017  Biso   1.000  C
  H2005    1.0000 0.54833  0.87307  0.50127  Biso   1.000  H
  C2137    1.0000 0.60739  0.86383  0.51601  Biso   1.000  C
  C2138    1.0000 0.46118  0.97079  0.43540  Biso   1.000  C
  H2006    1.0000 0.43623  0.95687  0.42727  Biso   1.000  H
  H2007    1.0000 0.48043  0.96527  0.42817  Biso   1.000  H
  C2139    1.0000 0.48824  0.03122  0.41527  Biso   1.000  C
  C2140    1.0000 0.50268  0.07209  0.41613  Biso   1.000  C
  H2008    1.0000 0.50273  0.08397  0.42967  Biso   1.000  H
  C2141    1.0000 0.51687  0.09510  0.39721  Biso   1.000  C
  H2009    1.0000 0.52723  0.12257  0.39797  Biso   1.000  H
  C2142    1.0000 0.51569  0.07701  0.37673  Biso   1.000  C
  H2010    1.0000 0.52423  0.09227  0.36377  Biso   1.000  H
  C2143    1.0000 0.50189  0.03656  0.37589  Biso   1.000  C
  C2144    1.0000 0.48730  0.01395  0.39531  Biso   1.000  C
  H2011    1.0000 0.47673  0.98647  0.39457  Biso   1.000  H
  C2145    1.0000 0.50006  0.01645  0.35422  Biso   1.000  C
  C2146    1.0000 0.29242  0.79661  0.51009  Biso   1.000  C
  C2147    1.0000 0.31859  0.80034  0.52928  Biso   1.000  C
  C2148    1.0000 0.34612  0.78729  0.52767  Biso   1.000  C
  H2012    1.0000 0.34743  0.77467  0.51467  Biso   1.000  H
  C2149    1.0000 0.37164  0.79302  0.54542  Biso   1.000  C
  H2013    1.0000 0.39003  0.78427  0.54437  Biso   1.000  H
  C2150    1.0000 0.36964  0.81181  0.56479  Biso   1.000  C
  H2014    1.0000 0.38673  0.81567  0.57667  Biso   1.000  H
  C2151    1.0000 0.34211  0.82486  0.56640  Biso   1.000  C
  C2152    1.0000 0.31659  0.81913  0.54864  Biso   1.000  C
  H2015    1.0000 0.29823  0.82787  0.54967  Biso   1.000  H
  C2153    1.0000 0.32167  0.86335  0.58604  Biso   1.000  C
  H2016    1.0000 0.32663  0.87817  0.57217  Biso   1.000  H
  H2017    1.0000 0.29323  0.84497  0.58727  Biso   1.000  H
  C2154    1.0000 0.33607  0.89216  0.60588  Biso   1.000  C
  C2155    1.0000 0.37177  0.92751  0.60459  Biso   1.000  C
  C2156    1.0000 0.38142  0.95612  0.62190  Biso   1.000  C
  C2157    1.0000 0.35477  0.94884  0.63872  Biso   1.000  C
  C2158    1.0000 0.31952  0.91198  0.64071  Biso   1.000  C
  C2159    1.0000 0.31076  0.88219  0.62508  Biso   1.000  C
  C2160    1.0000 0.27455  0.84110  0.62726  Biso   1.000  C
  H2018    1.0000 0.28003  0.82177  0.62057  Biso   1.000  H
  H2019    1.0000 0.26833  0.83487  0.64277  Biso   1.000  H
  H2020    1.0000 0.25233  0.84057  0.61977  Biso   1.000  H
  C2161    1.0000 0.39891  0.93730  0.58573  Biso   1.000  C
  H2021    1.0000 0.39603  0.95537  0.57587  Biso   1.000  H
  H2022    1.0000 0.42593  0.94967  0.59107  Biso   1.000  H
  H2023    1.0000 0.39263  0.91327  0.57777  Biso   1.000  H
  C2162    1.0000 0.36409  0.98237  0.65556  Biso   1.000  C
  H2024    1.0000 0.37093  0.00657  0.64767  Biso   1.000  H
  H2025    1.0000 0.34103  0.97497  0.66477  Biso   1.000  H
  H2026    1.0000 0.38613  0.98647  0.66477  Biso   1.000  H
  C2163    1.0000 0.41957  0.99500  0.62053  Biso   1.000  C
  H2027    1.0000 0.43833  0.99297  0.61067  Biso   1.000  H
  H2028    1.0000 0.43173  0.00347  0.63517  Biso   1.000  H
  C2164    1.0000 0.43463  0.06186  0.61391  Biso   1.000  C
  C2165    1.0000 0.42013  0.08785  0.61033  Biso   1.000  C
  H2029    1.0000 0.39303  0.07777  0.60757  Biso   1.000  H
  C2166    1.0000 0.44604  0.12890  0.61091  Biso   1.000  C
  H2030    1.0000 0.43633  0.14627  0.60847  Biso   1.000  H
  C2167    1.0000 0.48646  0.14396  0.61506  Biso   1.000  C
  H2031    1.0000 0.50383  0.17147  0.61547  Biso   1.000  H
  C2168    1.0000 0.50098  0.11798  0.61863  Biso   1.000  C
  C2169    1.0000 0.47507  0.07693  0.61805  Biso   1.000  C
  H2032    1.0000 0.48483  0.05957  0.62047  Biso   1.000  H
  C2170    1.0000 0.54302  0.13397  0.62274  Biso   1.000  C
  C2171    1.0000 0.28992  0.90819  0.65796  Biso   1.000  C
  H2033    1.0000 0.26533  0.88317  0.65577  Biso   1.000  H
  H2034    1.0000 0.28413  0.92967  0.65597  Biso   1.000  H
  C2172    1.0000 0.28854  0.92386  0.69592  Biso   1.000  C
  C2173    1.0000 0.30946  0.93464  0.71598  Biso   1.000  C
  H2035    1.0000 0.33183  0.93187  0.71777  Biso   1.000  H
  C2174    1.0000 0.29690  0.94954  0.73338  Biso   1.000  C
  H2036    1.0000 0.31093  0.95677  0.74677  Biso   1.000  H
  C2175    1.0000 0.26339  0.95364  0.73073  Biso   1.000  C
  H2037    1.0000 0.25493  0.96357  0.74237  Biso   1.000  H
  C2176    1.0000 0.24247  0.94286  0.71067  Biso   1.000  C
  C2177    1.0000 0.25503  0.92796  0.69327  Biso   1.000  C
  H2038    1.0000 0.24103  0.92077  0.67987  Biso   1.000  H
  C2178    1.0000 0.20639  0.94658  0.70797  Biso   1.000  C
  Mn97     1.0000 0.15482  0.83117  0.52765  Biso   1.000  Mn
  Mn98     1.0000 0.21804  0.80665  0.49515  Biso   1.000  Mn
  Mn99     1.0000 0.28761  0.80661  0.45915  Biso   1.000  Mn
  O641     1.0000 0.20793  0.87808  0.54717  Biso   1.000  O
  O642     1.0000 0.22470  0.84822  0.52314  Biso   1.000  O
  O643     1.0000 0.37558  0.94169  0.51704  Biso   1.000  O
  O644     1.0000 0.47515  0.01155  0.43493  Biso   1.000  O
  O645     1.0000 0.48763  0.97970  0.35521  Biso   1.000  O
  O646     1.0000 0.51063  0.03693  0.33704  Biso   1.000  O
  O647     1.0000 0.52413  0.92178  0.50326  Biso   1.000  O
  O648     1.0000 0.58203  0.83203  0.50767  Biso   1.000  O
  O649     1.0000 0.64092  0.87051  0.52317  Biso   1.000  O
  O650     1.0000 0.26255  0.79777  0.51417  Biso   1.000  O
  O651     1.0000 0.30355  0.79222  0.49158  Biso   1.000  O
  O652     1.0000 0.34249  0.84206  0.58602  Biso   1.000  O
  O653     1.0000 0.40777  0.02312  0.61157  Biso   1.000  O
  O654     1.0000 0.55426  0.10988  0.62907  Biso   1.000  O
  O655     1.0000 0.56870  0.16942  0.61923  Biso   1.000  O
  O656     1.0000 0.30341  0.90946  0.67997  Biso   1.000  O
  O657     1.0000 0.19045  0.94095  0.68930  Biso   1.000  O
  O658     1.0000 0.19262  0.95530  0.72500  Biso   1.000  O
  O659     1.0000 0.10643  0.83657  0.53797  Biso   1.000  O
  O660     1.0000 0.09803  0.83127  0.53507  Biso   1.000  O
  H2039    1.0000 0.10353  0.85787  0.53757  Biso   1.000  H
  H2040    1.0000 0.08473  0.81527  0.54787  Biso   1.000  H
  H2041    1.0000 0.07613  0.80457  0.53417  Biso   1.000  H
  H2042    1.0000 0.09503  0.84727  0.52387  Biso   1.000  H
  H2043    1.0000 0.11453  0.86387  0.54077  Biso   1.000  H
  H2044    1.0000 0.09663  0.82167  0.55157  Biso   1.000  H
  H2045    1.0000 0.08353  0.81047  0.53877  Biso   1.000  H
  H2046    1.0000 0.10133  0.85267  0.52797  Biso   1.000  H
  C2179    1.0000 0.30716  0.09846  0.86996  Biso   1.000  C
  C2180    1.0000 0.29562  0.05679  0.87339  Biso   1.000  C
  C2181    1.0000 0.31793  0.04691  0.88776  Biso   1.000  C
  H2047    1.0000 0.33750  0.06670  0.89670  Biso   1.000  H
  C2182    1.0000 0.31167  0.00920  0.88891  Biso   1.000  C
  H2048    1.0000 0.32680  0.00310  0.89850  Biso   1.000  H
  C2183    1.0000 0.28356  0.98086  0.87616  Biso   1.000  C
  H2049    1.0000 0.27950  0.95510  0.87680  Biso   1.000  H
  C2184    1.0000 0.25988  0.98916  0.86166  Biso   1.000  C
  C2185    1.0000 0.26616  0.02730  0.86032  Biso   1.000  C
  H2050    1.0000 0.25080  0.03320  0.85080  Biso   1.000  H
  C2186    1.0000 0.20654  0.96195  0.83486  Biso   1.000  C
  H2051    1.0000 0.18980  0.97010  0.84270  Biso   1.000  H
  H2052    1.0000 0.22200  0.98200  0.82370  Biso   1.000  H
  C2187    1.0000 0.18106  0.92148  0.82389  Biso   1.000  C
  C2188    1.0000 0.15188  0.89019  0.83631  Biso   1.000  C
  C2189    1.0000 0.13284  0.85259  0.82709  Biso   1.000  C
  C2190    1.0000 0.13947  0.84657  0.80493  Biso   1.000  C
  C2191    1.0000 0.16791  0.87861  0.79271  Biso   1.000  C
  C2192    1.0000 0.19098  0.91697  0.80286  Biso   1.000  C
  C2193    1.0000 0.22445  0.95009  0.78958  Biso   1.000  C
  H2053    1.0000 0.24660  0.96600  0.79930  Biso   1.000  H
  H2054    1.0000 0.23280  0.93870  0.77800  Biso   1.000  H
  H2055    1.0000 0.21520  0.96670  0.78300  Biso   1.000  H
  C2194    1.0000 0.13993  0.89632  0.85970  Biso   1.000  C
  H2056    1.0000 0.13640  0.91920  0.85970  Biso   1.000  H
  H2057    1.0000 0.11540  0.87310  0.86400  Biso   1.000  H
  H2058    1.0000 0.16050  0.90050  0.87010  Biso   1.000  H
  C2195    1.0000 0.11684  0.80586  0.79479  Biso   1.000  C
  H2059    1.0000 0.09270  0.79000  0.80310  Biso   1.000  H
  H2060    1.0000 0.11030  0.80800  0.77960  Biso   1.000  H
  H2061    1.0000 0.13300  0.79340  0.79520  Biso   1.000  H
  C2196    1.0000 0.10433  0.81692  0.84065  Biso   1.000  C
  H2062    1.0000 0.11070  0.82210  0.85640  Biso   1.000  H
  H2063    1.0000 0.10650  0.79390  0.83640  Biso   1.000  H
  C2197    1.0000 0.03501  0.77625  0.84714  Biso   1.000  C
  C2198    1.0000 0.04203  0.75091  0.86044  Biso   1.000  C
  H2064    1.0000 0.06800  0.75630  0.86290  Biso   1.000  H
  C2199    1.0000 0.01017  0.71743  0.87011  Biso   1.000  C
  H2065    1.0000 0.01490  0.70050  0.87900  Biso   1.000  H
  C2200    1.0000 0.97128  0.70928  0.86647  Biso   1.000  C
  H2066    1.0000 0.95000  0.68690  0.87290  Biso   1.000  H
  C2201    1.0000 0.96426  0.73463  0.85317  Biso   1.000  C
  C2202    1.0000 0.99612  0.76811  0.84350  Biso   1.000  C
  H2067    1.0000 0.99140  0.78500  0.83460  Biso   1.000  H
  C2203    1.0000 0.92310  0.72594  0.84934  Biso   1.000  C
  C2204    1.0000 0.17627  0.87215  0.76873  Biso   1.000  C
  H2068    1.0000 0.18730  0.89710  0.76060  Biso   1.000  H
  H2069    1.0000 0.15150  0.85290  0.76150  Biso   1.000  H
  C2205    1.0000 0.20964  0.84509  0.74860  Biso   1.000  C
  C2206    1.0000 0.23607  0.83065  0.74946  Biso   1.000  C
  H2070    1.0000 0.24790  0.83060  0.76300  Biso   1.000  H
  C2207    1.0000 0.24489  0.81646  0.73054  Biso   1.000  C
  H2071    1.0000 0.26200  0.80610  0.73130  Biso   1.000  H
  C2208    1.0000 0.22798  0.81764  0.71006  Biso   1.000  C
  H2072    1.0000 0.23470  0.80910  0.69710  Biso   1.000  H
  C2209    1.0000 0.20133  0.83144  0.70922  Biso   1.000  C
  C2210    1.0000 0.19331  0.84603  0.72864  Biso   1.000  C
  H2073    1.0000 0.17640  0.85660  0.72790  Biso   1.000  H
  C2211    1.0000 0.18305  0.83327  0.68755  Biso   1.000  C
  C2212    1.0000 0.17085  0.04091  0.84342  Biso   1.000  C
  C2213    1.0000 0.14841  0.01474  0.86261  Biso   1.000  C
  C2214    1.0000 0.10783  0.98721  0.86100  Biso   1.000  C
  H2074    1.0000 0.09390  0.98590  0.84800  Biso   1.000  H
  C2215    1.0000 0.08804  0.96169  0.87875  Biso   1.000  C
  H2075    1.0000 0.06090  0.94330  0.87770  Biso   1.000  H
  C2216    1.0000 0.10883  0.96369  0.89812  Biso   1.000  C
  H2076    1.0000 0.09560  0.94660  0.91000  Biso   1.000  H
  C2217    1.0000 0.14941  0.99122  0.89973  Biso   1.000  C
  C2218    1.0000 0.16920  0.01674  0.88197  Biso   1.000  C
  H2077    1.0000 0.19630  0.03510  0.88300  Biso   1.000  H
  C2219    1.0000 0.20834  0.01166  0.91937  Biso   1.000  C
  H2078    1.0000 0.21820  0.00670  0.90550  Biso   1.000  H
  H2079    1.0000 0.21840  0.04010  0.92060  Biso   1.000  H
  C2220    1.0000 0.22275  0.99726  0.93921  Biso   1.000  C
  C2221    1.0000 0.22240  0.96156  0.93792  Biso   1.000  C
  C2222    1.0000 0.24136  0.95191  0.95523  Biso   1.000  C
  C2223    1.0000 0.26073  0.97856  0.97205  Biso   1.000  C
  C2224    1.0000 0.25912  0.01381  0.97404  Biso   1.000  C
  C2225    1.0000 0.23809  0.02257  0.95841  Biso   1.000  C
  C2226    1.0000 0.23321  0.05878  0.96059  Biso   1.000  C
  H2080    1.0000 0.20840  0.05330  0.95390  Biso   1.000  H
  H2081    1.0000 0.23320  0.06500  0.97610  Biso   1.000  H
  H2082    1.0000 0.25490  0.08100  0.95310  Biso   1.000  H
  C2227    1.0000 0.20505  0.93442  0.91906  Biso   1.000  C
  H2083    1.0000 0.22600  0.93730  0.90920  Biso   1.000  H
  H2084    1.0000 0.19040  0.90740  0.92440  Biso   1.000  H
  H2085    1.0000 0.18730  0.94070  0.91110  Biso   1.000  H
  C2228    1.0000 0.28494  0.96924  0.98889  Biso   1.000  C
  H2086    1.0000 0.30230  0.96240  0.98100  Biso   1.000  H
  H2087    1.0000 0.30060  0.99230  0.99810  Biso   1.000  H
  H2088    1.0000 0.26700  0.94720  0.99810  Biso   1.000  H
  C2229    1.0000 0.24209  0.91376  0.95386  Biso   1.000  C
  H2089    1.0000 0.22130  0.89500  0.94400  Biso   1.000  H
  H2090    1.0000 0.23840  0.90160  0.96850  Biso   1.000  H
  C2230    1.0000 0.29389  0.89870  0.94724  Biso   1.000  C
  C2231    1.0000 0.33438  0.91320  0.94366  Biso   1.000  C
  H2091    1.0000 0.35140  0.94030  0.94090  Biso   1.000  H
  C2232    1.0000 0.34952  0.88729  0.94424  Biso   1.000  C
  H2092    1.0000 0.37660  0.89700  0.94180  Biso   1.000  H
  C2233    1.0000 0.32416  0.84687  0.94839  Biso   1.000  C
  H2093    1.0000 0.33430  0.82950  0.94880  Biso   1.000  H
  C2234    1.0000 0.28366  0.83235  0.95196  Biso   1.000  C
  C2235    1.0000 0.26852  0.85826  0.95138  Biso   1.000  C
  H2094    1.0000 0.24140  0.84850  0.95380  Biso   1.000  H
  C2236    1.0000 0.25761  0.79031  0.95607  Biso   1.000  C
  C2237    1.0000 0.28493  0.04341  0.99129  Biso   1.000  C
  H2095    1.0000 0.28450  0.06800  0.98910  Biso   1.000  H
  H2096    1.0000 0.31220  0.04920  0.98930  Biso   1.000  H
  C2238    1.0000 0.30198  0.04479  0.02925  Biso   1.000  C
  C2239    1.0000 0.29184  0.02387  0.04931  Biso   1.000  C
  H2097    1.0000 0.26670  0.00150  0.05110  Biso   1.000  H
  C2240    1.0000 0.31930  0.03643  0.06671  Biso   1.000  C
  H2098    1.0000 0.31250  0.02240  0.08010  Biso   1.000  H
  C2241    1.0000 0.35691  0.06994  0.06406  Biso   1.000  C
  H2099    1.0000 0.37530  0.07840  0.07570  Biso   1.000  H
  C2242    1.0000 0.36705  0.09086  0.04400  Biso   1.000  C
  C2243    1.0000 0.33959  0.07830  0.02660  Biso   1.000  C
  H2100    1.0000 0.34640  0.09230  0.01320  Biso   1.000  H
  C2244    1.0000 0.40685  0.12694  0.04130  Biso   1.000  C
  Mn100    1.0000 0.34302  0.17851  0.86098  Biso   1.000  Mn
  Mn101    1.0000 0.25527  0.11529  0.82848  Biso   1.000  Mn
  Mn102    1.0000 0.18567  0.04573  0.79248  Biso   1.000  Mn
  O661     1.0000 0.33681  0.12540  0.88050  Biso   1.000  O
  O662     1.0000 0.29018  0.10863  0.85647  Biso   1.000  O
  O663     1.0000 0.23277  0.95775  0.85037  Biso   1.000  O
  O664     1.0000 0.20306  0.85818  0.76826  Biso   1.000  O
  O665     1.0000 0.15873  0.84570  0.68854  Biso   1.000  O
  O666     1.0000 0.19296  0.82270  0.67037  Biso   1.000  O
  O667     1.0000 0.06431  0.80920  0.83659  Biso   1.000  O
  O668     1.0000 0.91666  0.75130  0.84100  Biso   1.000  O
  O669     1.0000 0.89625  0.69241  0.85650  Biso   1.000  O
  O670     1.0000 0.20188  0.07078  0.84750  Biso   1.000  O
  O671     1.0000 0.15533  0.02978  0.82491  Biso   1.000  O
  O672     1.0000 0.16623  0.99084  0.91935  Biso   1.000  O
  O673     1.0000 0.28201  0.92556  0.94490  Biso   1.000  O
  O674     1.0000 0.22228  0.77907  0.96240  Biso   1.000  O
  O675     1.0000 0.26738  0.76463  0.95256  Biso   1.000  O
  O676     1.0000 0.27271  0.02992  0.01330  Biso   1.000  O
  O677     1.0000 0.41716  0.14288  0.02263  Biso   1.000  O
  O678     1.0000 0.42934  0.14071  0.05833  Biso   1.000  O
  O679     1.0000 0.39680  0.22690  0.87130  Biso   1.000  O
  O680     1.0000 0.39990  0.23530  0.86840  Biso   1.000  O
  H2101    1.0000 0.42100  0.22980  0.87090  Biso   1.000  H
  H2102    1.0000 0.39720  0.24860  0.88120  Biso   1.000  H
  H2103    1.0000 0.39510  0.25720  0.86750  Biso   1.000  H
  H2104    1.0000 0.41890  0.23830  0.85720  Biso   1.000  H
  H2105    1.0000 0.41600  0.21880  0.87410  Biso   1.000  H
  H2106    1.0000 0.39170  0.23670  0.88490  Biso   1.000  H
  H2107    1.0000 0.39360  0.24980  0.87210  Biso   1.000  H
  H2108    1.0000 0.41800  0.23200  0.86130  Biso   1.000  H
  C2245    1.0000 0.97383  0.43179  0.20329  Biso   1.000  C
  C2246    1.0000 0.96229  0.39012  0.20672  Biso   1.000  C
  C2247    1.0000 0.98460  0.38024  0.22109  Biso   1.000  C
  H2109    1.0000 0.00417  0.40003  0.23003  Biso   1.000  H
  C2248    1.0000 0.97834  0.34253  0.22224  Biso   1.000  C
  H2110    1.0000 0.99347  0.33643  0.23183  Biso   1.000  H
  C2249    1.0000 0.95023  0.31419  0.20949  Biso   1.000  C
  H2111    1.0000 0.94617  0.28843  0.21013  Biso   1.000  H
  C2250    1.0000 0.92655  0.32249  0.19499  Biso   1.000  C
  C2251    1.0000 0.93283  0.36063  0.19365  Biso   1.000  C
  H2112    1.0000 0.91747  0.36653  0.18413  Biso   1.000  H
  C2252    1.0000 0.87321  0.29528  0.16819  Biso   1.000  C
  H2113    1.0000 0.85647  0.30343  0.17603  Biso   1.000  H
  H2114    1.0000 0.88867  0.31533  0.15703  Biso   1.000  H
  C2253    1.0000 0.84773  0.25481  0.15722  Biso   1.000  C
  C2254    1.0000 0.81855  0.22352  0.16964  Biso   1.000  C
  C2255    1.0000 0.79951  0.18592  0.16042  Biso   1.000  C
  C2256    1.0000 0.80614  0.17990  0.13826  Biso   1.000  C
  C2257    1.0000 0.83458  0.21194  0.12604  Biso   1.000  C
  C2258    1.0000 0.85765  0.25030  0.13619  Biso   1.000  C
  C2259    1.0000 0.89112  0.28342  0.12291  Biso   1.000  C
  H2115    1.0000 0.91327  0.29933  0.13263  Biso   1.000  H
  H2116    1.0000 0.89947  0.27203  0.11133  Biso   1.000  H
  H2117    1.0000 0.88187  0.30003  0.11633  Biso   1.000  H
  C2260    1.0000 0.80660  0.22965  0.19303  Biso   1.000  C
  H2118    1.0000 0.80307  0.25253  0.19303  Biso   1.000  H
  H2119    1.0000 0.78207  0.20643  0.19733  Biso   1.000  H
  H2120    1.0000 0.82717  0.23383  0.20343  Biso   1.000  H
  C2261    1.0000 0.78351  0.13919  0.12812  Biso   1.000  C
  H2121    1.0000 0.75937  0.12333  0.13643  Biso   1.000  H
  H2122    1.0000 0.77697  0.14133  0.11293  Biso   1.000  H
  H2123    1.0000 0.79967  0.12673  0.12853  Biso   1.000  H
  C2262    1.0000 0.77100  0.15025  0.17398  Biso   1.000  C
  H2124    1.0000 0.77737  0.15543  0.18973  Biso   1.000  H
  H2125    1.0000 0.77317  0.12723  0.16973  Biso   1.000  H
  C2263    1.0000 0.70168  0.10958  0.18047  Biso   1.000  C
  C2264    1.0000 0.70870  0.08424  0.19377  Biso   1.000  C
  H2126    1.0000 0.73467  0.08963  0.19623  Biso   1.000  H
  C2265    1.0000 0.67684  0.05076  0.20344  Biso   1.000  C
  H2127    1.0000 0.68157  0.03383  0.21233  Biso   1.000  H
  C2266    1.0000 0.63795  0.04261  0.19980  Biso   1.000  C
  H2128    1.0000 0.61667  0.02023  0.20623  Biso   1.000  H
  C2267    1.0000 0.63093  0.06796  0.18650  Biso   1.000  C
  C2268    1.0000 0.66279  0.10144  0.17683  Biso   1.000  C
  H2129    1.0000 0.65807  0.11833  0.16793  Biso   1.000  H
  C2269    1.0000 0.58977  0.05927  0.18267  Biso   1.000  C
  C2270    1.0000 0.84294  0.20548  0.10206  Biso   1.000  C
  H2130    1.0000 0.85397  0.23043  0.09393  Biso   1.000  H
  H2131    1.0000 0.81817  0.18623  0.09483  Biso   1.000  H
  C2271    1.0000 0.87631  0.17842  0.08193  Biso   1.000  C
  C2272    1.0000 0.90274  0.16398  0.08279  Biso   1.000  C
  H2132    1.0000 0.91457  0.16393  0.09633  Biso   1.000  H
  C2273    1.0000 0.91156  0.14979  0.06387  Biso   1.000  C
  H2133    1.0000 0.92867  0.13943  0.06463  Biso   1.000  H
  C2274    1.0000 0.89465  0.15097  0.04339  Biso   1.000  C
  H2134    1.0000 0.90137  0.14243  0.03043  Biso   1.000  H
  C2275    1.0000 0.86800  0.16477  0.04255  Biso   1.000  C
  C2276    1.0000 0.85998  0.17936  0.06197  Biso   1.000  C
  H2135    1.0000 0.84307  0.18993  0.06123  Biso   1.000  H
  C2277    1.0000 0.84972  0.16660  0.02088  Biso   1.000  C
  C2278    1.0000 0.83752  0.37424  0.17675  Biso   1.000  C
  C2279    1.0000 0.81508  0.34807  0.19594  Biso   1.000  C
  C2280    1.0000 0.77450  0.32054  0.19433  Biso   1.000  C
  H2136    1.0000 0.76057  0.31923  0.18133  Biso   1.000  H
  C2281    1.0000 0.75471  0.29502  0.21208  Biso   1.000  C
  H2137    1.0000 0.72757  0.27663  0.21103  Biso   1.000  H
  C2282    1.0000 0.77550  0.29702  0.23145  Biso   1.000  C
  H2138    1.0000 0.76227  0.27993  0.24333  Biso   1.000  H
  C2283    1.0000 0.81608  0.32455  0.23306  Biso   1.000  C
  C2284    1.0000 0.83587  0.35007  0.21530  Biso   1.000  C
  H2139    1.0000 0.86297  0.36843  0.21633  Biso   1.000  H
  C2285    1.0000 0.87501  0.34499  0.25270  Biso   1.000  C
  H2140    1.0000 0.88487  0.34003  0.23883  Biso   1.000  H
  H2141    1.0000 0.88507  0.37343  0.25393  Biso   1.000  H
  C2286    1.0000 0.88942  0.33059  0.27254  Biso   1.000  C
  C2287    1.0000 0.88907  0.29489  0.27125  Biso   1.000  C
  C2288    1.0000 0.90803  0.28524  0.28856  Biso   1.000  C
  C2289    1.0000 0.92740  0.31189  0.30538  Biso   1.000  C
  C2290    1.0000 0.92579  0.34714  0.30737  Biso   1.000  C
  C2291    1.0000 0.90476  0.35590  0.29174  Biso   1.000  C
  C2292    1.0000 0.89988  0.39211  0.29392  Biso   1.000  C
  H2142    1.0000 0.87507  0.38663  0.28723  Biso   1.000  H
  H2143    1.0000 0.89987  0.39833  0.30943  Biso   1.000  H
  H2144    1.0000 0.92157  0.41433  0.28643  Biso   1.000  H
  C2293    1.0000 0.87172  0.26775  0.25239  Biso   1.000  C
  H2145    1.0000 0.89267  0.27063  0.24253  Biso   1.000  H
  H2146    1.0000 0.85707  0.24073  0.25773  Biso   1.000  H
  H2147    1.0000 0.85397  0.27403  0.24443  Biso   1.000  H
  C2294    1.0000 0.95161  0.30257  0.32222  Biso   1.000  C
  H2148    1.0000 0.96897  0.29573  0.31433  Biso   1.000  H
  H2149    1.0000 0.96727  0.32563  0.33143  Biso   1.000  H
  H2150    1.0000 0.93367  0.28053  0.33143  Biso   1.000  H
  C2295    1.0000 0.90876  0.24709  0.28719  Biso   1.000  C
  H2151    1.0000 0.88797  0.22833  0.27733  Biso   1.000  H
  H2152    1.0000 0.90507  0.23493  0.30183  Biso   1.000  H
  C2296    1.0000 0.96056  0.23203  0.28057  Biso   1.000  C
  C2297    1.0000 0.00105  0.24653  0.27699  Biso   1.000  C
  H2153    1.0000 0.01807  0.27363  0.27423  Biso   1.000  H
  C2298    1.0000 0.01619  0.22062  0.27757  Biso   1.000  C
  H2154    1.0000 0.04327  0.23033  0.27513  Biso   1.000  H
  C2299    1.0000 0.99083  0.18020  0.28172  Biso   1.000  C
  H2155    1.0000 0.00097  0.16283  0.28213  Biso   1.000  H
  C2300    1.0000 0.95033  0.16568  0.28529  Biso   1.000  C
  C2301    1.0000 0.93519  0.19159  0.28471  Biso   1.000  C
  H2156    1.0000 0.90807  0.18183  0.28713  Biso   1.000  H
  C2302    1.0000 0.92428  0.12364  0.28940  Biso   1.000  C
  C2303    1.0000 0.95160  0.37674  0.32462  Biso   1.000  C
  H2157    1.0000 0.95117  0.40133  0.32243  Biso   1.000  H
  H2158    1.0000 0.97887  0.38253  0.32263  Biso   1.000  H
  C2304    1.0000 0.96865  0.37812  0.36258  Biso   1.000  C
  C2305    1.0000 0.95851  0.35720  0.38264  Biso   1.000  C
  H2159    1.0000 0.93337  0.33483  0.38443  Biso   1.000  H
  C2306    1.0000 0.98597  0.36976  0.40004  Biso   1.000  C
  H2160    1.0000 0.97917  0.35573  0.41343  Biso   1.000  H
  C2307    1.0000 0.02358  0.40327  0.39739  Biso   1.000  C
  H2161    1.0000 0.04197  0.41173  0.40903  Biso   1.000  H
  C2308    1.0000 0.03372  0.42419  0.37733  Biso   1.000  C
  C2309    1.0000 0.00626  0.41163  0.35993  Biso   1.000  C
  H2162    1.0000 0.01307  0.42563  0.34653  Biso   1.000  H
  C2310    1.0000 0.07352  0.46027  0.37463  Biso   1.000  C
  Mn103    1.0000 0.00968  0.51185  0.19431  Biso   1.000  Mn
  Mn104    1.0000 0.92194  0.44863  0.16182  Biso   1.000  Mn
  Mn105    1.0000 0.85234  0.37906  0.12582  Biso   1.000  Mn
  O681     1.0000 0.00348  0.45873  0.21383  Biso   1.000  O
  O682     1.0000 0.95685  0.44196  0.18980  Biso   1.000  O
  O683     1.0000 0.89944  0.29108  0.18370  Biso   1.000  O
  O684     1.0000 0.86973  0.19151  0.10159  Biso   1.000  O
  O685     1.0000 0.82540  0.17903  0.02187  Biso   1.000  O
  O686     1.0000 0.85963  0.15603  0.00370  Biso   1.000  O
  O687     1.0000 0.73098  0.14253  0.16992  Biso   1.000  O
  O688     1.0000 0.58333  0.08463  0.17433  Biso   1.000  O
  O689     1.0000 0.56292  0.02574  0.18983  Biso   1.000  O
  O690     1.0000 0.86855  0.40411  0.18083  Biso   1.000  O
  O691     1.0000 0.82200  0.36311  0.15824  Biso   1.000  O
  O692     1.0000 0.83290  0.32417  0.25268  Biso   1.000  O
  O693     1.0000 0.94868  0.25889  0.27823  Biso   1.000  O
  O694     1.0000 0.88895  0.11240  0.29573  Biso   1.000  O
  O695     1.0000 0.93405  0.09796  0.28589  Biso   1.000  O
  O696     1.0000 0.93938  0.36325  0.34663  Biso   1.000  O
  O697     1.0000 0.08383  0.47621  0.35596  Biso   1.000  O
  O698     1.0000 0.09601  0.47404  0.39166  Biso   1.000  O
  O699     1.0000 0.06347  0.56023  0.20463  Biso   1.000  O
  O700     1.0000 0.06657  0.56863  0.20173  Biso   1.000  O
  H2163    1.0000 0.08767  0.56313  0.20423  Biso   1.000  H
  H2164    1.0000 0.06387  0.58193  0.21453  Biso   1.000  H
  H2165    1.0000 0.06177  0.59053  0.20083  Biso   1.000  H
  H2166    1.0000 0.08557  0.57163  0.19053  Biso   1.000  H
  H2167    1.0000 0.08267  0.55213  0.20743  Biso   1.000  H
  H2168    1.0000 0.05837  0.57003  0.21823  Biso   1.000  H
  H2169    1.0000 0.06027  0.58313  0.20543  Biso   1.000  H
  H2170    1.0000 0.08467  0.56533  0.19463  Biso   1.000  H
  C2311    1.0000 0.64049  0.76513  0.53663  Biso   1.000  C
  C2312    1.0000 0.62895  0.72346  0.54006  Biso   1.000  C
  C2313    1.0000 0.65126  0.71358  0.55443  Biso   1.000  C
  H2171    1.0000 0.67083  0.73337  0.56337  Biso   1.000  H
  C2314    1.0000 0.64500  0.67587  0.55558  Biso   1.000  C
  H2172    1.0000 0.66013  0.66977  0.56517  Biso   1.000  H
  C2315    1.0000 0.61689  0.64753  0.54283  Biso   1.000  C
  H2173    1.0000 0.61283  0.62177  0.54347  Biso   1.000  H
  C2316    1.0000 0.59321  0.65583  0.52833  Biso   1.000  C
  C2317    1.0000 0.59949  0.69397  0.52699  Biso   1.000  C
  H2174    1.0000 0.58413  0.69987  0.51747  Biso   1.000  H
  C2318    1.0000 0.53987  0.62862  0.50153  Biso   1.000  C
  H2175    1.0000 0.52313  0.63677  0.50937  Biso   1.000  H
  H2176    1.0000 0.55533  0.64867  0.49037  Biso   1.000  H
  C2319    1.0000 0.51439  0.58815  0.49056  Biso   1.000  C
  C2320    1.0000 0.48521  0.55686  0.50298  Biso   1.000  C
  C2321    1.0000 0.46617  0.51926  0.49376  Biso   1.000  C
  C2322    1.0000 0.47280  0.51324  0.47160  Biso   1.000  C
  C2323    1.0000 0.50124  0.54528  0.45938  Biso   1.000  C
  C2324    1.0000 0.52431  0.58364  0.46953  Biso   1.000  C
  C2325    1.0000 0.55778  0.61676  0.45625  Biso   1.000  C
  H2177    1.0000 0.57993  0.63267  0.46597  Biso   1.000  H
  H2178    1.0000 0.56613  0.60537  0.44467  Biso   1.000  H
  H2179    1.0000 0.54853  0.63337  0.44967  Biso   1.000  H
  C2326    1.0000 0.47326  0.56299  0.52637  Biso   1.000  C
  H2180    1.0000 0.46973  0.58587  0.52637  Biso   1.000  H
  H2181    1.0000 0.44873  0.53977  0.53067  Biso   1.000  H
  H2182    1.0000 0.49383  0.56717  0.53677  Biso   1.000  H
  C2327    1.0000 0.45017  0.47253  0.46146  Biso   1.000  C
  H2183    1.0000 0.42603  0.45667  0.46977  Biso   1.000  H
  H2184    1.0000 0.44363  0.47467  0.44627  Biso   1.000  H
  H2185    1.0000 0.46633  0.46007  0.46187  Biso   1.000  H
  C2328    1.0000 0.43766  0.48359  0.50732  Biso   1.000  C
  H2186    1.0000 0.44403  0.48877  0.52307  Biso   1.000  H
  H2187    1.0000 0.43983  0.46057  0.50307  Biso   1.000  H
  C2329    1.0000 0.36834  0.44292  0.51381  Biso   1.000  C
  C2330    1.0000 0.37536  0.41758  0.52711  Biso   1.000  C
  H2188    1.0000 0.40133  0.42297  0.52957  Biso   1.000  H
  C2331    1.0000 0.34350  0.38410  0.53678  Biso   1.000  C
  H2189    1.0000 0.34823  0.36717  0.54567  Biso   1.000  H
  C2332    1.0000 0.30461  0.37595  0.53314  Biso   1.000  C
  H2190    1.0000 0.28333  0.35357  0.53957  Biso   1.000  H
  C2333    1.0000 0.29759  0.40130  0.51984  Biso   1.000  C
  C2334    1.0000 0.32945  0.43478  0.51017  Biso   1.000  C
  H2191    1.0000 0.32473  0.45167  0.50127  Biso   1.000  H
  C2335    1.0000 0.25643  0.39261  0.51601  Biso   1.000  C
  C2336    1.0000 0.50960  0.53882  0.43540  Biso   1.000  C
  H2192    1.0000 0.52063  0.56377  0.42727  Biso   1.000  H
  H2193    1.0000 0.48483  0.51957  0.42817  Biso   1.000  H
  C2337    1.0000 0.54297  0.51176  0.41527  Biso   1.000  C
  C2338    1.0000 0.56940  0.49732  0.41613  Biso   1.000  C
  H2194    1.0000 0.58123  0.49727  0.42967  Biso   1.000  H
  C2339    1.0000 0.57822  0.48313  0.39721  Biso   1.000  C
  H2195    1.0000 0.59533  0.47277  0.39797  Biso   1.000  H
  C2340    1.0000 0.56131  0.48431  0.37673  Biso   1.000  C
  H2196    1.0000 0.56803  0.47577  0.36377  Biso   1.000  H
  C2341    1.0000 0.53466  0.49811  0.37589  Biso   1.000  C
  C2342    1.0000 0.52664  0.51270  0.39531  Biso   1.000  C
  H2197    1.0000 0.50973  0.52327  0.39457  Biso   1.000  H
  C2343    1.0000 0.51638  0.49994  0.35422  Biso   1.000  C
  C2344    1.0000 0.50418  0.70758  0.51009  Biso   1.000  C
  C2345    1.0000 0.48174  0.68141  0.52928  Biso   1.000  C
  C2346    1.0000 0.44116  0.65388  0.52767  Biso   1.000  C
  H2198    1.0000 0.42723  0.65257  0.51467  Biso   1.000  H
  C2347    1.0000 0.42137  0.62836  0.54542  Biso   1.000  C
  H2199    1.0000 0.39423  0.60997  0.54437  Biso   1.000  H
  C2348    1.0000 0.44216  0.63036  0.56479  Biso   1.000  C
  H2200    1.0000 0.42893  0.61327  0.57667  Biso   1.000  H
  C2349    1.0000 0.48274  0.65789  0.56640  Biso   1.000  C
  C2350    1.0000 0.50253  0.68341  0.54864  Biso   1.000  C
  H2201    1.0000 0.52963  0.70177  0.54967  Biso   1.000  H
  C2351    1.0000 0.54167  0.67833  0.58604  Biso   1.000  C
  H2202    1.0000 0.55153  0.67337  0.57217  Biso   1.000  H
  H2203    1.0000 0.55173  0.70677  0.58727  Biso   1.000  H
  C2352    1.0000 0.55608  0.66393  0.60588  Biso   1.000  C
  C2353    1.0000 0.55573  0.62823  0.60459  Biso   1.000  C
  C2354    1.0000 0.57469  0.61858  0.62190  Biso   1.000  C
  C2355    1.0000 0.59406  0.64523  0.63872  Biso   1.000  C
  C2356    1.0000 0.59245  0.68048  0.64071  Biso   1.000  C
  C2357    1.0000 0.57142  0.68924  0.62508  Biso   1.000  C
  C2358    1.0000 0.56654  0.72545  0.62726  Biso   1.000  C
  H2204    1.0000 0.54173  0.71997  0.62057  Biso   1.000  H
  H2205    1.0000 0.56653  0.73167  0.64277  Biso   1.000  H
  H2206    1.0000 0.58823  0.74767  0.61977  Biso   1.000  H
  C2359    1.0000 0.53838  0.60109  0.58573  Biso   1.000  C
  H2207    1.0000 0.55933  0.60397  0.57587  Biso   1.000  H
  H2208    1.0000 0.52373  0.57407  0.59107  Biso   1.000  H
  H2209    1.0000 0.52063  0.60737  0.57777  Biso   1.000  H
  C2360    1.0000 0.61827  0.63591  0.65556  Biso   1.000  C
  H2210    1.0000 0.63563  0.62907  0.64767  Biso   1.000  H
  H2211    1.0000 0.63393  0.65897  0.66477  Biso   1.000  H
  H2212    1.0000 0.60033  0.61387  0.66477  Biso   1.000  H
  C2361    1.0000 0.57542  0.58043  0.62053  Biso   1.000  C
  H2213    1.0000 0.55463  0.56167  0.61067  Biso   1.000  H
  H2214    1.0000 0.57173  0.56827  0.63517  Biso   1.000  H
  C2362    1.0000 0.62722  0.56537  0.61391  Biso   1.000  C
  C2363    1.0000 0.66771  0.57987  0.61033  Biso   1.000  C
  H2215    1.0000 0.68473  0.60697  0.60757  Biso   1.000  H
  C2364    1.0000 0.68285  0.55396  0.61091  Biso   1.000  C
  H2216    1.0000 0.70993  0.56367  0.60847  Biso   1.000  H
  C2365    1.0000 0.65749  0.51354  0.61506  Biso   1.000  C
  H2217    1.0000 0.66763  0.49617  0.61547  Biso   1.000  H
  C2366    1.0000 0.61699  0.49902  0.61863  Biso   1.000  C
  C2367    1.0000 0.60185  0.52493  0.61805  Biso   1.000  C
  H2218    1.0000 0.57473  0.51517  0.62047  Biso   1.000  H
  C2368    1.0000 0.59094  0.45698  0.62274  Biso   1.000  C
  C2369    1.0000 0.61826  0.71008  0.65796  Biso   1.000  C
  H2219    1.0000 0.61783  0.73467  0.65577  Biso   1.000  H
  H2220    1.0000 0.64553  0.71587  0.65597  Biso   1.000  H
  C2370    1.0000 0.63531  0.71146  0.69592  Biso   1.000  C
  C2371    1.0000 0.62517  0.69054  0.71598  Biso   1.000  C
  H2221    1.0000 0.60003  0.66817  0.71777  Biso   1.000  H
  C2372    1.0000 0.65263  0.70310  0.73338  Biso   1.000  C
  H2222    1.0000 0.64583  0.68907  0.74677  Biso   1.000  H
  C2373    1.0000 0.69024  0.73661  0.73073  Biso   1.000  C
  H2223    1.0000 0.70863  0.74507  0.74237  Biso   1.000  H
  C2374    1.0000 0.70038  0.75753  0.71067  Biso   1.000  C
  C2375    1.0000 0.67292  0.74497  0.69327  Biso   1.000  C
  H2224    1.0000 0.67973  0.75897  0.67987  Biso   1.000  H
  C2376    1.0000 0.74018  0.79361  0.70797  Biso   1.000  C
  Mn106    1.0000 0.67635  0.84518  0.52765  Biso   1.000  Mn
  Mn107    1.0000 0.58861  0.78196  0.49515  Biso   1.000  Mn
  Mn108    1.0000 0.51900  0.71239  0.45915  Biso   1.000  Mn
  O701     1.0000 0.67014  0.79207  0.54717  Biso   1.000  O
  O702     1.0000 0.62351  0.77530  0.52314  Biso   1.000  O
  O703     1.0000 0.56610  0.62442  0.51704  Biso   1.000  O
  O704     1.0000 0.53639  0.52485  0.43493  Biso   1.000  O
  O705     1.0000 0.49206  0.51237  0.35521  Biso   1.000  O
  O706     1.0000 0.52629  0.48937  0.33704  Biso   1.000  O
  O707     1.0000 0.39764  0.47587  0.50326  Biso   1.000  O
  O708     1.0000 0.24999  0.41797  0.50767  Biso   1.000  O
  O709     1.0000 0.22958  0.35908  0.52317  Biso   1.000  O
  O710     1.0000 0.53521  0.73745  0.51417  Biso   1.000  O
  O711     1.0000 0.48866  0.69645  0.49158  Biso   1.000  O
  O712     1.0000 0.49956  0.65751  0.58602  Biso   1.000  O
  O713     1.0000 0.61534  0.59223  0.61157  Biso   1.000  O
  O714     1.0000 0.55561  0.44574  0.62907  Biso   1.000  O
  O715     1.0000 0.60071  0.43130  0.61923  Biso   1.000  O
  O716     1.0000 0.60604  0.69659  0.67997  Biso   1.000  O
  O717     1.0000 0.75049  0.80955  0.68930  Biso   1.000  O
  O718     1.0000 0.76267  0.80738  0.72500  Biso   1.000  O
  O719     1.0000 0.73013  0.89357  0.53797  Biso   1.000  O
  O720     1.0000 0.73323  0.90197  0.53507  Biso   1.000  O
  H2225    1.0000 0.75433  0.89647  0.53757  Biso   1.000  H
  H2226    1.0000 0.73053  0.91527  0.54787  Biso   1.000  H
  H2227    1.0000 0.72843  0.92387  0.53417  Biso   1.000  H
  H2228    1.0000 0.75223  0.90497  0.52387  Biso   1.000  H
  H2229    1.0000 0.74933  0.88547  0.54077  Biso   1.000  H
  H2230    1.0000 0.72503  0.90337  0.55157  Biso   1.000  H
  H2231    1.0000 0.72693  0.91647  0.53877  Biso   1.000  H
  H2232    1.0000 0.75133  0.89867  0.52797  Biso   1.000  H
