data_image0
_cell_length_a       23.0077
_cell_length_b       17.0544
_cell_length_c       28.6284
_cell_angle_alpha    90
_cell_angle_beta     101.479
_cell_angle_gamma    90

_symmetry_space_group_name_H-M    "P 1"
_symmetry_int_tables_number       1

loop_
  _symmetry_equiv_pos_as_xyz
  'x, y, z'

loop_
  _atom_site_label
  _atom_site_occupancy
  _atom_site_fract_x
  _atom_site_fract_y
  _atom_site_fract_z
  _atom_site_thermal_displace_type
  _atom_site_B_iso_or_equiv
  _atom_site_type_symbol
  Ag1      1.0000 0.25781  0.71502  0.10114  Biso   1.000  Ag
  Ag2      1.0000 0.19468  0.83898  0.13582  Biso   1.000  Ag
  Ag3      1.0000 0.19342  0.78808  0.01491  Biso   1.000  Ag
  Ag4      1.0000 0.18929  0.81572  0.26069  Biso   1.000  Ag
  Ag5      1.0000 0.18601  0.79883  0.39085  Biso   1.000  Ag
  Ag6      1.0000 0.25945  0.71289  0.20571  Biso   1.000  Ag
  Ag7      1.0000 0.25955  0.91104  0.33382  Biso   1.000  Ag
  Ag8      1.0000 0.28006  0.90871  0.22423  Biso   1.000  Ag
  Ag9      1.0000 0.25986  0.64037  0.97832  Biso   1.000  Ag
  Ag10     1.0000 0.94965  0.22790  0.07497  Biso   1.000  Ag
  Ag11     1.0000 0.27104  0.81842  0.94544  Biso   1.000  Ag
  Ag12     1.0000 0.29933  0.10970  0.19326  Biso   1.000  Ag
  Ag13     1.0000 0.27481  0.99650  0.97827  Biso   1.000  Ag
  Ag14     1.0000 0.25724  0.71131  0.34040  Biso   1.000  Ag
  Ag15     1.0000 0.28555  0.89076  0.07814  Biso   1.000  Ag
  C1       1.0000 0.28520  0.76810  0.02720  Biso   1.000  C
  C2       1.0000 0.33920  0.76710  0.03280  Biso   1.000  C
  C3       1.0000 0.40252  0.76130  0.04017  Biso   1.000  C
  C4       1.0000 0.42914  0.68820  0.04874  Biso   1.000  C
  H1       1.0000 0.40600  0.64400  0.05050  Biso   1.000  H
  C5       1.0000 0.49036  0.68110  0.05472  Biso   1.000  C
  H2       1.0000 0.50820  0.63210  0.06040  Biso   1.000  H
  C6       1.0000 0.52496  0.74710  0.05213  Biso   1.000  C
  C7       1.0000 0.49835  0.82030  0.04356  Biso   1.000  C
  H3       1.0000 0.52150  0.86450  0.04180  Biso   1.000  H
  C8       1.0000 0.43713  0.82740  0.03758  Biso   1.000  C
  H4       1.0000 0.41930  0.87630  0.03180  Biso   1.000  H
  C9       1.0000 0.28790  0.81990  0.15400  Biso   1.000  C
  C10      1.0000 0.34090  0.83710  0.16280  Biso   1.000  C
  C11      1.0000 0.40420  0.84600  0.17179  Biso   1.000  C
  C12      1.0000 0.43887  0.78126  0.16625  Biso   1.000  C
  H5       1.0000 0.42100  0.73320  0.15730  Biso   1.000  H
  C13      1.0000 0.50022  0.78840  0.17402  Biso   1.000  C
  H6       1.0000 0.52340  0.74500  0.17030  Biso   1.000  H
  C14      1.0000 0.52691  0.86030  0.18734  Biso   1.000  C
  C15      1.0000 0.49224  0.92500  0.19288  Biso   1.000  C
  H7       1.0000 0.51010  0.97310  0.20180  Biso   1.000  H
  C16      1.0000 0.43088  0.91790  0.18511  Biso   1.000  C
  H8       1.0000 0.40770  0.96120  0.18880  Biso   1.000  H
  C17      1.0000 0.28200  0.79850  0.27570  Biso   1.000  C
  C18      1.0000 0.33360  0.77910  0.28200  Biso   1.000  C
  C19      1.0000 0.39595  0.76190  0.28960  Biso   1.000  C
  C20      1.0000 0.43654  0.82310  0.29917  Biso   1.000  C
  H9       1.0000 0.42330  0.87410  0.30180  Biso   1.000  H
  C21      1.0000 0.49690  0.80790  0.30480  Biso   1.000  C
  H10      1.0000 0.52410  0.84880  0.31120  Biso   1.000  H
  C22      1.0000 0.51667  0.73160  0.30090  Biso   1.000  C
  C23      1.0000 0.47610  0.67050  0.29130  Biso   1.000  C
  H11      1.0000 0.48930  0.61950  0.28870  Biso   1.000  H
  C24      1.0000 0.41572  0.68570  0.28569  Biso   1.000  C
  H12      1.0000 0.38860  0.64480  0.27930  Biso   1.000  H
  C25      1.0000 0.28000  0.80280  0.40290  Biso   1.000  C
  C26      1.0000 0.33250  0.67850  0.91190  Biso   1.000  C
  C27      1.0000 0.39435  0.66000  0.92161  Biso   1.000  C
  C28      1.0000 0.43618  0.71845  0.92053  Biso   1.000  C
  H13      1.0000 0.42400  0.76970  0.91320  Biso   1.000  H
  C29      1.0000 0.49627  0.70020  0.93042  Biso   1.000  C
  H14      1.0000 0.52430  0.73930  0.92970  Biso   1.000  H
  C30      1.0000 0.51451  0.62350  0.94140  Biso   1.000  C
  C31      1.0000 0.47267  0.56510  0.94250  Biso   1.000  C
  H15      1.0000 0.48490  0.51380  0.94980  Biso   1.000  H
  C32      1.0000 0.41259  0.58340  0.93259  Biso   1.000  C
  H16      1.0000 0.38460  0.54430  0.93330  Biso   1.000  H
  C33      1.0000 0.20020  0.53470  0.09040  Biso   1.000  C
  C34      1.0000 0.19680  0.44950  0.08910  Biso   1.000  C
  C35      1.0000 0.24815  0.40640  0.08960  Biso   1.000  C
  H17      1.0000 0.28380  0.43210  0.08960  Biso   1.000  H
  C36      1.0000 0.24621  0.32490  0.09000  Biso   1.000  C
  H18      1.0000 0.28060  0.29610  0.09030  Biso   1.000  H
  C37      1.0000 0.19290  0.28660  0.08990  Biso   1.000  C
  H19      1.0000 0.19160  0.23210  0.09020  Biso   1.000  H
  C38      1.0000 0.14149  0.32970  0.08941  Biso   1.000  C
  C39      1.0000 0.14343  0.41120  0.08900  Biso   1.000  C
  H20      1.0000 0.10900  0.44000  0.08870  Biso   1.000  H
  C40      1.0000 0.08690  0.28970  0.08890  Biso   1.000  C
  C41      1.0000 0.23500  0.54650  0.28060  Biso   1.000  C
  C42      1.0000 0.20570  0.48040  0.25536  Biso   1.000  C
  C43      1.0000 0.23742  0.41460  0.24641  Biso   1.000  C
  H21      1.0000 0.27860  0.41450  0.25460  Biso   1.000  H
  C44      1.0000 0.20752  0.34880  0.22526  Biso   1.000  C
  C45      1.0000 0.14594  0.34890  0.21307  Biso   1.000  C
  H22      1.0000 0.12590  0.30490  0.19890  Biso   1.000  H
  C46      1.0000 0.11427  0.41470  0.22200  Biso   1.000  C
  H23      1.0000 0.07310  0.41480  0.21390  Biso   1.000  H
  C47      1.0000 0.14420  0.48050  0.24318  Biso   1.000  C
  H24      1.0000 0.12300  0.52450  0.24920  Biso   1.000  H
  C48      1.0000 0.23890  0.27940  0.21770  Biso   1.000  C
  C49      1.0000 0.23400  0.18190  0.97730  Biso   1.000  C
  C50      1.0000 0.20863  0.25590  0.96266  Biso   1.000  C
  C51      1.0000 0.24426  0.31990  0.95740  Biso   1.000  C
  H25      1.0000 0.28530  0.31480  0.96440  Biso   1.000  H
  C52      1.0000 0.21851  0.39130  0.94160  Biso   1.000  C
  C53      1.0000 0.15710  0.39870  0.93100  Biso   1.000  C
  H26      1.0000 0.13990  0.44650  0.92040  Biso   1.000  H
  C54      1.0000 0.12150  0.33480  0.93630  Biso   1.000  C
  H27      1.0000 0.08040  0.33990  0.92930  Biso   1.000  H
  C55      1.0000 0.14725  0.26340  0.95210  Biso   1.000  C
  H28      1.0000 0.12340  0.22070  0.95570  Biso   1.000  H
  C56      1.0000 0.25420  0.45470  0.93260  Biso   1.000  C
  C57      1.0000 0.15470  0.90170  0.91620  Biso   1.000  C
  C58      1.0000 0.10620  0.95990  0.89280  Biso   1.000  C
  C59      1.0000 0.12510  0.69320  0.18190  Biso   1.000  C
  C60      1.0000 0.06800  0.65540  0.15310  Biso   1.000  C
  C61      1.0000 0.36320  0.01250  0.29750  Biso   1.000  C
  C62      1.0000 0.40610  0.07890  0.31510  Biso   1.000  C
  C63      1.0000 0.07950  0.81550  0.05510  Biso   1.000  C
  C64      1.0000 0.01150  0.82540  0.04170  Biso   1.000  C
  C65      1.0000 0.34940  0.03480  0.08980  Biso   1.000  C
  F1       1.0000 0.11960  0.03290  0.90736  Biso   1.000  F
  F2       1.0000 0.05330  0.94450  0.90170  Biso   1.000  F
  F3       1.0000 0.10180  0.95970  0.84592  Biso   1.000  F
  F4       1.0000 0.01911  0.69500  0.15446  Biso   1.000  F
  F5       1.0000 0.06000  0.58370  0.16760  Biso   1.000  F
  F6       1.0000 0.07120  0.65110  0.10727  Biso   1.000  F
  F7       1.0000 0.45110  0.08230  0.29630  Biso   1.000  F
  F8       1.0000 0.38130  0.14780  0.30260  Biso   1.000  F
  F9       1.0000 0.42280  0.08170  0.35810  Biso   1.000  F
  F10      1.0000 0.98630  0.75370  0.03050  Biso   1.000  F
  F11      1.0000 0.99520  0.86060  0.00100  Biso   1.000  F
  F12      1.0000 0.98800  0.85590  0.07280  Biso   1.000  F
  N1       1.0000 0.58860  0.73880  0.05730  Biso   1.000  N
  N2       1.0000 0.59100  0.86750  0.19580  Biso   1.000  N
  N3       1.0000 0.57920  0.71720  0.30570  Biso   1.000  N
  N4       1.0000 0.57670  0.60370  0.95250  Biso   1.000  N
  N5       1.0000 0.20580  0.60220  0.09270  Biso   1.000  N
  N6       1.0000 0.04290  0.25900  0.08870  Biso   1.000  N
  N7       1.0000 0.25560  0.59850  0.30180  Biso   1.000  N
  N8       1.0000 0.26150  0.22210  0.21120  Biso   1.000  N
  N9       1.0000 0.25180  0.12140  0.98620  Biso   1.000  N
  N10      1.0000 0.28240  0.50630  0.92530  Biso   1.000  N
  O1       1.0000 0.60800  0.67360  0.05290  Biso   1.000  O
  O2       1.0000 0.61910  0.79650  0.06420  Biso   1.000  O
  O3       1.0000 0.61850  0.81360  0.18390  Biso   1.000  O
  O4       1.0000 0.61290  0.92980  0.21160  Biso   1.000  O
  O5       1.0000 0.40620  0.14860  0.19790  Biso   1.000  O
  O6       1.0000 0.61340  0.77160  0.31450  Biso   1.000  O
  O7       1.0000 0.61220  0.65120  0.94420  Biso   1.000  O
  O8       1.0000 0.58940  0.53820  0.97050  Biso   1.000  O
  O9       1.0000 0.13850  0.84240  0.93515  Biso   1.000  O
  O10      1.0000 0.20580  0.92010  0.91246  Biso   1.000  O
  O11      1.0000 0.16930  0.65020  0.18804  Biso   1.000  O
  O12      1.0000 0.12120  0.76310  0.19340  Biso   1.000  O
  O13      1.0000 0.35230  0.96900  0.32860  Biso   1.000  O
  O14      1.0000 0.34590  0.01000  0.25325  Biso   1.000  O
  O15      1.0000 0.10210  0.83240  0.09609  Biso   1.000  O
  O16      1.0000 0.10200  0.79140  0.02183  Biso   1.000  O
  O17      1.0000 0.35020  0.98550  0.05970  Biso   1.000  O
  O18      1.0000 0.32640  0.03880  0.12620  Biso   1.000  O
  O19      1.0000 0.33260  0.00460  0.92470  Biso   1.000  O
  O20      1.0000 0.35530  0.87680  0.92510  Biso   1.000  O
  C66      1.0000 0.36420  0.94690  0.92100  Biso   1.000  C
  C67      1.0000 0.42240  0.96720  0.90790  Biso   1.000  C
  F13      1.0000 0.46860  0.95390  0.94140  Biso   1.000  F
  F14      1.0000 0.42730  0.03780  0.89200  Biso   1.000  F
  F15      1.0000 0.43270  0.92060  0.87080  Biso   1.000  F
  Ag16     1.0000 0.28280  0.92590  0.10300  Biso   1.000  Ag
  C68      1.0000 0.36060  0.91500  0.91340  Biso   1.000  C
  C69      1.0000 0.39300  0.98700  0.90500  Biso   1.000  C
  F16      1.0000 0.36490  0.05110  0.90140  Biso   1.000  F
  F17      1.0000 0.43340  0.98670  0.88160  Biso   1.000  F
  F18      1.0000 0.43220  0.00280  0.95450  Biso   1.000  F
  O21      1.0000 0.34150  0.90850  0.95000  Biso   1.000  O
  O22      1.0000 0.35680  0.87270  0.87830  Biso   1.000  O
  Ag17     1.0000 0.74219  0.21502  0.39886  Biso   1.000  Ag
  Ag18     1.0000 0.80532  0.33898  0.36418  Biso   1.000  Ag
  Ag19     1.0000 0.80658  0.28808  0.48509  Biso   1.000  Ag
  Ag20     1.0000 0.81071  0.31572  0.23931  Biso   1.000  Ag
  Ag21     1.0000 0.81399  0.29883  0.10915  Biso   1.000  Ag
  Ag22     1.0000 0.74055  0.21289  0.29429  Biso   1.000  Ag
  Ag23     1.0000 0.74045  0.41104  0.16618  Biso   1.000  Ag
  Ag24     1.0000 0.71994  0.40871  0.27577  Biso   1.000  Ag
  Ag25     1.0000 0.74014  0.14037  0.52168  Biso   1.000  Ag
  Ag26     1.0000 0.05035  0.72790  0.42503  Biso   1.000  Ag
  Ag27     1.0000 0.72896  0.31842  0.55456  Biso   1.000  Ag
  Ag28     1.0000 0.70067  0.60970  0.30674  Biso   1.000  Ag
  Ag29     1.0000 0.72519  0.49650  0.52173  Biso   1.000  Ag
  Ag30     1.0000 0.74276  0.21131  0.15960  Biso   1.000  Ag
  Ag31     1.0000 0.71445  0.39076  0.42186  Biso   1.000  Ag
  C70      1.0000 0.71480  0.26810  0.47280  Biso   1.000  C
  C71      1.0000 0.66080  0.26710  0.46720  Biso   1.000  C
  C72      1.0000 0.59748  0.26130  0.45983  Biso   1.000  C
  C73      1.0000 0.57086  0.18820  0.45126  Biso   1.000  C
  H29      1.0000 0.59400  0.14400  0.44950  Biso   1.000  H
  C74      1.0000 0.50964  0.18110  0.44528  Biso   1.000  C
  H30      1.0000 0.49180  0.13210  0.43960  Biso   1.000  H
  C75      1.0000 0.47504  0.24710  0.44787  Biso   1.000  C
  C76      1.0000 0.50165  0.32030  0.45644  Biso   1.000  C
  H31      1.0000 0.47850  0.36450  0.45820  Biso   1.000  H
  C77      1.0000 0.56287  0.32740  0.46242  Biso   1.000  C
  H32      1.0000 0.58070  0.37630  0.46820  Biso   1.000  H
  C78      1.0000 0.71210  0.31990  0.34600  Biso   1.000  C
  C79      1.0000 0.65910  0.33710  0.33720  Biso   1.000  C
  C80      1.0000 0.59580  0.34600  0.32821  Biso   1.000  C
  C81      1.0000 0.56113  0.28126  0.33375  Biso   1.000  C
  H33      1.0000 0.57900  0.23320  0.34270  Biso   1.000  H
  C82      1.0000 0.49978  0.28840  0.32598  Biso   1.000  C
  H34      1.0000 0.47660  0.24500  0.32970  Biso   1.000  H
  C83      1.0000 0.47309  0.36030  0.31266  Biso   1.000  C
  C84      1.0000 0.50776  0.42500  0.30712  Biso   1.000  C
  H35      1.0000 0.48990  0.47310  0.29820  Biso   1.000  H
  C85      1.0000 0.56912  0.41790  0.31489  Biso   1.000  C
  H36      1.0000 0.59230  0.46120  0.31120  Biso   1.000  H
  C86      1.0000 0.71800  0.29850  0.22430  Biso   1.000  C
  C87      1.0000 0.66640  0.27910  0.21800  Biso   1.000  C
  C88      1.0000 0.60405  0.26190  0.21040  Biso   1.000  C
  C89      1.0000 0.56346  0.32310  0.20083  Biso   1.000  C
  H37      1.0000 0.57670  0.37410  0.19820  Biso   1.000  H
  C90      1.0000 0.50310  0.30790  0.19520  Biso   1.000  C
  H38      1.0000 0.47590  0.34880  0.18880  Biso   1.000  H
  C91      1.0000 0.48333  0.23160  0.19910  Biso   1.000  C
  C92      1.0000 0.52390  0.17050  0.20870  Biso   1.000  C
  H39      1.0000 0.51070  0.11950  0.21130  Biso   1.000  H
  C93      1.0000 0.58428  0.18570  0.21431  Biso   1.000  C
  H40      1.0000 0.61140  0.14480  0.22070  Biso   1.000  H
  C94      1.0000 0.72000  0.30280  0.09710  Biso   1.000  C
  C95      1.0000 0.66750  0.17850  0.58810  Biso   1.000  C
  C96      1.0000 0.60565  0.16000  0.57839  Biso   1.000  C
  C97      1.0000 0.56382  0.21845  0.57947  Biso   1.000  C
  H41      1.0000 0.57600  0.26970  0.58680  Biso   1.000  H
  C98      1.0000 0.50373  0.20020  0.56958  Biso   1.000  C
  H42      1.0000 0.47570  0.23930  0.57030  Biso   1.000  H
  C99      1.0000 0.48549  0.12350  0.55860  Biso   1.000  C
  C100     1.0000 0.52733  0.06510  0.55750  Biso   1.000  C
  H43      1.0000 0.51510  0.01380  0.55020  Biso   1.000  H
  C101     1.0000 0.58741  0.08340  0.56741  Biso   1.000  C
  H44      1.0000 0.61540  0.04430  0.56670  Biso   1.000  H
  C102     1.0000 0.79980  0.03470  0.40960  Biso   1.000  C
  C103     1.0000 0.80320  0.94950  0.41090  Biso   1.000  C
  C104     1.0000 0.75185  0.90640  0.41040  Biso   1.000  C
  H45      1.0000 0.71620  0.93210  0.41040  Biso   1.000  H
  C105     1.0000 0.75379  0.82490  0.41000  Biso   1.000  C
  H46      1.0000 0.71940  0.79610  0.40970  Biso   1.000  H
  C106     1.0000 0.80710  0.78660  0.41010  Biso   1.000  C
  H47      1.0000 0.80840  0.73210  0.40980  Biso   1.000  H
  C107     1.0000 0.85851  0.82970  0.41059  Biso   1.000  C
  C108     1.0000 0.85657  0.91120  0.41100  Biso   1.000  C
  H48      1.0000 0.89100  0.94000  0.41130  Biso   1.000  H
  C109     1.0000 0.91310  0.78970  0.41110  Biso   1.000  C
  C110     1.0000 0.76500  0.04650  0.21940  Biso   1.000  C
  C111     1.0000 0.79430  0.98040  0.24464  Biso   1.000  C
  C112     1.0000 0.76258  0.91460  0.25359  Biso   1.000  C
  H49      1.0000 0.72140  0.91450  0.24540  Biso   1.000  H
  C113     1.0000 0.79248  0.84880  0.27474  Biso   1.000  C
  C114     1.0000 0.85406  0.84890  0.28693  Biso   1.000  C
  H50      1.0000 0.87410  0.80490  0.30110  Biso   1.000  H
  C115     1.0000 0.88573  0.91470  0.27800  Biso   1.000  C
  H51      1.0000 0.92690  0.91480  0.28610  Biso   1.000  H
  C116     1.0000 0.85580  0.98050  0.25682  Biso   1.000  C
  H52      1.0000 0.87700  0.02450  0.25080  Biso   1.000  H
  C117     1.0000 0.76110  0.77940  0.28230  Biso   1.000  C
  C118     1.0000 0.76600  0.68190  0.52270  Biso   1.000  C
  C119     1.0000 0.79137  0.75590  0.53734  Biso   1.000  C
  C120     1.0000 0.75574  0.81990  0.54260  Biso   1.000  C
  H53      1.0000 0.71470  0.81480  0.53560  Biso   1.000  H
  C121     1.0000 0.78149  0.89130  0.55840  Biso   1.000  C
  C122     1.0000 0.84290  0.89870  0.56900  Biso   1.000  C
  H54      1.0000 0.86010  0.94650  0.57960  Biso   1.000  H
  C123     1.0000 0.87850  0.83480  0.56370  Biso   1.000  C
  H55      1.0000 0.91960  0.83990  0.57070  Biso   1.000  H
  C124     1.0000 0.85275  0.76340  0.54790  Biso   1.000  C
  H56      1.0000 0.87660  0.72070  0.54430  Biso   1.000  H
  C125     1.0000 0.74580  0.95470  0.56740  Biso   1.000  C
  C126     1.0000 0.84530  0.40170  0.58380  Biso   1.000  C
  C127     1.0000 0.89380  0.45990  0.60720  Biso   1.000  C
  C128     1.0000 0.87490  0.19320  0.31810  Biso   1.000  C
  C129     1.0000 0.93200  0.15540  0.34690  Biso   1.000  C
  C130     1.0000 0.63680  0.51250  0.20250  Biso   1.000  C
  C131     1.0000 0.59390  0.57890  0.18490  Biso   1.000  C
  C132     1.0000 0.92050  0.31550  0.44490  Biso   1.000  C
  C133     1.0000 0.98850  0.32540  0.45830  Biso   1.000  C
  C134     1.0000 0.65060  0.53480  0.41020  Biso   1.000  C
  F19      1.0000 0.88040  0.53290  0.59264  Biso   1.000  F
  F20      1.0000 0.94670  0.44450  0.59830  Biso   1.000  F
  F21      1.0000 0.89820  0.45970  0.65408  Biso   1.000  F
  F22      1.0000 0.98089  0.19500  0.34554  Biso   1.000  F
  F23      1.0000 0.94000  0.08370  0.33240  Biso   1.000  F
  F24      1.0000 0.92880  0.15110  0.39273  Biso   1.000  F
  F25      1.0000 0.54890  0.58230  0.20370  Biso   1.000  F
  F26      1.0000 0.61870  0.64780  0.19740  Biso   1.000  F
  F27      1.0000 0.57720  0.58170  0.14190  Biso   1.000  F
  F28      1.0000 0.01370  0.25370  0.46950  Biso   1.000  F
  F29      1.0000 0.00480  0.36060  0.49900  Biso   1.000  F
  F30      1.0000 0.01200  0.35590  0.42720  Biso   1.000  F
  N11      1.0000 0.41140  0.23880  0.44270  Biso   1.000  N
  N12      1.0000 0.40900  0.36750  0.30420  Biso   1.000  N
  N13      1.0000 0.42080  0.21720  0.19430  Biso   1.000  N
  N14      1.0000 0.42330  0.10370  0.54750  Biso   1.000  N
  N15      1.0000 0.79420  0.10220  0.40730  Biso   1.000  N
  N16      1.0000 0.95710  0.75900  0.41130  Biso   1.000  N
  N17      1.0000 0.74440  0.09850  0.19820  Biso   1.000  N
  N18      1.0000 0.73850  0.72210  0.28880  Biso   1.000  N
  N19      1.0000 0.74820  0.62140  0.51380  Biso   1.000  N
  N20      1.0000 0.71760  0.00630  0.57470  Biso   1.000  N
  O23      1.0000 0.39200  0.17360  0.44710  Biso   1.000  O
  O24      1.0000 0.38090  0.29650  0.43580  Biso   1.000  O
  O25      1.0000 0.38150  0.31360  0.31610  Biso   1.000  O
  O26      1.0000 0.38710  0.42980  0.28840  Biso   1.000  O
  O27      1.0000 0.59380  0.64860  0.30210  Biso   1.000  O
  O28      1.0000 0.38660  0.27160  0.18550  Biso   1.000  O
  O29      1.0000 0.38780  0.15120  0.55580  Biso   1.000  O
  O30      1.0000 0.41060  0.03820  0.52950  Biso   1.000  O
  O31      1.0000 0.86150  0.34240  0.56485  Biso   1.000  O
  O32      1.0000 0.79420  0.42010  0.58754  Biso   1.000  O
  O33      1.0000 0.83070  0.15020  0.31196  Biso   1.000  O
  O34      1.0000 0.87880  0.26310  0.30660  Biso   1.000  O
  O35      1.0000 0.64770  0.46900  0.17140  Biso   1.000  O
  O36      1.0000 0.65410  0.51000  0.24675  Biso   1.000  O
  O37      1.0000 0.89790  0.33240  0.40391  Biso   1.000  O
  O38      1.0000 0.89800  0.29140  0.47817  Biso   1.000  O
  O39      1.0000 0.64980  0.48550  0.44030  Biso   1.000  O
  O40      1.0000 0.67360  0.53880  0.37380  Biso   1.000  O
  O41      1.0000 0.66740  0.50460  0.57530  Biso   1.000  O
  O42      1.0000 0.64470  0.37680  0.57490  Biso   1.000  O
  C135     1.0000 0.63580  0.44690  0.57900  Biso   1.000  C
  C136     1.0000 0.57760  0.46720  0.59210  Biso   1.000  C
  F31      1.0000 0.53140  0.45390  0.55860  Biso   1.000  F
  F32      1.0000 0.57270  0.53780  0.60800  Biso   1.000  F
  F33      1.0000 0.56730  0.42060  0.62920  Biso   1.000  F
  Ag32     1.0000 0.71720  0.42590  0.39700  Biso   1.000  Ag
  C137     1.0000 0.63940  0.41500  0.58660  Biso   1.000  C
  C138     1.0000 0.60700  0.48700  0.59500  Biso   1.000  C
  F34      1.0000 0.63510  0.55110  0.59860  Biso   1.000  F
  F35      1.0000 0.56660  0.48670  0.61840  Biso   1.000  F
  F36      1.0000 0.56780  0.50280  0.54550  Biso   1.000  F
  O43      1.0000 0.65850  0.40850  0.55000  Biso   1.000  O
  O44      1.0000 0.64320  0.37270  0.62170  Biso   1.000  O
  Ag33     1.0000 0.74219  0.28498  0.89886  Biso   1.000  Ag
  Ag34     1.0000 0.80532  0.16102  0.86418  Biso   1.000  Ag
  Ag35     1.0000 0.80658  0.21192  0.98509  Biso   1.000  Ag
  Ag36     1.0000 0.81071  0.18428  0.73931  Biso   1.000  Ag
  Ag37     1.0000 0.81399  0.20117  0.60915  Biso   1.000  Ag
  Ag38     1.0000 0.74055  0.28711  0.79429  Biso   1.000  Ag
  Ag39     1.0000 0.74045  0.08896  0.66618  Biso   1.000  Ag
  Ag40     1.0000 0.71994  0.09129  0.77577  Biso   1.000  Ag
  Ag41     1.0000 0.74014  0.35963  0.02168  Biso   1.000  Ag
  Ag42     1.0000 0.05035  0.77210  0.92503  Biso   1.000  Ag
  Ag43     1.0000 0.72896  0.18158  0.05456  Biso   1.000  Ag
  Ag44     1.0000 0.70067  0.89030  0.80674  Biso   1.000  Ag
  Ag45     1.0000 0.72519  0.00350  0.02173  Biso   1.000  Ag
  Ag46     1.0000 0.74276  0.28869  0.65960  Biso   1.000  Ag
  Ag47     1.0000 0.71445  0.10924  0.92186  Biso   1.000  Ag
  C139     1.0000 0.71480  0.23190  0.97280  Biso   1.000  C
  C140     1.0000 0.66080  0.23290  0.96720  Biso   1.000  C
  C141     1.0000 0.59748  0.23870  0.95983  Biso   1.000  C
  C142     1.0000 0.57086  0.31180  0.95126  Biso   1.000  C
  H57      1.0000 0.59400  0.35600  0.94950  Biso   1.000  H
  C143     1.0000 0.50964  0.31890  0.94528  Biso   1.000  C
  H58      1.0000 0.49180  0.36790  0.93960  Biso   1.000  H
  C144     1.0000 0.47504  0.25290  0.94787  Biso   1.000  C
  C145     1.0000 0.50165  0.17970  0.95644  Biso   1.000  C
  H59      1.0000 0.47850  0.13550  0.95820  Biso   1.000  H
  C146     1.0000 0.56287  0.17260  0.96242  Biso   1.000  C
  H60      1.0000 0.58070  0.12370  0.96820  Biso   1.000  H
  C147     1.0000 0.71210  0.18010  0.84600  Biso   1.000  C
  C148     1.0000 0.65910  0.16290  0.83720  Biso   1.000  C
  C149     1.0000 0.59580  0.15400  0.82821  Biso   1.000  C
  C150     1.0000 0.56113  0.21874  0.83375  Biso   1.000  C
  H61      1.0000 0.57900  0.26680  0.84270  Biso   1.000  H
  C151     1.0000 0.49978  0.21160  0.82598  Biso   1.000  C
  H62      1.0000 0.47660  0.25500  0.82970  Biso   1.000  H
  C152     1.0000 0.47309  0.13970  0.81266  Biso   1.000  C
  C153     1.0000 0.50776  0.07500  0.80712  Biso   1.000  C
  H63      1.0000 0.48990  0.02690  0.79820  Biso   1.000  H
  C154     1.0000 0.56912  0.08210  0.81489  Biso   1.000  C
  H64      1.0000 0.59230  0.03880  0.81120  Biso   1.000  H
  C155     1.0000 0.71800  0.20150  0.72430  Biso   1.000  C
  C156     1.0000 0.66640  0.22090  0.71800  Biso   1.000  C
  C157     1.0000 0.60405  0.23810  0.71040  Biso   1.000  C
  C158     1.0000 0.56346  0.17690  0.70083  Biso   1.000  C
  H65      1.0000 0.57670  0.12590  0.69820  Biso   1.000  H
  C159     1.0000 0.50310  0.19210  0.69520  Biso   1.000  C
  H66      1.0000 0.47590  0.15120  0.68880  Biso   1.000  H
  C160     1.0000 0.48333  0.26840  0.69910  Biso   1.000  C
  C161     1.0000 0.52390  0.32950  0.70870  Biso   1.000  C
  H67      1.0000 0.51070  0.38050  0.71130  Biso   1.000  H
  C162     1.0000 0.58428  0.31430  0.71431  Biso   1.000  C
  H68      1.0000 0.61140  0.35520  0.72070  Biso   1.000  H
  C163     1.0000 0.72000  0.19720  0.59710  Biso   1.000  C
  C164     1.0000 0.66750  0.32150  0.08810  Biso   1.000  C
  C165     1.0000 0.60565  0.34000  0.07839  Biso   1.000  C
  C166     1.0000 0.56382  0.28155  0.07947  Biso   1.000  C
  H69      1.0000 0.57600  0.23030  0.08680  Biso   1.000  H
  C167     1.0000 0.50373  0.29980  0.06958  Biso   1.000  C
  H70      1.0000 0.47570  0.26070  0.07030  Biso   1.000  H
  C168     1.0000 0.48549  0.37650  0.05860  Biso   1.000  C
  C169     1.0000 0.52733  0.43490  0.05750  Biso   1.000  C
  H71      1.0000 0.51510  0.48620  0.05020  Biso   1.000  H
  C170     1.0000 0.58741  0.41660  0.06741  Biso   1.000  C
  H72      1.0000 0.61540  0.45570  0.06670  Biso   1.000  H
  C171     1.0000 0.79980  0.46530  0.90960  Biso   1.000  C
  C172     1.0000 0.80320  0.55050  0.91090  Biso   1.000  C
  C173     1.0000 0.75185  0.59360  0.91040  Biso   1.000  C
  H73      1.0000 0.71620  0.56790  0.91040  Biso   1.000  H
  C174     1.0000 0.75379  0.67510  0.91000  Biso   1.000  C
  H74      1.0000 0.71940  0.70390  0.90970  Biso   1.000  H
  C175     1.0000 0.80710  0.71340  0.91010  Biso   1.000  C
  H75      1.0000 0.80840  0.76790  0.90980  Biso   1.000  H
  C176     1.0000 0.85851  0.67030  0.91059  Biso   1.000  C
  C177     1.0000 0.85657  0.58880  0.91100  Biso   1.000  C
  H76      1.0000 0.89100  0.56000  0.91130  Biso   1.000  H
  C178     1.0000 0.91310  0.71030  0.91110  Biso   1.000  C
  C179     1.0000 0.76500  0.45350  0.71940  Biso   1.000  C
  C180     1.0000 0.79430  0.51960  0.74464  Biso   1.000  C
  C181     1.0000 0.76258  0.58540  0.75359  Biso   1.000  C
  H77      1.0000 0.72140  0.58550  0.74540  Biso   1.000  H
  C182     1.0000 0.79248  0.65120  0.77474  Biso   1.000  C
  C183     1.0000 0.85406  0.65110  0.78693  Biso   1.000  C
  H78      1.0000 0.87410  0.69510  0.80110  Biso   1.000  H
  C184     1.0000 0.88573  0.58530  0.77800  Biso   1.000  C
  H79      1.0000 0.92690  0.58520  0.78610  Biso   1.000  H
  C185     1.0000 0.85580  0.51950  0.75682  Biso   1.000  C
  H80      1.0000 0.87700  0.47550  0.75080  Biso   1.000  H
  C186     1.0000 0.76110  0.72060  0.78230  Biso   1.000  C
  C187     1.0000 0.76600  0.81810  0.02270  Biso   1.000  C
  C188     1.0000 0.79137  0.74410  0.03734  Biso   1.000  C
  C189     1.0000 0.75574  0.68010  0.04260  Biso   1.000  C
  H81      1.0000 0.71470  0.68520  0.03560  Biso   1.000  H
  C190     1.0000 0.78149  0.60870  0.05840  Biso   1.000  C
  C191     1.0000 0.84290  0.60130  0.06900  Biso   1.000  C
  H82      1.0000 0.86010  0.55350  0.07960  Biso   1.000  H
  C192     1.0000 0.87850  0.66520  0.06370  Biso   1.000  C
  H83      1.0000 0.91960  0.66010  0.07070  Biso   1.000  H
  C193     1.0000 0.85275  0.73660  0.04790  Biso   1.000  C
  H84      1.0000 0.87660  0.77930  0.04430  Biso   1.000  H
  C194     1.0000 0.74580  0.54530  0.06740  Biso   1.000  C
  C195     1.0000 0.84530  0.09830  0.08380  Biso   1.000  C
  C196     1.0000 0.89380  0.04010  0.10720  Biso   1.000  C
  C197     1.0000 0.87490  0.30680  0.81810  Biso   1.000  C
  C198     1.0000 0.93200  0.34460  0.84690  Biso   1.000  C
  C199     1.0000 0.63680  0.98750  0.70250  Biso   1.000  C
  C200     1.0000 0.59390  0.92110  0.68490  Biso   1.000  C
  C201     1.0000 0.92050  0.18450  0.94490  Biso   1.000  C
  C202     1.0000 0.98850  0.17460  0.95830  Biso   1.000  C
  C203     1.0000 0.65060  0.96520  0.91020  Biso   1.000  C
  F37      1.0000 0.88040  0.96710  0.09264  Biso   1.000  F
  F38      1.0000 0.94670  0.05550  0.09830  Biso   1.000  F
  F39      1.0000 0.89820  0.04030  0.15408  Biso   1.000  F
  F40      1.0000 0.98089  0.30500  0.84554  Biso   1.000  F
  F41      1.0000 0.94000  0.41630  0.83240  Biso   1.000  F
  F42      1.0000 0.92880  0.34890  0.89273  Biso   1.000  F
  F43      1.0000 0.54890  0.91770  0.70370  Biso   1.000  F
  F44      1.0000 0.61870  0.85220  0.69740  Biso   1.000  F
  F45      1.0000 0.57720  0.91830  0.64190  Biso   1.000  F
  F46      1.0000 0.01370  0.24630  0.96950  Biso   1.000  F
  F47      1.0000 0.00480  0.13940  0.99900  Biso   1.000  F
  F48      1.0000 0.01200  0.14410  0.92720  Biso   1.000  F
  N21      1.0000 0.41140  0.26120  0.94270  Biso   1.000  N
  N22      1.0000 0.40900  0.13250  0.80420  Biso   1.000  N
  N23      1.0000 0.42080  0.28280  0.69430  Biso   1.000  N
  N24      1.0000 0.42330  0.39630  0.04750  Biso   1.000  N
  N25      1.0000 0.79420  0.39780  0.90730  Biso   1.000  N
  N26      1.0000 0.95710  0.74100  0.91130  Biso   1.000  N
  N27      1.0000 0.74440  0.40150  0.69820  Biso   1.000  N
  N28      1.0000 0.73850  0.77790  0.78880  Biso   1.000  N
  N29      1.0000 0.74820  0.87860  0.01380  Biso   1.000  N
  N30      1.0000 0.71760  0.49370  0.07470  Biso   1.000  N
  O45      1.0000 0.39200  0.32640  0.94710  Biso   1.000  O
  O46      1.0000 0.38090  0.20350  0.93580  Biso   1.000  O
  O47      1.0000 0.38150  0.18640  0.81610  Biso   1.000  O
  O48      1.0000 0.38710  0.07020  0.78840  Biso   1.000  O
  O49      1.0000 0.59380  0.85140  0.80210  Biso   1.000  O
  O50      1.0000 0.38660  0.22840  0.68550  Biso   1.000  O
  O51      1.0000 0.38780  0.34880  0.05580  Biso   1.000  O
  O52      1.0000 0.41060  0.46180  0.02950  Biso   1.000  O
  O53      1.0000 0.86150  0.15760  0.06485  Biso   1.000  O
  O54      1.0000 0.79420  0.07990  0.08754  Biso   1.000  O
  O55      1.0000 0.83070  0.34980  0.81196  Biso   1.000  O
  O56      1.0000 0.87880  0.23690  0.80660  Biso   1.000  O
  O57      1.0000 0.64770  0.03100  0.67140  Biso   1.000  O
  O58      1.0000 0.65410  0.99000  0.74675  Biso   1.000  O
  O59      1.0000 0.89790  0.16760  0.90391  Biso   1.000  O
  O60      1.0000 0.89800  0.20860  0.97817  Biso   1.000  O
  O61      1.0000 0.64980  0.01450  0.94030  Biso   1.000  O
  O62      1.0000 0.67360  0.96120  0.87380  Biso   1.000  O
  O63      1.0000 0.66740  0.99540  0.07530  Biso   1.000  O
  O64      1.0000 0.64470  0.12320  0.07490  Biso   1.000  O
  C204     1.0000 0.63580  0.05310  0.07900  Biso   1.000  C
  C205     1.0000 0.57760  0.03280  0.09210  Biso   1.000  C
  F49      1.0000 0.53140  0.04610  0.05860  Biso   1.000  F
  F50      1.0000 0.57270  0.96220  0.10800  Biso   1.000  F
  F51      1.0000 0.56730  0.07940  0.12920  Biso   1.000  F
  Ag48     1.0000 0.71720  0.07410  0.89700  Biso   1.000  Ag
  C206     1.0000 0.63940  0.08500  0.08660  Biso   1.000  C
  C207     1.0000 0.60700  0.01300  0.09500  Biso   1.000  C
  F52      1.0000 0.63510  0.94890  0.09860  Biso   1.000  F
  F53      1.0000 0.56660  0.01330  0.11840  Biso   1.000  F
  F54      1.0000 0.56780  0.99720  0.04550  Biso   1.000  F
  O65      1.0000 0.65850  0.09150  0.05000  Biso   1.000  O
  O66      1.0000 0.64320  0.12730  0.12170  Biso   1.000  O
  Ag49     1.0000 0.25781  0.78498  0.60114  Biso   1.000  Ag
  Ag50     1.0000 0.19468  0.66102  0.63582  Biso   1.000  Ag
  Ag51     1.0000 0.19342  0.71192  0.51491  Biso   1.000  Ag
  Ag52     1.0000 0.18929  0.68428  0.76069  Biso   1.000  Ag
  Ag53     1.0000 0.18601  0.70117  0.89085  Biso   1.000  Ag
  Ag54     1.0000 0.25945  0.78711  0.70571  Biso   1.000  Ag
  Ag55     1.0000 0.25955  0.58896  0.83382  Biso   1.000  Ag
  Ag56     1.0000 0.28006  0.59129  0.72423  Biso   1.000  Ag
  Ag57     1.0000 0.25986  0.85963  0.47832  Biso   1.000  Ag
  Ag58     1.0000 0.94965  0.27210  0.57497  Biso   1.000  Ag
  Ag59     1.0000 0.27104  0.68158  0.44544  Biso   1.000  Ag
  Ag60     1.0000 0.29933  0.39030  0.69326  Biso   1.000  Ag
  Ag61     1.0000 0.27481  0.50350  0.47827  Biso   1.000  Ag
  Ag62     1.0000 0.25724  0.78869  0.84040  Biso   1.000  Ag
  Ag63     1.0000 0.28555  0.60924  0.57814  Biso   1.000  Ag
  C208     1.0000 0.28520  0.73190  0.52720  Biso   1.000  C
  C209     1.0000 0.33920  0.73290  0.53280  Biso   1.000  C
  C210     1.0000 0.40252  0.73870  0.54017  Biso   1.000  C
  C211     1.0000 0.42914  0.81180  0.54874  Biso   1.000  C
  H85      1.0000 0.40600  0.85600  0.55050  Biso   1.000  H
  C212     1.0000 0.49036  0.81890  0.55472  Biso   1.000  C
  H86      1.0000 0.50820  0.86790  0.56040  Biso   1.000  H
  C213     1.0000 0.52496  0.75290  0.55213  Biso   1.000  C
  C214     1.0000 0.49835  0.67970  0.54356  Biso   1.000  C
  H87      1.0000 0.52150  0.63550  0.54180  Biso   1.000  H
  C215     1.0000 0.43713  0.67260  0.53758  Biso   1.000  C
  H88      1.0000 0.41930  0.62370  0.53180  Biso   1.000  H
  C216     1.0000 0.28790  0.68010  0.65400  Biso   1.000  C
  C217     1.0000 0.34090  0.66290  0.66280  Biso   1.000  C
  C218     1.0000 0.40420  0.65400  0.67179  Biso   1.000  C
  C219     1.0000 0.43887  0.71874  0.66625  Biso   1.000  C
  H89      1.0000 0.42100  0.76680  0.65730  Biso   1.000  H
  C220     1.0000 0.50022  0.71160  0.67402  Biso   1.000  C
  H90      1.0000 0.52340  0.75500  0.67030  Biso   1.000  H
  C221     1.0000 0.52691  0.63970  0.68734  Biso   1.000  C
  C222     1.0000 0.49224  0.57500  0.69288  Biso   1.000  C
  H91      1.0000 0.51010  0.52690  0.70180  Biso   1.000  H
  C223     1.0000 0.43088  0.58210  0.68511  Biso   1.000  C
  H92      1.0000 0.40770  0.53880  0.68880  Biso   1.000  H
  C224     1.0000 0.28200  0.70150  0.77570  Biso   1.000  C
  C225     1.0000 0.33360  0.72090  0.78200  Biso   1.000  C
  C226     1.0000 0.39595  0.73810  0.78960  Biso   1.000  C
  C227     1.0000 0.43654  0.67690  0.79917  Biso   1.000  C
  H93      1.0000 0.42330  0.62590  0.80180  Biso   1.000  H
  C228     1.0000 0.49690  0.69210  0.80480  Biso   1.000  C
  H94      1.0000 0.52410  0.65120  0.81120  Biso   1.000  H
  C229     1.0000 0.51667  0.76840  0.80090  Biso   1.000  C
  C230     1.0000 0.47610  0.82950  0.79130  Biso   1.000  C
  H95      1.0000 0.48930  0.88050  0.78870  Biso   1.000  H
  C231     1.0000 0.41572  0.81430  0.78569  Biso   1.000  C
  H96      1.0000 0.38860  0.85520  0.77930  Biso   1.000  H
  C232     1.0000 0.28000  0.69720  0.90290  Biso   1.000  C
  C233     1.0000 0.33250  0.82150  0.41190  Biso   1.000  C
  C234     1.0000 0.39435  0.84000  0.42161  Biso   1.000  C
  C235     1.0000 0.43618  0.78155  0.42053  Biso   1.000  C
  H97      1.0000 0.42400  0.73030  0.41320  Biso   1.000  H
  C236     1.0000 0.49627  0.79980  0.43042  Biso   1.000  C
  H98      1.0000 0.52430  0.76070  0.42970  Biso   1.000  H
  C237     1.0000 0.51451  0.87650  0.44140  Biso   1.000  C
  C238     1.0000 0.47267  0.93490  0.44250  Biso   1.000  C
  H99      1.0000 0.48490  0.98620  0.44980  Biso   1.000  H
  C239     1.0000 0.41259  0.91660  0.43259  Biso   1.000  C
  H100     1.0000 0.38460  0.95570  0.43330  Biso   1.000  H
  C240     1.0000 0.20020  0.96530  0.59040  Biso   1.000  C
  C241     1.0000 0.19680  0.05050  0.58910  Biso   1.000  C
  C242     1.0000 0.24815  0.09360  0.58960  Biso   1.000  C
  H101     1.0000 0.28380  0.06790  0.58960  Biso   1.000  H
  C243     1.0000 0.24621  0.17510  0.59000  Biso   1.000  C
  H102     1.0000 0.28060  0.20390  0.59030  Biso   1.000  H
  C244     1.0000 0.19290  0.21340  0.58990  Biso   1.000  C
  H103     1.0000 0.19160  0.26790  0.59020  Biso   1.000  H
  C245     1.0000 0.14149  0.17030  0.58941  Biso   1.000  C
  C246     1.0000 0.14343  0.08880  0.58900  Biso   1.000  C
  H104     1.0000 0.10900  0.06000  0.58870  Biso   1.000  H
  C247     1.0000 0.08690  0.21030  0.58890  Biso   1.000  C
  C248     1.0000 0.23500  0.95350  0.78060  Biso   1.000  C
  C249     1.0000 0.20570  0.01960  0.75536  Biso   1.000  C
  C250     1.0000 0.23742  0.08540  0.74641  Biso   1.000  C
  H105     1.0000 0.27860  0.08550  0.75460  Biso   1.000  H
  C251     1.0000 0.20752  0.15120  0.72526  Biso   1.000  C
  C252     1.0000 0.14594  0.15110  0.71307  Biso   1.000  C
  H106     1.0000 0.12590  0.19510  0.69890  Biso   1.000  H
  C253     1.0000 0.11427  0.08530  0.72200  Biso   1.000  C
  H107     1.0000 0.07310  0.08520  0.71390  Biso   1.000  H
  C254     1.0000 0.14420  0.01950  0.74318  Biso   1.000  C
  H108     1.0000 0.12300  0.97550  0.74920  Biso   1.000  H
  C255     1.0000 0.23890  0.22060  0.71770  Biso   1.000  C
  C256     1.0000 0.23400  0.31810  0.47730  Biso   1.000  C
  C257     1.0000 0.20863  0.24410  0.46266  Biso   1.000  C
  C258     1.0000 0.24426  0.18010  0.45740  Biso   1.000  C
  H109     1.0000 0.28530  0.18520  0.46440  Biso   1.000  H
  C259     1.0000 0.21851  0.10870  0.44160  Biso   1.000  C
  C260     1.0000 0.15710  0.10130  0.43100  Biso   1.000  C
  H110     1.0000 0.13990  0.05350  0.42040  Biso   1.000  H
  C261     1.0000 0.12150  0.16520  0.43630  Biso   1.000  C
  H111     1.0000 0.08040  0.16010  0.42930  Biso   1.000  H
  C262     1.0000 0.14725  0.23660  0.45210  Biso   1.000  C
  H112     1.0000 0.12340  0.27930  0.45570  Biso   1.000  H
  C263     1.0000 0.25420  0.04530  0.43260  Biso   1.000  C
  C264     1.0000 0.15470  0.59830  0.41620  Biso   1.000  C
  C265     1.0000 0.10620  0.54010  0.39280  Biso   1.000  C
  C266     1.0000 0.12510  0.80680  0.68190  Biso   1.000  C
  C267     1.0000 0.06800  0.84460  0.65310  Biso   1.000  C
  C268     1.0000 0.36320  0.48750  0.79750  Biso   1.000  C
  C269     1.0000 0.40610  0.42110  0.81510  Biso   1.000  C
  C270     1.0000 0.07950  0.68450  0.55510  Biso   1.000  C
  C271     1.0000 0.01150  0.67460  0.54170  Biso   1.000  C
  C272     1.0000 0.34940  0.46520  0.58980  Biso   1.000  C
  F55      1.0000 0.11960  0.46710  0.40736  Biso   1.000  F
  F56      1.0000 0.05330  0.55550  0.40170  Biso   1.000  F
  F57      1.0000 0.10180  0.54030  0.34592  Biso   1.000  F
  F58      1.0000 0.01911  0.80500  0.65446  Biso   1.000  F
  F59      1.0000 0.06000  0.91630  0.66760  Biso   1.000  F
  F60      1.0000 0.07120  0.84890  0.60727  Biso   1.000  F
  F61      1.0000 0.45110  0.41770  0.79630  Biso   1.000  F
  F62      1.0000 0.38130  0.35220  0.80260  Biso   1.000  F
  F63      1.0000 0.42280  0.41830  0.85810  Biso   1.000  F
  F64      1.0000 0.98630  0.74630  0.53050  Biso   1.000  F
  F65      1.0000 0.99520  0.63940  0.50100  Biso   1.000  F
  F66      1.0000 0.98800  0.64410  0.57280  Biso   1.000  F
  N31      1.0000 0.58860  0.76120  0.55730  Biso   1.000  N
  N32      1.0000 0.59100  0.63250  0.69580  Biso   1.000  N
  N33      1.0000 0.57920  0.78280  0.80570  Biso   1.000  N
  N34      1.0000 0.57670  0.89630  0.45250  Biso   1.000  N
  N35      1.0000 0.20580  0.89780  0.59270  Biso   1.000  N
  N36      1.0000 0.04290  0.24100  0.58870  Biso   1.000  N
  N37      1.0000 0.25560  0.90150  0.80180  Biso   1.000  N
  N38      1.0000 0.26150  0.27790  0.71120  Biso   1.000  N
  N39      1.0000 0.25180  0.37860  0.48620  Biso   1.000  N
  N40      1.0000 0.28240  0.99370  0.42530  Biso   1.000  N
  O67      1.0000 0.60800  0.82640  0.55290  Biso   1.000  O
  O68      1.0000 0.61910  0.70350  0.56420  Biso   1.000  O
  O69      1.0000 0.61850  0.68640  0.68390  Biso   1.000  O
  O70      1.0000 0.61290  0.57020  0.71160  Biso   1.000  O
  O71      1.0000 0.40620  0.35140  0.69790  Biso   1.000  O
  O72      1.0000 0.61340  0.72840  0.81450  Biso   1.000  O
  O73      1.0000 0.61220  0.84880  0.44420  Biso   1.000  O
  O74      1.0000 0.58940  0.96180  0.47050  Biso   1.000  O
  O75      1.0000 0.13850  0.65760  0.43515  Biso   1.000  O
  O76      1.0000 0.20580  0.57990  0.41246  Biso   1.000  O
  O77      1.0000 0.16930  0.84980  0.68804  Biso   1.000  O
  O78      1.0000 0.12120  0.73690  0.69340  Biso   1.000  O
  O79      1.0000 0.35230  0.53100  0.82860  Biso   1.000  O
  O80      1.0000 0.34590  0.49000  0.75325  Biso   1.000  O
  O81      1.0000 0.10210  0.66760  0.59609  Biso   1.000  O
  O82      1.0000 0.10200  0.70860  0.52183  Biso   1.000  O
  O83      1.0000 0.35020  0.51450  0.55970  Biso   1.000  O
  O84      1.0000 0.32640  0.46120  0.62620  Biso   1.000  O
  O85      1.0000 0.33260  0.49540  0.42470  Biso   1.000  O
  O86      1.0000 0.35530  0.62320  0.42510  Biso   1.000  O
  C273     1.0000 0.36420  0.55310  0.42100  Biso   1.000  C
  C274     1.0000 0.42240  0.53280  0.40790  Biso   1.000  C
  F67      1.0000 0.46860  0.54610  0.44140  Biso   1.000  F
  F68      1.0000 0.42730  0.46220  0.39200  Biso   1.000  F
  F69      1.0000 0.43270  0.57940  0.37080  Biso   1.000  F
  Ag64     1.0000 0.28280  0.57410  0.60300  Biso   1.000  Ag
  C275     1.0000 0.36060  0.58500  0.41340  Biso   1.000  C
  C276     1.0000 0.39300  0.51300  0.40500  Biso   1.000  C
  F70      1.0000 0.36490  0.44890  0.40140  Biso   1.000  F
  F71      1.0000 0.43340  0.51330  0.38160  Biso   1.000  F
  F72      1.0000 0.43220  0.49720  0.45450  Biso   1.000  F
  O87      1.0000 0.34150  0.59150  0.45000  Biso   1.000  O
  O88      1.0000 0.35680  0.62730  0.37830  Biso   1.000  O
