data_image0
_cell_length_a       24.2788
_cell_length_b       25.6735
_cell_length_c       53.8201
_cell_angle_alpha    90
_cell_angle_beta     90
_cell_angle_gamma    90

_symmetry_space_group_name_H-M    "P 1"
_symmetry_int_tables_number       1

loop_
  _symmetry_equiv_pos_as_xyz
  'x, y, z'

loop_
  _atom_site_label
  _atom_site_occupancy
  _atom_site_fract_x
  _atom_site_fract_y
  _atom_site_fract_z
  _atom_site_thermal_displace_type
  _atom_site_B_iso_or_equiv
  _atom_site_type_symbol
  K1       1.0000 0.25770  0.18679  0.23842  Biso   1.000  K
  K2       1.0000 0.52569  0.42261  0.22610  Biso   1.000  K
  K3       1.0000 0.51395  0.16127  0.40638  Biso   1.000  K
  K4       1.0000 0.24088  0.37994  0.39057  Biso   1.000  K
  K5       1.0000 0.23944  0.37251  0.07245  Biso   1.000  K
  K6       1.0000 0.51300  0.14133  0.05930  Biso   1.000  K
  Zn1      1.0000 0.40059  0.26871  0.15014  Biso   1.000  Zn
  O1       1.0000 0.47918  0.16363  0.10206  Biso   1.000  O
  O2       1.0000 0.30229  0.37313  0.10988  Biso   1.000  O
  O3       1.0000 0.32577  0.17213  0.20294  Biso   1.000  O
  O4       1.0000 0.49736  0.38260  0.18544  Biso   1.000  O
  N1       1.0000 0.42930  0.22737  0.12181  Biso   1.000  N
  N2       1.0000 0.35661  0.30674  0.12471  Biso   1.000  N
  N3       1.0000 0.38162  0.22688  0.18009  Biso   1.000  N
  N4       1.0000 0.43955  0.31585  0.17354  Biso   1.000  N
  N5       1.0000 0.48968  0.17740  0.14399  Biso   1.000  N
  H1       1.0000 0.48570  0.20060  0.15590  Biso   1.000  H
  N6       1.0000 0.29760  0.34940  0.15023  Biso   1.000  N
  H2       1.0000 0.30700  0.32510  0.16090  Biso   1.000  H
  N7       1.0000 0.33879  0.15836  0.16134  Biso   1.000  N
  H3       1.0000 0.35250  0.17140  0.14750  Biso   1.000  H
  N8       1.0000 0.46177  0.38008  0.14604  Biso   1.000  N
  H4       1.0000 0.44690  0.35960  0.13480  Biso   1.000  H
  C1       1.0000 0.53370  0.13380  0.17752  Biso   1.000  C
  H5       1.0000 0.55720  0.16420  0.18070  Biso   1.000  H
  H6       1.0000 0.55290  0.10210  0.18280  Biso   1.000  H
  H7       1.0000 0.49920  0.13740  0.18680  Biso   1.000  H
  C2       1.0000 0.52113  0.13035  0.14990  Biso   1.000  C
  C3       1.0000 0.48740  0.08150  0.14437  Biso   1.000  C
  H8       1.0000 0.47790  0.08060  0.12670  Biso   1.000  H
  H9       1.0000 0.45350  0.08200  0.15430  Biso   1.000  H
  H10      1.0000 0.50900  0.05050  0.14860  Biso   1.000  H
  C4       1.0000 0.57500  0.12830  0.13522  Biso   1.000  C
  H11      1.0000 0.59520  0.16090  0.13750  Biso   1.000  H
  H12      1.0000 0.56680  0.12340  0.11750  Biso   1.000  H
  H13      1.0000 0.59740  0.09910  0.14120  Biso   1.000  H
  C5       1.0000 0.46556  0.18860  0.12120  Biso   1.000  C
  C6       1.0000 0.40166  0.24205  0.09873  Biso   1.000  C
  H14      1.0000 0.37080  0.21770  0.09550  Biso   1.000  H
  H15      1.0000 0.42790  0.23930  0.08470  Biso   1.000  H
  C7       1.0000 0.37962  0.29732  0.10016  Biso   1.000  C
  H16      1.0000 0.40980  0.32240  0.09690  Biso   1.000  H
  H17      1.0000 0.35080  0.30240  0.08740  Biso   1.000  H
  C8       1.0000 0.31907  0.34460  0.12675  Biso   1.000  C
  C9       1.0000 0.26140  0.38960  0.15946  Biso   1.000  C
  C10      1.0000 0.25240  0.37950  0.18695  Biso   1.000  C
  H18      1.0000 0.23510  0.34530  0.18920  Biso   1.000  H
  H19      1.0000 0.22840  0.40660  0.19390  Biso   1.000  H
  H20      1.0000 0.28800  0.38010  0.19560  Biso   1.000  H
  C11      1.0000 0.28830  0.44170  0.15625  Biso   1.000  C
  H21      1.0000 0.29540  0.44790  0.13860  Biso   1.000  H
  H22      1.0000 0.32320  0.44230  0.16540  Biso   1.000  H
  H23      1.0000 0.26390  0.46900  0.16270  Biso   1.000  H
  C12      1.0000 0.20740  0.38940  0.14630  Biso   1.000  C
  H24      1.0000 0.19130  0.35450  0.14720  Biso   1.000  H
  H25      1.0000 0.21300  0.39920  0.12890  Biso   1.000  H
  H26      1.0000 0.18260  0.41450  0.15420  Biso   1.000  H
  C13      1.0000 0.31380  0.09160  0.13233  Biso   1.000  C
  H27      1.0000 0.29690  0.11760  0.12140  Biso   1.000  H
  H28      1.0000 0.29510  0.05810  0.13010  Biso   1.000  H
  H29      1.0000 0.35280  0.08790  0.12810  Biso   1.000  H
  C14      1.0000 0.30820  0.10900  0.15934  Biso   1.000  C
  C15      1.0000 0.24710  0.11770  0.16547  Biso   1.000  C
  H30      1.0000 0.24350  0.12910  0.18280  Biso   1.000  H
  H31      1.0000 0.22680  0.08500  0.16310  Biso   1.000  H
  H32      1.0000 0.23190  0.14440  0.15440  Biso   1.000  H
  C16      1.0000 0.33160  0.06760  0.17643  Biso   1.000  C
  H33      1.0000 0.32830  0.07910  0.19370  Biso   1.000  H
  H34      1.0000 0.37050  0.06180  0.17240  Biso   1.000  H
  H35      1.0000 0.31100  0.03510  0.17420  Biso   1.000  H
  C17      1.0000 0.34800  0.18620  0.18300  Biso   1.000  C
  C18      1.0000 0.39350  0.25750  0.20243  Biso   1.000  C
  H36      1.0000 0.40000  0.23400  0.21670  Biso   1.000  H
  H37      1.0000 0.36170  0.28020  0.20640  Biso   1.000  H
  C19      1.0000 0.44450  0.29060  0.19763  Biso   1.000  C
  H38      1.0000 0.44830  0.31730  0.21080  Biso   1.000  H
  H39      1.0000 0.47780  0.26830  0.19790  Biso   1.000  H
  C20      1.0000 0.46733  0.35980  0.16966  Biso   1.000  C
  C21      1.0000 0.47820  0.43240  0.13791  Biso   1.000  C
  C22      1.0000 0.45730  0.43830  0.11143  Biso   1.000  C
  H40      1.0000 0.41720  0.43450  0.11120  Biso   1.000  H
  H41      1.0000 0.47410  0.41140  0.10090  Biso   1.000  H
  H42      1.0000 0.46740  0.47280  0.10510  Biso   1.000  H
  C23      1.0000 0.54130  0.43730  0.13808  Biso   1.000  C
  H43      1.0000 0.55730  0.41080  0.12710  Biso   1.000  H
  H44      1.0000 0.55500  0.43220  0.15500  Biso   1.000  H
  H45      1.0000 0.55190  0.47200  0.13220  Biso   1.000  H
  C24      1.0000 0.45310  0.47460  0.15430  Biso   1.000  C
  H46      1.0000 0.41290  0.47100  0.15440  Biso   1.000  H
  H47      1.0000 0.46310  0.50890  0.14780  Biso   1.000  H
  H48      1.0000 0.46720  0.47100  0.17130  Biso   1.000  H
  Zn2      1.0000 0.39579  0.31104  0.31920  Biso   1.000  Zn
  O5       1.0000 0.28832  0.20776  0.28283  Biso   1.000  O
  O6       1.0000 0.48241  0.39959  0.26633  Biso   1.000  O
  O7       1.0000 0.47990  0.21461  0.36983  Biso   1.000  O
  O8       1.0000 0.30263  0.42326  0.35662  Biso   1.000  O
  N9       1.0000 0.35478  0.26608  0.29545  Biso   1.000  N
  N10      1.0000 0.42892  0.34345  0.28946  Biso   1.000  N
  N11      1.0000 0.42639  0.27401  0.34849  Biso   1.000  N
  N12      1.0000 0.36384  0.35983  0.34405  Biso   1.000  N
  N13      1.0000 0.30830  0.21782  0.32400  Biso   1.000  N
  H49      1.0000 0.32880  0.23460  0.33480  Biso   1.000  H
  N14      1.0000 0.50031  0.38743  0.30769  Biso   1.000  N
  H50      1.0000 0.49780  0.36480  0.31990  Biso   1.000  H
  N15      1.0000 0.47065  0.20936  0.32730  Biso   1.000  N
  H51      1.0000 0.46760  0.22870  0.31390  Biso   1.000  H
  N16      1.0000 0.34096  0.42585  0.31772  Biso   1.000  N
  H52      1.0000 0.35880  0.40760  0.30650  Biso   1.000  H
  C25      1.0000 0.27850  0.18060  0.36226  Biso   1.000  C
  H53      1.0000 0.27040  0.21540  0.36880  Biso   1.000  H
  H54      1.0000 0.31690  0.17160  0.36590  Biso   1.000  H
  H55      1.0000 0.25400  0.15510  0.37020  Biso   1.000  H
  C26      1.0000 0.26930  0.17990  0.33413  Biso   1.000  C
  C27      1.0000 0.21030  0.19640  0.32816  Biso   1.000  C
  H56      1.0000 0.20590  0.19970  0.31010  Biso   1.000  H
  H57      1.0000 0.20240  0.22990  0.33610  Biso   1.000  H
  H58      1.0000 0.18460  0.17000  0.33440  Biso   1.000  H
  C28      1.0000 0.27970  0.12590  0.32436  Biso   1.000  C
  H59      1.0000 0.27270  0.12510  0.30640  Biso   1.000  H
  H60      1.0000 0.25500  0.10120  0.33270  Biso   1.000  H
  H61      1.0000 0.31800  0.11610  0.32760  Biso   1.000  H
  C29      1.0000 0.31630  0.23000  0.29941  Biso   1.000  C
  C30      1.0000 0.36890  0.27910  0.27001  Biso   1.000  C
  H62      1.0000 0.33510  0.27820  0.25970  Biso   1.000  H
  H63      1.0000 0.39450  0.25240  0.26340  Biso   1.000  H
  C31      1.0000 0.39490  0.33130  0.26778  Biso   1.000  C
  H64      1.0000 0.41800  0.33220  0.25260  Biso   1.000  H
  H65      1.0000 0.36580  0.35800  0.26600  Biso   1.000  H
  C32      1.0000 0.47020  0.37710  0.28636  Biso   1.000  C
  C33      1.0000 0.53610  0.43300  0.31155  Biso   1.000  C
  C34      1.0000 0.54980  0.43380  0.33898  Biso   1.000  C
  H66      1.0000 0.51580  0.43680  0.34870  Biso   1.000  H
  H67      1.0000 0.57370  0.46370  0.34260  Biso   1.000  H
  H68      1.0000 0.56890  0.40150  0.34350  Biso   1.000  H
  C35      1.0000 0.58930  0.42810  0.29636  Biso   1.000  C
  H69      1.0000 0.60990  0.39740  0.30190  Biso   1.000  H
  H70      1.0000 0.61190  0.45940  0.29880  Biso   1.000  H
  H71      1.0000 0.58020  0.42450  0.27870  Biso   1.000  H
  C36      1.0000 0.50690  0.48270  0.30447  Biso   1.000  C
  H72      1.0000 0.47230  0.48550  0.31380  Biso   1.000  H
  H73      1.0000 0.49900  0.48250  0.28660  Biso   1.000  H
  H74      1.0000 0.53050  0.51260  0.30840  Biso   1.000  H
  C37      1.0000 0.48610  0.14560  0.29628  Biso   1.000  C
  H75      1.0000 0.51280  0.16870  0.28820  Biso   1.000  H
  H76      1.0000 0.44910  0.15320  0.29000  Biso   1.000  H
  H77      1.0000 0.49550  0.10930  0.29270  Biso   1.000  H
  C38      1.0000 0.48760  0.15450  0.32422  Biso   1.000  C
  C39      1.0000 0.54640  0.14570  0.33349  Biso   1.000  C
  H78      1.0000 0.57170  0.16870  0.32450  Biso   1.000  H
  H79      1.0000 0.55690  0.10930  0.33060  Biso   1.000  H
  H80      1.0000 0.54830  0.15330  0.35130  Biso   1.000  H
  C40      1.0000 0.44840  0.11820  0.33747  Biso   1.000  C
  H81      1.0000 0.45030  0.12450  0.35540  Biso   1.000  H
  H82      1.0000 0.45880  0.08200  0.33400  Biso   1.000  H
  H83      1.0000 0.41080  0.12440  0.33160  Biso   1.000  H
  C41      1.0000 0.45923  0.23250  0.35023  Biso   1.000  C
  C42      1.0000 0.41580  0.30350  0.37117  Biso   1.000  C
  H84      1.0000 0.44670  0.32770  0.37440  Biso   1.000  H
  H85      1.0000 0.41260  0.27950  0.38550  Biso   1.000  H
  C43      1.0000 0.36222  0.33435  0.36813  Biso   1.000  C
  H86      1.0000 0.33020  0.31060  0.36910  Biso   1.000  H
  H87      1.0000 0.35880  0.36060  0.38150  Biso   1.000  H
  C44      1.0000 0.33433  0.40323  0.34074  Biso   1.000  C
  C45      1.0000 0.32110  0.47750  0.31009  Biso   1.000  C
  C46      1.0000 0.34450  0.48620  0.28409  Biso   1.000  C
  H88      1.0000 0.38480  0.48370  0.28470  Biso   1.000  H
  H89      1.0000 0.33390  0.52080  0.27810  Biso   1.000  H
  H90      1.0000 0.33000  0.45960  0.27280  Biso   1.000  H
  C47      1.0000 0.25850  0.47860  0.30917  Biso   1.000  C
  H91      1.0000 0.24370  0.46820  0.32540  Biso   1.000  H
  H92      1.0000 0.24550  0.45440  0.29640  Biso   1.000  H
  H93      1.0000 0.24600  0.51390  0.30520  Biso   1.000  H
  C48      1.0000 0.34220  0.52000  0.32746  Biso   1.000  C
  H94      1.0000 0.38220  0.51710  0.32910  Biso   1.000  H
  H95      1.0000 0.32510  0.51590  0.34380  Biso   1.000  H
  H96      1.0000 0.33270  0.55420  0.32060  Biso   1.000  H
  Zn3      1.0000 0.36540  0.26566  0.48446  Biso   1.000  Zn
  O9       1.0000 0.45946  0.15243  0.44718  Biso   1.000  O
  O10      1.0000 0.27801  0.35850  0.43385  Biso   1.000  O
  O11      1.0000 0.27282  0.32397  0.03449  Biso   1.000  O
  O12      1.0000 0.45443  0.11878  0.02173  Biso   1.000  O
  N17      1.0000 0.40233  0.21842  0.46052  Biso   1.000  N
  N18      1.0000 0.32894  0.29683  0.45500  Biso   1.000  N
  N19      1.0000 0.33122  0.26748  0.01391  Biso   1.000  N
  N20      1.0000 0.39491  0.18225  0.00852  Biso   1.000  N
  N21      1.0000 0.44987  0.16926  0.48869  Biso   1.000  N
  H97      1.0000 0.42860  0.18410  0.49990  Biso   1.000  H
  N22      1.0000 0.26171  0.34211  0.47522  Biso   1.000  N
  H98      1.0000 0.25710  0.31550  0.48530  Biso   1.000  H
  N23      1.0000 0.29874  0.34040  0.99424  Biso   1.000  N
  H99      1.0000 0.30740  0.32500  0.98020  Biso   1.000  H
  N24      1.0000 0.43423  0.12782  0.98037  Biso   1.000  N
  H100     1.0000 0.41920  0.14810  0.96910  Biso   1.000  H
  C49      1.0000 0.49230  0.14100  0.52629  Biso   1.000  C
  H101     1.0000 0.49910  0.17730  0.53110  Biso   1.000  H
  H102     1.0000 0.52060  0.11860  0.53370  Biso   1.000  H
  H103     1.0000 0.45590  0.13030  0.53230  Biso   1.000  H
  C50      1.0000 0.49440  0.13620  0.49797  Biso   1.000  C
  C51      1.0000 0.48520  0.07980  0.49074  Biso   1.000  C
  H104     1.0000 0.48220  0.07710  0.47260  Biso   1.000  H
  H105     1.0000 0.45100  0.06710  0.49840  Biso   1.000  H
  H106     1.0000 0.51620  0.05860  0.49650  Biso   1.000  H
  C52      1.0000 0.55000  0.15450  0.48841  Biso   1.000  C
  H107     1.0000 0.55510  0.19140  0.49260  Biso   1.000  H
  H108     1.0000 0.55140  0.15030  0.47030  Biso   1.000  H
  H109     1.0000 0.57930  0.13380  0.49610  Biso   1.000  H
  C53      1.0000 0.43805  0.17950  0.46406  Biso   1.000  C
  C54      1.0000 0.38135  0.22684  0.43537  Biso   1.000  C
  H110     1.0000 0.35180  0.20130  0.43180  Biso   1.000  H
  H111     1.0000 0.41140  0.22120  0.42320  Biso   1.000  H
  C55      1.0000 0.35875  0.28192  0.43249  Biso   1.000  C
  H112     1.0000 0.38940  0.30650  0.42960  Biso   1.000  H
  H113     1.0000 0.33370  0.28340  0.41800  Biso   1.000  H
  C56      1.0000 0.29081  0.33376  0.45319  Biso   1.000  C
  C57      1.0000 0.23840  0.39241  0.48266  Biso   1.000  C
  C58      1.0000 0.22110  0.38620  0.50974  Biso   1.000  C
  H114     1.0000 0.19390  0.35810  0.51110  Biso   1.000  H
  H115     1.0000 0.20480  0.41880  0.51570  Biso   1.000  H
  H116     1.0000 0.25340  0.37760  0.51980  Biso   1.000  H
  C59      1.0000 0.18830  0.40660  0.46718  Biso   1.000  C
  H117     1.0000 0.16020  0.37950  0.46900  Biso   1.000  H
  H118     1.0000 0.19900  0.40940  0.44970  Biso   1.000  H
  H119     1.0000 0.17340  0.44000  0.47290  Biso   1.000  H
  C60      1.0000 0.28280  0.43470  0.48078  Biso   1.000  C
  H120     1.0000 0.31480  0.42460  0.49070  Biso   1.000  H
  H121     1.0000 0.26800  0.46770  0.48710  Biso   1.000  H
  H122     1.0000 0.29380  0.43900  0.46340  Biso   1.000  H
  C61      1.0000 0.29780  0.41380  0.96702  Biso   1.000  C
  H123     1.0000 0.27570  0.39390  0.95510  Biso   1.000  H
  H124     1.0000 0.28940  0.45100  0.96540  Biso   1.000  H
  H125     1.0000 0.33700  0.40800  0.96370  Biso   1.000  H
  C62      1.0000 0.28420  0.39590  0.99327  Biso   1.000  C
  C63      1.0000 0.22190  0.40240  0.99813  Biso   1.000  C
  H126     1.0000 0.21320  0.39020  0.01490  Biso   1.000  H
  H127     1.0000 0.21190  0.43920  0.99660  Biso   1.000  H
  H128     1.0000 0.20120  0.38180  0.98600  Biso   1.000  H
  C64      1.0000 0.31720  0.42750  0.01229  Biso   1.000  C
  H129     1.0000 0.30920  0.41470  0.02910  Biso   1.000  H
  H130     1.0000 0.35660  0.42380  0.00890  Biso   1.000  H
  H131     1.0000 0.30680  0.46430  0.01110  Biso   1.000  H
  C65      1.0000 0.29991  0.31040  0.01578  Biso   1.000  C
  C66      1.0000 0.33430  0.23250  0.03515  Biso   1.000  C
  H132     1.0000 0.33280  0.25270  0.05080  Biso   1.000  H
  H133     1.0000 0.30270  0.20800  0.03490  Biso   1.000  H
  C67      1.0000 0.38790  0.20240  0.03368  Biso   1.000  C
  H134     1.0000 0.38740  0.17320  0.04570  Biso   1.000  H
  H135     1.0000 0.41910  0.22560  0.03790  Biso   1.000  H
  C68      1.0000 0.42860  0.14250  0.00502  Biso   1.000  C
  C69      1.0000 0.46340  0.08100  0.97161  Biso   1.000  C
  C70      1.0000 0.45360  0.07950  0.94349  Biso   1.000  C
  H136     1.0000 0.46870  0.11110  0.93590  Biso   1.000  H
  H137     1.0000 0.47190  0.04880  0.93640  Biso   1.000  H
  H138     1.0000 0.41400  0.07760  0.94020  Biso   1.000  H
  C71      1.0000 0.52550  0.08510  0.97661  Biso   1.000  C
  H139     1.0000 0.53190  0.08810  0.99450  Biso   1.000  H
  H140     1.0000 0.54410  0.05400  0.97030  Biso   1.000  H
  H141     1.0000 0.54020  0.11610  0.96820  Biso   1.000  H
  C72      1.0000 0.44050  0.03180  0.98341  Biso   1.000  C
  H142     1.0000 0.44460  0.03380  0.00150  Biso   1.000  H
  H143     1.0000 0.40140  0.02830  0.97920  Biso   1.000  H
  H144     1.0000 0.46070  0.00140  0.97720  Biso   1.000  H
  O13      1.0000 0.22120  0.09110  0.24040  Biso   1.000  O
  N25      1.0000 0.14610  0.04900  0.22790  Biso   1.000  N
  C73      1.0000 0.20030  0.05160  0.23090  Biso   1.000  C
  C74      1.0000 0.23480  0.00280  0.22790  Biso   1.000  C
  H145     1.0000 0.23650  0.98420  0.24380  Biso   1.000  H
  H146     1.0000 0.27220  0.01050  0.22210  Biso   1.000  H
  H147     1.0000 0.21590  0.98110  0.21550  Biso   1.000  H
  C75      1.0000 0.11300  0.09540  0.23250  Biso   1.000  C
  H148     1.0000 0.13320  0.11650  0.24460  Biso   1.000  H
  H149     1.0000 0.07680  0.08620  0.23940  Biso   1.000  H
  H150     1.0000 0.10800  0.11530  0.21710  Biso   1.000  H
  C76      1.0000 0.11510  0.00670  0.21670  Biso   1.000  C
  H151     1.0000 0.10500  0.01470  0.19940  Biso   1.000  H
  H152     1.0000 0.08160  0.00290  0.22670  Biso   1.000  H
  H153     1.0000 0.13620  0.97410  0.21720  Biso   1.000  H
  O14      1.0000 0.20680  0.09770  0.23970  Biso   1.000  O
  N26      1.0000 0.16240  0.02870  0.22470  Biso   1.000  N
  C77      1.0000 0.16220  0.07550  0.23530  Biso   1.000  C
  C78      1.0000 0.11070  0.09340  0.24880  Biso   1.000  C
  H154     1.0000 0.11020  0.08370  0.26640  Biso   1.000  H
  H155     1.0000 0.08130  0.07480  0.24000  Biso   1.000  H
  H156     1.0000 0.10480  0.13110  0.24720  Biso   1.000  H
  C79      1.0000 0.21480  0.00780  0.21600  Biso   1.000  C
  H157     1.0000 0.24220  0.02990  0.22420  Biso   1.000  H
  H158     1.0000 0.22030  0.00930  0.19790  Biso   1.000  H
  H159     1.0000 0.21900  0.97170  0.22170  Biso   1.000  H
  C80      1.0000 0.11940  0.98940  0.22660  Biso   1.000  C
  H160     1.0000 0.12720  0.96160  0.23860  Biso   1.000  H
  H161     1.0000 0.11920  0.97480  0.20970  Biso   1.000  H
  H162     1.0000 0.08340  0.00480  0.23030  Biso   1.000  H
  O15      1.0000 0.52370  0.52520  0.23730  Biso   1.000  O
  N27      1.0000 0.60730  0.56110  0.23598  Biso   1.000  N
  C81      1.0000 0.55700  0.55790  0.24535  Biso   1.000  C
  C82      1.0000 0.53970  0.59620  0.26520  Biso   1.000  C
  H163     1.0000 0.53630  0.63110  0.25800  Biso   1.000  H
  H164     1.0000 0.56700  0.59680  0.27860  Biso   1.000  H
  H165     1.0000 0.50390  0.58530  0.27200  Biso   1.000  H
  C83      1.0000 0.62470  0.52450  0.21680  Biso   1.000  C
  H166     1.0000 0.63830  0.49250  0.22470  Biso   1.000  H
  H167     1.0000 0.65430  0.54040  0.20700  Biso   1.000  H
  H168     1.0000 0.59360  0.51620  0.20590  Biso   1.000  H
  C84      1.0000 0.65200  0.59390  0.24490  Biso   1.000  C
  H169     1.0000 0.64260  0.60720  0.26150  Biso   1.000  H
  H170     1.0000 0.65570  0.62310  0.23330  Biso   1.000  H
  H171     1.0000 0.68690  0.57470  0.24580  Biso   1.000  H
  O16      1.0000 0.53350  0.52180  0.23300  Biso   1.000  O
  N28      1.0000 0.59460  0.58020  0.24700  Biso   1.000  N
  C85      1.0000 0.58000  0.54190  0.23190  Biso   1.000  C
  C86      1.0000 0.61690  0.52960  0.20990  Biso   1.000  C
  H172     1.0000 0.65290  0.51840  0.21620  Biso   1.000  H
  H173     1.0000 0.62150  0.56020  0.19920  Biso   1.000  H
  H174     1.0000 0.60020  0.50120  0.20030  Biso   1.000  H
  C87      1.0000 0.55630  0.59920  0.26580  Biso   1.000  C
  H175     1.0000 0.55540  0.63740  0.26530  Biso   1.000  H
  H176     1.0000 0.56800  0.58750  0.28230  Biso   1.000  H
  H177     1.0000 0.51940  0.58550  0.26220  Biso   1.000  H
  C88      1.0000 0.64150  0.61480  0.24340  Biso   1.000  C
  H178     1.0000 0.67400  0.59360  0.23970  Biso   1.000  H
  H179     1.0000 0.64800  0.63490  0.25860  Biso   1.000  H
  H180     1.0000 0.63460  0.63880  0.22950  Biso   1.000  H
  O17      1.0000 0.61180  0.18960  0.40240  Biso   1.000  O
  N29      1.0000 0.70220  0.20620  0.40213  Biso   1.000  N
  C89      1.0000 0.65210  0.21150  0.39277  Biso   1.000  C
  C90      1.0000 0.64490  0.24070  0.36850  Biso   1.000  C
  H181     1.0000 0.66390  0.22050  0.35570  Biso   1.000  H
  H182     1.0000 0.66130  0.27550  0.36960  Biso   1.000  H
  H183     1.0000 0.60580  0.24390  0.36420  Biso   1.000  H
  C91      1.0000 0.71010  0.17690  0.42510  Biso   1.000  C
  H184     1.0000 0.72280  0.20110  0.43790  Biso   1.000  H
  H185     1.0000 0.73720  0.14890  0.42300  Biso   1.000  H
  H186     1.0000 0.67460  0.16190  0.43000  Biso   1.000  H
  C92      1.0000 0.75110  0.23500  0.39460  Biso   1.000  C
  H187     1.0000 0.77270  0.21330  0.38320  Biso   1.000  H
  H188     1.0000 0.77330  0.24330  0.40930  Biso   1.000  H
  H189     1.0000 0.74050  0.26740  0.38620  Biso   1.000  H
  O18      1.0000 0.61660  0.19130  0.40933  Biso   1.000  O
  N30      1.0000 0.68890  0.21780  0.38681  Biso   1.000  N
  C93      1.0000 0.66700  0.19860  0.40741  Biso   1.000  C
  C94      1.0000 0.70350  0.19130  0.43001  Biso   1.000  C
  H190     1.0000 0.70720  0.22430  0.43900  Biso   1.000  H
  H191     1.0000 0.73990  0.17960  0.42450  Biso   1.000  H
  H192     1.0000 0.68730  0.16500  0.44100  Biso   1.000  H
  C95      1.0000 0.65350  0.23060  0.36581  Biso   1.000  C
  H193     1.0000 0.61860  0.21170  0.36750  Biso   1.000  H
  H194     1.0000 0.67120  0.22110  0.35010  Biso   1.000  H
  H195     1.0000 0.64630  0.26820  0.36600  Biso   1.000  H
  C96      1.0000 0.74480  0.23750  0.38386  Biso   1.000  C
  H196     1.0000 0.74760  0.27140  0.39220  Biso   1.000  H
  H197     1.0000 0.75320  0.24150  0.36610  Biso   1.000  H
  H198     1.0000 0.77100  0.21310  0.39140  Biso   1.000  H
  O19      1.0000 0.55814  0.07050  0.40313  Biso   1.000  O
  N31      1.0000 0.62740  0.02800  0.42166  Biso   1.000  N
  C97      1.0000 0.60690  0.05570  0.40311  Biso   1.000  C
  C98      1.0000 0.64370  0.06820  0.38120  Biso   1.000  C
  H199     1.0000 0.62190  0.08520  0.36820  Biso   1.000  H
  H200     1.0000 0.65850  0.03530  0.37480  Biso   1.000  H
  H201     1.0000 0.67410  0.09100  0.38610  Biso   1.000  H
  C99      1.0000 0.59400  0.01640  0.44346  Biso   1.000  C
  H202     1.0000 0.61420  0.02610  0.45850  Biso   1.000  H
  H203     1.0000 0.58540  0.97910  0.44400  Biso   1.000  H
  H204     1.0000 0.55980  0.03650  0.44250  Biso   1.000  H
  C100     1.0000 0.68160  0.00370  0.42210  Biso   1.000  C
  H205     1.0000 0.68230  0.97290  0.41140  Biso   1.000  H
  H206     1.0000 0.69020  0.99350  0.43920  Biso   1.000  H
  H207     1.0000 0.70910  0.02890  0.41630  Biso   1.000  H
  O20      1.0000 0.55460  0.06620  0.41360  Biso   1.000  O
  N32      1.0000 0.64170  0.03950  0.40880  Biso   1.000  N
  C101     1.0000 0.59450  0.04040  0.42120  Biso   1.000  C
  C102     1.0000 0.58660  0.00290  0.44270  Biso   1.000  C
  H208     1.0000 0.54820  0.00310  0.44830  Biso   1.000  H
  H209     1.0000 0.61030  0.01670  0.45590  Biso   1.000  H
  H210     1.0000 0.59770  0.96710  0.43880  Biso   1.000  H
  C103     1.0000 0.64670  0.06700  0.38530  Biso   1.000  C
  H211     1.0000 0.61650  0.09230  0.38410  Biso   1.000  H
  H212     1.0000 0.64560  0.04370  0.37080  Biso   1.000  H
  H213     1.0000 0.68200  0.08560  0.38550  Biso   1.000  H
  C104     1.0000 0.69110  0.01080  0.41560  Biso   1.000  C
  H214     1.0000 0.70540  0.02210  0.43180  Biso   1.000  H
  H215     1.0000 0.71950  0.01560  0.40290  Biso   1.000  H
  H216     1.0000 0.68090  0.97390  0.41650  Biso   1.000  H
  O21      1.0000 0.14639  0.32860  0.08340  Biso   1.000  O
  N33      1.0000 0.07652  0.29710  0.06085  Biso   1.000  N
  C105     1.0000 0.09720  0.31530  0.08189  Biso   1.000  C
  C106     1.0000 0.05920  0.32380  0.10383  Biso   1.000  C
  H217     1.0000 0.07980  0.33930  0.11760  Biso   1.000  H
  H218     1.0000 0.02900  0.34720  0.09900  Biso   1.000  H
  H219     1.0000 0.04390  0.29020  0.10900  Biso   1.000  H
  C107     1.0000 0.11240  0.28860  0.03952  Biso   1.000  C
  H220     1.0000 0.12170  0.25160  0.03810  Biso   1.000  H
  H221     1.0000 0.09360  0.30010  0.02440  Biso   1.000  H
  H222     1.0000 0.14620  0.30890  0.04180  Biso   1.000  H
  C108     1.0000 0.02040  0.27920  0.05671  Biso   1.000  C
  H223     1.0000 0.00360  0.29940  0.04320  Biso   1.000  H
  H224     1.0000 0.02090  0.24220  0.05220  Biso   1.000  H
  H225     1.0000 0.99880  0.28390  0.07200  Biso   1.000  H
  O22      1.0000 0.15330  0.18080  0.58310  Biso   1.000  O
  N34      1.0000 0.06410  0.19600  0.57540  Biso   1.000  N
  C109     1.0000 0.11650  0.19490  0.56850  Biso   1.000  C
  C110     1.0000 0.13170  0.21430  0.54280  Biso   1.000  C
  H226     1.0000 0.12010  0.25080  0.54150  Biso   1.000  H
  H227     1.0000 0.11280  0.19370  0.53010  Biso   1.000  H
  H228     1.0000 0.17160  0.21190  0.54040  Biso   1.000  H
  C111     1.0000 0.04860  0.17900  0.60030  Biso   1.000  C
  H229     1.0000 0.07880  0.15790  0.60700  Biso   1.000  H
  H230     1.0000 0.01530  0.15760  0.59910  Biso   1.000  H
  H231     1.0000 0.04160  0.20860  0.61140  Biso   1.000  H
  C112     1.0000 0.01970  0.22280  0.56250  Biso   1.000  C
  H232     1.0000 0.03360  0.23820  0.54700  Biso   1.000  H
  H233     1.0000 0.00510  0.25040  0.57330  Biso   1.000  H
  H234     1.0000 0.99020  0.19790  0.55860  Biso   1.000  H
  O23      1.0000 0.19350  0.46280  0.06758  Biso   1.000  O
  N35      1.0000 0.11520  0.50410  0.07756  Biso   1.000  N
  C113     1.0000 0.16080  0.49930  0.06427  Biso   1.000  C
  C114     1.0000 0.17010  0.53670  0.04288  Biso   1.000  C
  H235     1.0000 0.19790  0.52240  0.03160  Biso   1.000  H
  H236     1.0000 0.13530  0.54130  0.03390  Biso   1.000  H
  H237     1.0000 0.18270  0.57040  0.04920  Biso   1.000  H
  C115     1.0000 0.10540  0.46990  0.09869  Biso   1.000  C
  H238     1.0000 0.13640  0.44570  0.10040  Biso   1.000  H
  H239     1.0000 0.10190  0.49070  0.11390  Biso   1.000  H
  H240     1.0000 0.07140  0.45010  0.09600  Biso   1.000  H
  C116     1.0000 0.07540  0.54630  0.07560  Biso   1.000  C
  H241     1.0000 0.07640  0.55830  0.05830  Biso   1.000  H
  H242     1.0000 0.03910  0.53120  0.07910  Biso   1.000  H
  H243     1.0000 0.08210  0.57570  0.08680  Biso   1.000  H
  O24      1.0000 0.19630  0.03370  0.57440  Biso   1.000  O
  N36      1.0000 0.13150  0.97400  0.56670  Biso   1.000  N
  C117     1.0000 0.14940  0.01620  0.57840  Biso   1.000  C
  C118     1.0000 0.10940  0.04700  0.59420  Biso   1.000  C
  H244     1.0000 0.11030  0.03370  0.61130  Biso   1.000  H
  H245     1.0000 0.07210  0.04320  0.58750  Biso   1.000  H
  H246     1.0000 0.11980  0.08390  0.59420  Biso   1.000  H
  C119     1.0000 0.16920  0.94380  0.55140  Biso   1.000  C
  H247     1.0000 0.19830  0.96700  0.54540  Biso   1.000  H
  H248     1.0000 0.14910  0.92920  0.53720  Biso   1.000  H
  H249     1.0000 0.18560  0.91540  0.56110  Biso   1.000  H
  C120     1.0000 0.07840  0.94880  0.57040  Biso   1.000  C
  H250     1.0000 0.08850  0.91750  0.57980  Biso   1.000  H
  H251     1.0000 0.05870  0.93860  0.55520  Biso   1.000  H
  H252     1.0000 0.05450  0.97100  0.58060  Biso   1.000  H
  O25      1.0000 0.55930  0.05840  0.07570  Biso   1.000  O
  N37      1.0000 0.62540  0.00740  0.09178  Biso   1.000  N
  C121     1.0000 0.60720  0.04150  0.07523  Biso   1.000  C
  C122     1.0000 0.64620  0.05980  0.05507  Biso   1.000  C
  H253     1.0000 0.62640  0.08180  0.04320  Biso   1.000  H
  H254     1.0000 0.67660  0.07970  0.06250  Biso   1.000  H
  H255     1.0000 0.66110  0.02930  0.04640  Biso   1.000  H
  C123     1.0000 0.58840  0.98550  0.11030  Biso   1.000  C
  H256     1.0000 0.55350  0.00480  0.10980  Biso   1.000  H
  H257     1.0000 0.58140  0.94850  0.10710  Biso   1.000  H
  H258     1.0000 0.60520  0.98940  0.12680  Biso   1.000  H
  C124     1.0000 0.67940  0.98250  0.09128  Biso   1.000  C
  H259     1.0000 0.70610  0.00580  0.08330  Biso   1.000  H
  H260     1.0000 0.69130  0.97500  0.10830  Biso   1.000  H
  H261     1.0000 0.67710  0.94990  0.08180  Biso   1.000  H
  O26      1.0000 0.55550  0.45150  0.57900  Biso   1.000  O
  N38      1.0000 0.64360  0.47690  0.58081  Biso   1.000  N
  C125     1.0000 0.59210  0.47810  0.58900  Biso   1.000  C
  C126     1.0000 0.57730  0.51500  0.60990  Biso   1.000  C
  H262     1.0000 0.53760  0.52200  0.61000  Biso   1.000  H
  H263     1.0000 0.59750  0.54770  0.60730  Biso   1.000  H
  H264     1.0000 0.58810  0.49980  0.62590  Biso   1.000  H
  C127     1.0000 0.65830  0.44380  0.55990  Biso   1.000  C
  H265     1.0000 0.62590  0.43990  0.54910  Biso   1.000  H
  H266     1.0000 0.66970  0.40940  0.56600  Biso   1.000  H
  H267     1.0000 0.68850  0.45940  0.55040  Biso   1.000  H
  C128     1.0000 0.69070  0.50300  0.59200  Biso   1.000  C
  H268     1.0000 0.68030  0.51740  0.60820  Biso   1.000  H
  H269     1.0000 0.70250  0.53130  0.58090  Biso   1.000  H
  H270     1.0000 0.72100  0.47820  0.59410  Biso   1.000  H
  K7       1.0000 0.75770  0.31321  0.76158  Biso   1.000  K
  K8       1.0000 0.02569  0.07739  0.77390  Biso   1.000  K
  K9       1.0000 0.01395  0.33873  0.59362  Biso   1.000  K
  K10      1.0000 0.74088  0.12006  0.60943  Biso   1.000  K
  K11      1.0000 0.73944  0.12749  0.92755  Biso   1.000  K
  K12      1.0000 0.01300  0.35867  0.94070  Biso   1.000  K
  Zn4      1.0000 0.90059  0.23129  0.84986  Biso   1.000  Zn
  O27      1.0000 0.97918  0.33637  0.89794  Biso   1.000  O
  O28      1.0000 0.80229  0.12687  0.89012  Biso   1.000  O
  O29      1.0000 0.82577  0.32787  0.79706  Biso   1.000  O
  O30      1.0000 0.99736  0.11740  0.81456  Biso   1.000  O
  N39      1.0000 0.92930  0.27263  0.87819  Biso   1.000  N
  N40      1.0000 0.85661  0.19326  0.87529  Biso   1.000  N
  N41      1.0000 0.88162  0.27312  0.81991  Biso   1.000  N
  N42      1.0000 0.93955  0.18415  0.82646  Biso   1.000  N
  N43      1.0000 0.98968  0.32260  0.85601  Biso   1.000  N
  H271     1.0000 0.98570  0.29940  0.84410  Biso   1.000  H
  N44      1.0000 0.79760  0.15060  0.84977  Biso   1.000  N
  H272     1.0000 0.80700  0.17490  0.83910  Biso   1.000  H
  N45      1.0000 0.83879  0.34164  0.83866  Biso   1.000  N
  H273     1.0000 0.85250  0.32860  0.85250  Biso   1.000  H
  N46      1.0000 0.96177  0.11992  0.85396  Biso   1.000  N
  H274     1.0000 0.94690  0.14040  0.86520  Biso   1.000  H
  C129     1.0000 0.03370  0.36620  0.82248  Biso   1.000  C
  H275     1.0000 0.05720  0.33580  0.81930  Biso   1.000  H
  H276     1.0000 0.05290  0.39790  0.81720  Biso   1.000  H
  H277     1.0000 0.99920  0.36260  0.81320  Biso   1.000  H
  C130     1.0000 0.02113  0.36965  0.85010  Biso   1.000  C
  C131     1.0000 0.98740  0.41850  0.85563  Biso   1.000  C
  H278     1.0000 0.97790  0.41940  0.87330  Biso   1.000  H
  H279     1.0000 0.95350  0.41800  0.84570  Biso   1.000  H
  H280     1.0000 0.00900  0.44950  0.85140  Biso   1.000  H
  C132     1.0000 0.07500  0.37170  0.86478  Biso   1.000  C
  H281     1.0000 0.09520  0.33910  0.86250  Biso   1.000  H
  H282     1.0000 0.06680  0.37660  0.88250  Biso   1.000  H
  H283     1.0000 0.09740  0.40090  0.85880  Biso   1.000  H
  C133     1.0000 0.96556  0.31140  0.87880  Biso   1.000  C
  C134     1.0000 0.90166  0.25795  0.90127  Biso   1.000  C
  H284     1.0000 0.87080  0.28230  0.90450  Biso   1.000  H
  H285     1.0000 0.92790  0.26070  0.91530  Biso   1.000  H
  C135     1.0000 0.87962  0.20268  0.89984  Biso   1.000  C
  H286     1.0000 0.90980  0.17760  0.90310  Biso   1.000  H
  H287     1.0000 0.85080  0.19760  0.91260  Biso   1.000  H
  C136     1.0000 0.81907  0.15540  0.87325  Biso   1.000  C
  C137     1.0000 0.76140  0.11040  0.84054  Biso   1.000  C
  C138     1.0000 0.75240  0.12050  0.81305  Biso   1.000  C
  H288     1.0000 0.73510  0.15470  0.81080  Biso   1.000  H
  H289     1.0000 0.72840  0.09340  0.80610  Biso   1.000  H
  H290     1.0000 0.78800  0.11990  0.80440  Biso   1.000  H
  C139     1.0000 0.78830  0.05830  0.84375  Biso   1.000  C
  H291     1.0000 0.79540  0.05210  0.86140  Biso   1.000  H
  H292     1.0000 0.82320  0.05770  0.83460  Biso   1.000  H
  H293     1.0000 0.76390  0.03100  0.83730  Biso   1.000  H
  C140     1.0000 0.70740  0.11060  0.85370  Biso   1.000  C
  H294     1.0000 0.69130  0.14550  0.85280  Biso   1.000  H
  H295     1.0000 0.71300  0.10080  0.87110  Biso   1.000  H
  H296     1.0000 0.68260  0.08550  0.84580  Biso   1.000  H
  C141     1.0000 0.81380  0.40840  0.86767  Biso   1.000  C
  H297     1.0000 0.79690  0.38240  0.87860  Biso   1.000  H
  H298     1.0000 0.79510  0.44190  0.86990  Biso   1.000  H
  H299     1.0000 0.85280  0.41210  0.87190  Biso   1.000  H
  C142     1.0000 0.80820  0.39100  0.84066  Biso   1.000  C
  C143     1.0000 0.74710  0.38230  0.83453  Biso   1.000  C
  H300     1.0000 0.74350  0.37090  0.81720  Biso   1.000  H
  H301     1.0000 0.72680  0.41500  0.83690  Biso   1.000  H
  H302     1.0000 0.73190  0.35560  0.84560  Biso   1.000  H
  C144     1.0000 0.83160  0.43240  0.82357  Biso   1.000  C
  H303     1.0000 0.82830  0.42090  0.80630  Biso   1.000  H
  H304     1.0000 0.87050  0.43820  0.82760  Biso   1.000  H
  H305     1.0000 0.81100  0.46490  0.82580  Biso   1.000  H
  C145     1.0000 0.84800  0.31380  0.81700  Biso   1.000  C
  C146     1.0000 0.89350  0.24250  0.79757  Biso   1.000  C
  H306     1.0000 0.90000  0.26600  0.78330  Biso   1.000  H
  H307     1.0000 0.86170  0.21980  0.79360  Biso   1.000  H
  C147     1.0000 0.94450  0.20940  0.80237  Biso   1.000  C
  H308     1.0000 0.94830  0.18270  0.78920  Biso   1.000  H
  H309     1.0000 0.97780  0.23170  0.80210  Biso   1.000  H
  C148     1.0000 0.96733  0.14020  0.83034  Biso   1.000  C
  C149     1.0000 0.97820  0.06760  0.86209  Biso   1.000  C
  C150     1.0000 0.95730  0.06170  0.88857  Biso   1.000  C
  H310     1.0000 0.91720  0.06550  0.88880  Biso   1.000  H
  H311     1.0000 0.97410  0.08860  0.89910  Biso   1.000  H
  H312     1.0000 0.96740  0.02720  0.89490  Biso   1.000  H
  C151     1.0000 0.04130  0.06270  0.86192  Biso   1.000  C
  H313     1.0000 0.05730  0.08920  0.87290  Biso   1.000  H
  H314     1.0000 0.05500  0.06780  0.84500  Biso   1.000  H
  H315     1.0000 0.05190  0.02800  0.86780  Biso   1.000  H
  C152     1.0000 0.95310  0.02540  0.84570  Biso   1.000  C
  H316     1.0000 0.91290  0.02900  0.84560  Biso   1.000  H
  H317     1.0000 0.96310  0.99110  0.85220  Biso   1.000  H
  H318     1.0000 0.96720  0.02900  0.82870  Biso   1.000  H
  Zn5      1.0000 0.89579  0.18896  0.68080  Biso   1.000  Zn
  O31      1.0000 0.78832  0.29224  0.71717  Biso   1.000  O
  O32      1.0000 0.98241  0.10041  0.73367  Biso   1.000  O
  O33      1.0000 0.97990  0.28539  0.63017  Biso   1.000  O
  O34      1.0000 0.80263  0.07674  0.64338  Biso   1.000  O
  N47      1.0000 0.85478  0.23392  0.70455  Biso   1.000  N
  N48      1.0000 0.92892  0.15655  0.71054  Biso   1.000  N
  N49      1.0000 0.92639  0.22599  0.65151  Biso   1.000  N
  N50      1.0000 0.86384  0.14017  0.65595  Biso   1.000  N
  N51      1.0000 0.80830  0.28218  0.67600  Biso   1.000  N
  H319     1.0000 0.82880  0.26540  0.66520  Biso   1.000  H
  N52      1.0000 0.00031  0.11257  0.69231  Biso   1.000  N
  H320     1.0000 0.99780  0.13520  0.68010  Biso   1.000  H
  N53      1.0000 0.97065  0.29064  0.67270  Biso   1.000  N
  H321     1.0000 0.96760  0.27130  0.68610  Biso   1.000  H
  N54      1.0000 0.84096  0.07415  0.68228  Biso   1.000  N
  H322     1.0000 0.85880  0.09240  0.69350  Biso   1.000  H
  C153     1.0000 0.77850  0.31940  0.63774  Biso   1.000  C
  H323     1.0000 0.77040  0.28460  0.63120  Biso   1.000  H
  H324     1.0000 0.81690  0.32840  0.63410  Biso   1.000  H
  H325     1.0000 0.75400  0.34490  0.62980  Biso   1.000  H
  C154     1.0000 0.76930  0.32010  0.66587  Biso   1.000  C
  C155     1.0000 0.71030  0.30360  0.67184  Biso   1.000  C
  H326     1.0000 0.70590  0.30030  0.68990  Biso   1.000  H
  H327     1.0000 0.70240  0.27010  0.66390  Biso   1.000  H
  H328     1.0000 0.68460  0.33000  0.66560  Biso   1.000  H
  C156     1.0000 0.77970  0.37410  0.67564  Biso   1.000  C
  H329     1.0000 0.77270  0.37490  0.69360  Biso   1.000  H
  H330     1.0000 0.75500  0.39880  0.66730  Biso   1.000  H
  H331     1.0000 0.81800  0.38390  0.67240  Biso   1.000  H
  C157     1.0000 0.81630  0.27000  0.70059  Biso   1.000  C
  C158     1.0000 0.86890  0.22090  0.72999  Biso   1.000  C
  H332     1.0000 0.83510  0.22180  0.74030  Biso   1.000  H
  H333     1.0000 0.89450  0.24760  0.73660  Biso   1.000  H
  C159     1.0000 0.89490  0.16870  0.73222  Biso   1.000  C
  H334     1.0000 0.91800  0.16780  0.74740  Biso   1.000  H
  H335     1.0000 0.86580  0.14200  0.73400  Biso   1.000  H
  C160     1.0000 0.97020  0.12290  0.71364  Biso   1.000  C
  C161     1.0000 0.03610  0.06700  0.68845  Biso   1.000  C
  C162     1.0000 0.04980  0.06620  0.66102  Biso   1.000  C
  H336     1.0000 0.01580  0.06320  0.65130  Biso   1.000  H
  H337     1.0000 0.07370  0.03630  0.65740  Biso   1.000  H
  H338     1.0000 0.06890  0.09850  0.65650  Biso   1.000  H
  C163     1.0000 0.08930  0.07190  0.70364  Biso   1.000  C
  H339     1.0000 0.10990  0.10260  0.69810  Biso   1.000  H
  H340     1.0000 0.11190  0.04060  0.70120  Biso   1.000  H
  H341     1.0000 0.08020  0.07550  0.72130  Biso   1.000  H
  C164     1.0000 0.00690  0.01730  0.69553  Biso   1.000  C
  H342     1.0000 0.97230  0.01450  0.68620  Biso   1.000  H
  H343     1.0000 0.99900  0.01750  0.71340  Biso   1.000  H
  H344     1.0000 0.03050  0.98740  0.69160  Biso   1.000  H
  C165     1.0000 0.98610  0.35440  0.70372  Biso   1.000  C
  H345     1.0000 0.01280  0.33130  0.71180  Biso   1.000  H
  H346     1.0000 0.94910  0.34680  0.71000  Biso   1.000  H
  H347     1.0000 0.99550  0.39070  0.70730  Biso   1.000  H
  C166     1.0000 0.98760  0.34550  0.67578  Biso   1.000  C
  C167     1.0000 0.04640  0.35430  0.66651  Biso   1.000  C
  H348     1.0000 0.07170  0.33130  0.67550  Biso   1.000  H
  H349     1.0000 0.05690  0.39070  0.66940  Biso   1.000  H
  H350     1.0000 0.04830  0.34670  0.64870  Biso   1.000  H
  C168     1.0000 0.94840  0.38180  0.66253  Biso   1.000  C
  H351     1.0000 0.95030  0.37550  0.64460  Biso   1.000  H
  H352     1.0000 0.95880  0.41800  0.66600  Biso   1.000  H
  H353     1.0000 0.91080  0.37560  0.66840  Biso   1.000  H
  C169     1.0000 0.95923  0.26750  0.64977  Biso   1.000  C
  C170     1.0000 0.91580  0.19650  0.62883  Biso   1.000  C
  H354     1.0000 0.94670  0.17230  0.62560  Biso   1.000  H
  H355     1.0000 0.91260  0.22050  0.61450  Biso   1.000  H
  C171     1.0000 0.86222  0.16565  0.63187  Biso   1.000  C
  H356     1.0000 0.83020  0.18940  0.63090  Biso   1.000  H
  H357     1.0000 0.85880  0.13940  0.61850  Biso   1.000  H
  C172     1.0000 0.83433  0.09677  0.65926  Biso   1.000  C
  C173     1.0000 0.82110  0.02250  0.68991  Biso   1.000  C
  C174     1.0000 0.84450  0.01380  0.71591  Biso   1.000  C
  H358     1.0000 0.88480  0.01630  0.71530  Biso   1.000  H
  H359     1.0000 0.83390  0.97920  0.72190  Biso   1.000  H
  H360     1.0000 0.83000  0.04040  0.72720  Biso   1.000  H
  C175     1.0000 0.75850  0.02140  0.69083  Biso   1.000  C
  H361     1.0000 0.74370  0.03180  0.67460  Biso   1.000  H
  H362     1.0000 0.74550  0.04560  0.70360  Biso   1.000  H
  H363     1.0000 0.74600  0.98610  0.69480  Biso   1.000  H
  C176     1.0000 0.84220  0.98000  0.67254  Biso   1.000  C
  H364     1.0000 0.88220  0.98290  0.67090  Biso   1.000  H
  H365     1.0000 0.82510  0.98410  0.65620  Biso   1.000  H
  H366     1.0000 0.83270  0.94580  0.67940  Biso   1.000  H
  Zn6      1.0000 0.86540  0.23434  0.51554  Biso   1.000  Zn
  O35      1.0000 0.95946  0.34757  0.55282  Biso   1.000  O
  O36      1.0000 0.77801  0.14150  0.56615  Biso   1.000  O
  O37      1.0000 0.77282  0.17603  0.96551  Biso   1.000  O
  O38      1.0000 0.95443  0.38122  0.97827  Biso   1.000  O
  N55      1.0000 0.90233  0.28158  0.53948  Biso   1.000  N
  N56      1.0000 0.82894  0.20317  0.54500  Biso   1.000  N
  N57      1.0000 0.83122  0.23252  0.98609  Biso   1.000  N
  N58      1.0000 0.89491  0.31775  0.99148  Biso   1.000  N
  N59      1.0000 0.94987  0.33074  0.51131  Biso   1.000  N
  H367     1.0000 0.92860  0.31590  0.50010  Biso   1.000  H
  N60      1.0000 0.76171  0.15789  0.52478  Biso   1.000  N
  H368     1.0000 0.75710  0.18450  0.51470  Biso   1.000  H
  N61      1.0000 0.79874  0.15960  0.00576  Biso   1.000  N
  H369     1.0000 0.80740  0.17500  0.01980  Biso   1.000  H
  N62      1.0000 0.93423  0.37218  0.01963  Biso   1.000  N
  H370     1.0000 0.91920  0.35190  0.03090  Biso   1.000  H
  C177     1.0000 0.99230  0.35900  0.47371  Biso   1.000  C
  H371     1.0000 0.99910  0.32270  0.46890  Biso   1.000  H
  H372     1.0000 0.02060  0.38140  0.46630  Biso   1.000  H
  H373     1.0000 0.95590  0.36970  0.46770  Biso   1.000  H
  C178     1.0000 0.99440  0.36380  0.50203  Biso   1.000  C
  C179     1.0000 0.98520  0.42020  0.50926  Biso   1.000  C
  H374     1.0000 0.98220  0.42290  0.52740  Biso   1.000  H
  H375     1.0000 0.95100  0.43290  0.50160  Biso   1.000  H
  H376     1.0000 0.01620  0.44140  0.50350  Biso   1.000  H
  C180     1.0000 0.05000  0.34550  0.51159  Biso   1.000  C
  H377     1.0000 0.05510  0.30860  0.50740  Biso   1.000  H
  H378     1.0000 0.05140  0.34970  0.52970  Biso   1.000  H
  H379     1.0000 0.07930  0.36620  0.50390  Biso   1.000  H
  C181     1.0000 0.93805  0.32050  0.53594  Biso   1.000  C
  C182     1.0000 0.88135  0.27316  0.56463  Biso   1.000  C
  H380     1.0000 0.85180  0.29870  0.56820  Biso   1.000  H
  H381     1.0000 0.91140  0.27880  0.57680  Biso   1.000  H
  C183     1.0000 0.85875  0.21808  0.56751  Biso   1.000  C
  H382     1.0000 0.88940  0.19350  0.57040  Biso   1.000  H
  H383     1.0000 0.83370  0.21660  0.58200  Biso   1.000  H
  C184     1.0000 0.79081  0.16624  0.54681  Biso   1.000  C
  C185     1.0000 0.73840  0.10759  0.51734  Biso   1.000  C
  C186     1.0000 0.72110  0.11380  0.49026  Biso   1.000  C
  H384     1.0000 0.69390  0.14190  0.48890  Biso   1.000  H
  H385     1.0000 0.70480  0.08120  0.48430  Biso   1.000  H
  H386     1.0000 0.75340  0.12240  0.48020  Biso   1.000  H
  C187     1.0000 0.68830  0.09340  0.53282  Biso   1.000  C
  H387     1.0000 0.66020  0.12050  0.53100  Biso   1.000  H
  H388     1.0000 0.69900  0.09060  0.55030  Biso   1.000  H
  H389     1.0000 0.67340  0.06000  0.52710  Biso   1.000  H
  C188     1.0000 0.78280  0.06530  0.51922  Biso   1.000  C
  H390     1.0000 0.81480  0.07540  0.50930  Biso   1.000  H
  H391     1.0000 0.76800  0.03230  0.51290  Biso   1.000  H
  H392     1.0000 0.79380  0.06100  0.53660  Biso   1.000  H
  C189     1.0000 0.79780  0.08620  0.03298  Biso   1.000  C
  H393     1.0000 0.77570  0.10610  0.04490  Biso   1.000  H
  H394     1.0000 0.78940  0.04900  0.03460  Biso   1.000  H
  H395     1.0000 0.83700  0.09200  0.03630  Biso   1.000  H
  C190     1.0000 0.78420  0.10410  0.00673  Biso   1.000  C
  C191     1.0000 0.72190  0.09760  0.00187  Biso   1.000  C
  H396     1.0000 0.71320  0.10980  0.98510  Biso   1.000  H
  H397     1.0000 0.71190  0.06080  0.00340  Biso   1.000  H
  H398     1.0000 0.70120  0.11820  0.01400  Biso   1.000  H
  C192     1.0000 0.81720  0.07250  0.98771  Biso   1.000  C
  H399     1.0000 0.80920  0.08530  0.97090  Biso   1.000  H
  H400     1.0000 0.85660  0.07620  0.99110  Biso   1.000  H
  H401     1.0000 0.80680  0.03570  0.98890  Biso   1.000  H
  C193     1.0000 0.79991  0.18960  0.98422  Biso   1.000  C
  C194     1.0000 0.83430  0.26750  0.96485  Biso   1.000  C
  H402     1.0000 0.83280  0.24730  0.94920  Biso   1.000  H
  H403     1.0000 0.80270  0.29200  0.96510  Biso   1.000  H
  C195     1.0000 0.88790  0.29760  0.96632  Biso   1.000  C
  H404     1.0000 0.88740  0.32680  0.95430  Biso   1.000  H
  H405     1.0000 0.91910  0.27440  0.96210  Biso   1.000  H
  C196     1.0000 0.92860  0.35750  0.99498  Biso   1.000  C
  C197     1.0000 0.96340  0.41900  0.02839  Biso   1.000  C
  C198     1.0000 0.95360  0.42050  0.05651  Biso   1.000  C
  H406     1.0000 0.96870  0.38890  0.06410  Biso   1.000  H
  H407     1.0000 0.97190  0.45120  0.06360  Biso   1.000  H
  H408     1.0000 0.91400  0.42240  0.05980  Biso   1.000  H
  C199     1.0000 0.02550  0.41490  0.02339  Biso   1.000  C
  H409     1.0000 0.03190  0.41190  0.00550  Biso   1.000  H
  H410     1.0000 0.04410  0.44600  0.02970  Biso   1.000  H
  H411     1.0000 0.04020  0.38390  0.03180  Biso   1.000  H
  C200     1.0000 0.94050  0.46820  0.01659  Biso   1.000  C
  H412     1.0000 0.94460  0.46620  0.99850  Biso   1.000  H
  H413     1.0000 0.90140  0.47170  0.02080  Biso   1.000  H
  H414     1.0000 0.96070  0.49860  0.02280  Biso   1.000  H
  O39      1.0000 0.72120  0.40890  0.75960  Biso   1.000  O
  N63      1.0000 0.64610  0.45100  0.77210  Biso   1.000  N
  C201     1.0000 0.70030  0.44840  0.76910  Biso   1.000  C
  C202     1.0000 0.73480  0.49720  0.77210  Biso   1.000  C
  H415     1.0000 0.73650  0.51580  0.75620  Biso   1.000  H
  H416     1.0000 0.77220  0.48950  0.77790  Biso   1.000  H
  H417     1.0000 0.71590  0.51890  0.78450  Biso   1.000  H
  C203     1.0000 0.61300  0.40460  0.76750  Biso   1.000  C
  H418     1.0000 0.63320  0.38350  0.75540  Biso   1.000  H
  H419     1.0000 0.57680  0.41380  0.76060  Biso   1.000  H
  H420     1.0000 0.60800  0.38470  0.78290  Biso   1.000  H
  C204     1.0000 0.61510  0.49330  0.78330  Biso   1.000  C
  H421     1.0000 0.60500  0.48530  0.80060  Biso   1.000  H
  H422     1.0000 0.58160  0.49710  0.77330  Biso   1.000  H
  H423     1.0000 0.63620  0.52590  0.78280  Biso   1.000  H
  O40      1.0000 0.70680  0.40230  0.76030  Biso   1.000  O
  N64      1.0000 0.66240  0.47130  0.77530  Biso   1.000  N
  C205     1.0000 0.66220  0.42450  0.76470  Biso   1.000  C
  C206     1.0000 0.61070  0.40660  0.75120  Biso   1.000  C
  H424     1.0000 0.61020  0.41630  0.73360  Biso   1.000  H
  H425     1.0000 0.58130  0.42520  0.76000  Biso   1.000  H
  H426     1.0000 0.60480  0.36890  0.75280  Biso   1.000  H
  C207     1.0000 0.71480  0.49220  0.78400  Biso   1.000  C
  H427     1.0000 0.74220  0.47010  0.77580  Biso   1.000  H
  H428     1.0000 0.72030  0.49070  0.80210  Biso   1.000  H
  H429     1.0000 0.71900  0.52830  0.77830  Biso   1.000  H
  C208     1.0000 0.61940  0.51060  0.77340  Biso   1.000  C
  H430     1.0000 0.62720  0.53840  0.76140  Biso   1.000  H
  H431     1.0000 0.61920  0.52520  0.79030  Biso   1.000  H
  H432     1.0000 0.58340  0.49520  0.76970  Biso   1.000  H
  O41      1.0000 0.02370  0.97480  0.76270  Biso   1.000  O
  N65      1.0000 0.10730  0.93890  0.76402  Biso   1.000  N
  C209     1.0000 0.05700  0.94210  0.75465  Biso   1.000  C
  C210     1.0000 0.03970  0.90380  0.73480  Biso   1.000  C
  H433     1.0000 0.03630  0.86890  0.74200  Biso   1.000  H
  H434     1.0000 0.06700  0.90320  0.72140  Biso   1.000  H
  H435     1.0000 0.00390  0.91470  0.72800  Biso   1.000  H
  C211     1.0000 0.12470  0.97550  0.78320  Biso   1.000  C
  H436     1.0000 0.13830  0.00750  0.77530  Biso   1.000  H
  H437     1.0000 0.15430  0.95960  0.79300  Biso   1.000  H
  H438     1.0000 0.09360  0.98380  0.79410  Biso   1.000  H
  C212     1.0000 0.15200  0.90610  0.75510  Biso   1.000  C
  H439     1.0000 0.14260  0.89280  0.73850  Biso   1.000  H
  H440     1.0000 0.15570  0.87690  0.76670  Biso   1.000  H
  H441     1.0000 0.18690  0.92530  0.75420  Biso   1.000  H
  O42      1.0000 0.03350  0.97820  0.76700  Biso   1.000  O
  N66      1.0000 0.09460  0.91980  0.75300  Biso   1.000  N
  C213     1.0000 0.08000  0.95810  0.76810  Biso   1.000  C
  C214     1.0000 0.11690  0.97040  0.79010  Biso   1.000  C
  H442     1.0000 0.15290  0.98160  0.78380  Biso   1.000  H
  H443     1.0000 0.12150  0.93980  0.80080  Biso   1.000  H
  H444     1.0000 0.10020  0.99880  0.79970  Biso   1.000  H
  C215     1.0000 0.05630  0.90080  0.73420  Biso   1.000  C
  H445     1.0000 0.05540  0.86260  0.73470  Biso   1.000  H
  H446     1.0000 0.06800  0.91250  0.71770  Biso   1.000  H
  H447     1.0000 0.01940  0.91450  0.73780  Biso   1.000  H
  C216     1.0000 0.14150  0.88520  0.75660  Biso   1.000  C
  H448     1.0000 0.17400  0.90640  0.76030  Biso   1.000  H
  H449     1.0000 0.14800  0.86510  0.74140  Biso   1.000  H
  H450     1.0000 0.13460  0.86120  0.77050  Biso   1.000  H
  O43      1.0000 0.11180  0.31040  0.59760  Biso   1.000  O
  N67      1.0000 0.20220  0.29380  0.59787  Biso   1.000  N
  C217     1.0000 0.15210  0.28850  0.60723  Biso   1.000  C
  C218     1.0000 0.14490  0.25930  0.63150  Biso   1.000  C
  H451     1.0000 0.16390  0.27950  0.64430  Biso   1.000  H
  H452     1.0000 0.16130  0.22450  0.63040  Biso   1.000  H
  H453     1.0000 0.10580  0.25610  0.63580  Biso   1.000  H
  C219     1.0000 0.21010  0.32310  0.57490  Biso   1.000  C
  H454     1.0000 0.22280  0.29890  0.56210  Biso   1.000  H
  H455     1.0000 0.23720  0.35110  0.57700  Biso   1.000  H
  H456     1.0000 0.17460  0.33810  0.57000  Biso   1.000  H
  C220     1.0000 0.25110  0.26500  0.60540  Biso   1.000  C
  H457     1.0000 0.27270  0.28670  0.61680  Biso   1.000  H
  H458     1.0000 0.27330  0.25670  0.59070  Biso   1.000  H
  H459     1.0000 0.24050  0.23260  0.61380  Biso   1.000  H
  O44      1.0000 0.11660  0.30870  0.59067  Biso   1.000  O
  N68      1.0000 0.18890  0.28220  0.61319  Biso   1.000  N
  C221     1.0000 0.16700  0.30140  0.59259  Biso   1.000  C
  C222     1.0000 0.20350  0.30870  0.56999  Biso   1.000  C
  H460     1.0000 0.20720  0.27570  0.56100  Biso   1.000  H
  H461     1.0000 0.23990  0.32040  0.57550  Biso   1.000  H
  H462     1.0000 0.18730  0.33500  0.55900  Biso   1.000  H
  C223     1.0000 0.15350  0.26940  0.63419  Biso   1.000  C
  H463     1.0000 0.11860  0.28830  0.63250  Biso   1.000  H
  H464     1.0000 0.17120  0.27890  0.64990  Biso   1.000  H
  H465     1.0000 0.14630  0.23180  0.63400  Biso   1.000  H
  C224     1.0000 0.24480  0.26250  0.61614  Biso   1.000  C
  H466     1.0000 0.24760  0.22860  0.60780  Biso   1.000  H
  H467     1.0000 0.25320  0.25850  0.63390  Biso   1.000  H
  H468     1.0000 0.27100  0.28690  0.60860  Biso   1.000  H
  O45      1.0000 0.05814  0.42950  0.59687  Biso   1.000  O
  N69      1.0000 0.12740  0.47200  0.57834  Biso   1.000  N
  C225     1.0000 0.10690  0.44430  0.59689  Biso   1.000  C
  C226     1.0000 0.14370  0.43180  0.61880  Biso   1.000  C
  H469     1.0000 0.12190  0.41480  0.63180  Biso   1.000  H
  H470     1.0000 0.15850  0.46470  0.62520  Biso   1.000  H
  H471     1.0000 0.17410  0.40900  0.61390  Biso   1.000  H
  C227     1.0000 0.09400  0.48360  0.55654  Biso   1.000  C
  H472     1.0000 0.11420  0.47390  0.54150  Biso   1.000  H
  H473     1.0000 0.08540  0.52090  0.55600  Biso   1.000  H
  H474     1.0000 0.05980  0.46350  0.55750  Biso   1.000  H
  C228     1.0000 0.18160  0.49630  0.57790  Biso   1.000  C
  H475     1.0000 0.18230  0.52710  0.58860  Biso   1.000  H
  H476     1.0000 0.19020  0.50650  0.56080  Biso   1.000  H
  H477     1.0000 0.20910  0.47110  0.58370  Biso   1.000  H
  O46      1.0000 0.05460  0.43380  0.58640  Biso   1.000  O
  N70      1.0000 0.14170  0.46050  0.59120  Biso   1.000  N
  C229     1.0000 0.09450  0.45960  0.57880  Biso   1.000  C
  C230     1.0000 0.08660  0.49710  0.55730  Biso   1.000  C
  H478     1.0000 0.04820  0.49690  0.55170  Biso   1.000  H
  H479     1.0000 0.11030  0.48330  0.54410  Biso   1.000  H
  H480     1.0000 0.09770  0.53290  0.56120  Biso   1.000  H
  C231     1.0000 0.14670  0.43300  0.61470  Biso   1.000  C
  H481     1.0000 0.11650  0.40770  0.61590  Biso   1.000  H
  H482     1.0000 0.14560  0.45630  0.62920  Biso   1.000  H
  H483     1.0000 0.18200  0.41440  0.61450  Biso   1.000  H
  C232     1.0000 0.19110  0.48920  0.58440  Biso   1.000  C
  H484     1.0000 0.20540  0.47790  0.56820  Biso   1.000  H
  H485     1.0000 0.21950  0.48440  0.59710  Biso   1.000  H
  H486     1.0000 0.18090  0.52610  0.58350  Biso   1.000  H
  O47      1.0000 0.64639  0.17140  0.91660  Biso   1.000  O
  N71      1.0000 0.57652  0.20290  0.93915  Biso   1.000  N
  C233     1.0000 0.59720  0.18470  0.91811  Biso   1.000  C
  C234     1.0000 0.55920  0.17620  0.89617  Biso   1.000  C
  H487     1.0000 0.57980  0.16070  0.88240  Biso   1.000  H
  H488     1.0000 0.52900  0.15280  0.90100  Biso   1.000  H
  H489     1.0000 0.54390  0.20980  0.89100  Biso   1.000  H
  C235     1.0000 0.61240  0.21140  0.96048  Biso   1.000  C
  H490     1.0000 0.62170  0.24840  0.96190  Biso   1.000  H
  H491     1.0000 0.59360  0.19990  0.97560  Biso   1.000  H
  H492     1.0000 0.64620  0.19110  0.95820  Biso   1.000  H
  C236     1.0000 0.52040  0.22080  0.94329  Biso   1.000  C
  H493     1.0000 0.50360  0.20060  0.95680  Biso   1.000  H
  H494     1.0000 0.52090  0.25780  0.94780  Biso   1.000  H
  H495     1.0000 0.49880  0.21610  0.92800  Biso   1.000  H
  O48      1.0000 0.65330  0.31920  0.41690  Biso   1.000  O
  N72      1.0000 0.56410  0.30400  0.42460  Biso   1.000  N
  C237     1.0000 0.61650  0.30510  0.43150  Biso   1.000  C
  C238     1.0000 0.63170  0.28570  0.45720  Biso   1.000  C
  H496     1.0000 0.62010  0.24920  0.45850  Biso   1.000  H
  H497     1.0000 0.61280  0.30630  0.46990  Biso   1.000  H
  H498     1.0000 0.67160  0.28810  0.45960  Biso   1.000  H
  C239     1.0000 0.54860  0.32100  0.39970  Biso   1.000  C
  H499     1.0000 0.57880  0.34210  0.39300  Biso   1.000  H
  H500     1.0000 0.51530  0.34240  0.40090  Biso   1.000  H
  H501     1.0000 0.54160  0.29140  0.38860  Biso   1.000  H
  C240     1.0000 0.51970  0.27720  0.43750  Biso   1.000  C
  H502     1.0000 0.53360  0.26180  0.45300  Biso   1.000  H
  H503     1.0000 0.50510  0.24960  0.42670  Biso   1.000  H
  H504     1.0000 0.49020  0.30210  0.44140  Biso   1.000  H
  O49      1.0000 0.69350  0.03720  0.93242  Biso   1.000  O
  N73      1.0000 0.61520  0.99590  0.92244  Biso   1.000  N
  C241     1.0000 0.66080  0.00070  0.93573  Biso   1.000  C
  C242     1.0000 0.67010  0.96330  0.95712  Biso   1.000  C
  H505     1.0000 0.69790  0.97760  0.96840  Biso   1.000  H
  H506     1.0000 0.63530  0.95870  0.96610  Biso   1.000  H
  H507     1.0000 0.68270  0.92960  0.95080  Biso   1.000  H
  C243     1.0000 0.60540  0.03010  0.90131  Biso   1.000  C
  H508     1.0000 0.63640  0.05430  0.89960  Biso   1.000  H
  H509     1.0000 0.60190  0.00930  0.88610  Biso   1.000  H
  H510     1.0000 0.57140  0.04990  0.90400  Biso   1.000  H
  C244     1.0000 0.57540  0.95370  0.92440  Biso   1.000  C
  H511     1.0000 0.57640  0.94170  0.94170  Biso   1.000  H
  H512     1.0000 0.53910  0.96880  0.92090  Biso   1.000  H
  H513     1.0000 0.58210  0.92430  0.91320  Biso   1.000  H
  O50      1.0000 0.69630  0.46630  0.42560  Biso   1.000  O
  N74      1.0000 0.63150  0.52600  0.43330  Biso   1.000  N
  C245     1.0000 0.64940  0.48380  0.42160  Biso   1.000  C
  C246     1.0000 0.60940  0.45300  0.40580  Biso   1.000  C
  H514     1.0000 0.61030  0.46630  0.38870  Biso   1.000  H
  H515     1.0000 0.57210  0.45680  0.41250  Biso   1.000  H
  H516     1.0000 0.61980  0.41610  0.40580  Biso   1.000  H
  C247     1.0000 0.66920  0.55620  0.44860  Biso   1.000  C
  H517     1.0000 0.69830  0.53300  0.45460  Biso   1.000  H
  H518     1.0000 0.64910  0.57080  0.46280  Biso   1.000  H
  H519     1.0000 0.68560  0.58460  0.43890  Biso   1.000  H
  C248     1.0000 0.57840  0.55120  0.42960  Biso   1.000  C
  H520     1.0000 0.58850  0.58250  0.42020  Biso   1.000  H
  H521     1.0000 0.55870  0.56140  0.44480  Biso   1.000  H
  H522     1.0000 0.55450  0.52900  0.41940  Biso   1.000  H
  O51      1.0000 0.05930  0.44160  0.92430  Biso   1.000  O
  N75      1.0000 0.12540  0.49260  0.90822  Biso   1.000  N
  C249     1.0000 0.10720  0.45850  0.92477  Biso   1.000  C
  C250     1.0000 0.14620  0.44020  0.94493  Biso   1.000  C
  H523     1.0000 0.12640  0.41820  0.95680  Biso   1.000  H
  H524     1.0000 0.17660  0.42030  0.93750  Biso   1.000  H
  H525     1.0000 0.16110  0.47070  0.95360  Biso   1.000  H
  C251     1.0000 0.08840  0.51450  0.88970  Biso   1.000  C
  H526     1.0000 0.05350  0.49520  0.89020  Biso   1.000  H
  H527     1.0000 0.08140  0.55150  0.89290  Biso   1.000  H
  H528     1.0000 0.10520  0.51060  0.87320  Biso   1.000  H
  C252     1.0000 0.17940  0.51750  0.90872  Biso   1.000  C
  H529     1.0000 0.20610  0.49420  0.91670  Biso   1.000  H
  H530     1.0000 0.19130  0.52500  0.89170  Biso   1.000  H
  H531     1.0000 0.17710  0.55010  0.91820  Biso   1.000  H
  O52      1.0000 0.05550  0.04850  0.42100  Biso   1.000  O
  N76      1.0000 0.14360  0.02310  0.41919  Biso   1.000  N
  C253     1.0000 0.09210  0.02190  0.41100  Biso   1.000  C
  C254     1.0000 0.07730  0.98500  0.39010  Biso   1.000  C
  H532     1.0000 0.03760  0.97800  0.39000  Biso   1.000  H
  H533     1.0000 0.09750  0.95230  0.39270  Biso   1.000  H
  H534     1.0000 0.08810  0.00020  0.37410  Biso   1.000  H
  C255     1.0000 0.15830  0.05620  0.44010  Biso   1.000  C
  H535     1.0000 0.12590  0.06010  0.45090  Biso   1.000  H
  H536     1.0000 0.16970  0.09060  0.43400  Biso   1.000  H
  H537     1.0000 0.18850  0.04060  0.44960  Biso   1.000  H
  C256     1.0000 0.19070  0.99700  0.40800  Biso   1.000  C
  H538     1.0000 0.18030  0.98260  0.39180  Biso   1.000  H
  H539     1.0000 0.20250  0.96870  0.41910  Biso   1.000  H
  H540     1.0000 0.22100  0.02180  0.40590  Biso   1.000  H
  K13      1.0000 0.75770  0.18679  0.26158  Biso   1.000  K
  K14      1.0000 0.02569  0.42261  0.27390  Biso   1.000  K
  K15      1.0000 0.01395  0.16127  0.09362  Biso   1.000  K
  K16      1.0000 0.74088  0.37994  0.10943  Biso   1.000  K
  K17      1.0000 0.73944  0.37251  0.42755  Biso   1.000  K
  K18      1.0000 0.01300  0.14133  0.44070  Biso   1.000  K
  Zn7      1.0000 0.90059  0.26871  0.34986  Biso   1.000  Zn
  O53      1.0000 0.97918  0.16363  0.39794  Biso   1.000  O
  O54      1.0000 0.80229  0.37313  0.39012  Biso   1.000  O
  O55      1.0000 0.82577  0.17213  0.29706  Biso   1.000  O
  O56      1.0000 0.99736  0.38260  0.31456  Biso   1.000  O
  N77      1.0000 0.92930  0.22737  0.37819  Biso   1.000  N
  N78      1.0000 0.85661  0.30674  0.37529  Biso   1.000  N
  N79      1.0000 0.88162  0.22688  0.31991  Biso   1.000  N
  N80      1.0000 0.93955  0.31585  0.32646  Biso   1.000  N
  N81      1.0000 0.98968  0.17740  0.35601  Biso   1.000  N
  H541     1.0000 0.98570  0.20060  0.34410  Biso   1.000  H
  N82      1.0000 0.79760  0.34940  0.34977  Biso   1.000  N
  H542     1.0000 0.80700  0.32510  0.33910  Biso   1.000  H
  N83      1.0000 0.83879  0.15836  0.33866  Biso   1.000  N
  H543     1.0000 0.85250  0.17140  0.35250  Biso   1.000  H
  N84      1.0000 0.96177  0.38008  0.35396  Biso   1.000  N
  H544     1.0000 0.94690  0.35960  0.36520  Biso   1.000  H
  C257     1.0000 0.03370  0.13380  0.32248  Biso   1.000  C
  H545     1.0000 0.05720  0.16420  0.31930  Biso   1.000  H
  H546     1.0000 0.05290  0.10210  0.31720  Biso   1.000  H
  H547     1.0000 0.99920  0.13740  0.31320  Biso   1.000  H
  C258     1.0000 0.02113  0.13035  0.35010  Biso   1.000  C
  C259     1.0000 0.98740  0.08150  0.35563  Biso   1.000  C
  H548     1.0000 0.97790  0.08060  0.37330  Biso   1.000  H
  H549     1.0000 0.95350  0.08200  0.34570  Biso   1.000  H
  H550     1.0000 0.00900  0.05050  0.35140  Biso   1.000  H
  C260     1.0000 0.07500  0.12830  0.36478  Biso   1.000  C
  H551     1.0000 0.09520  0.16090  0.36250  Biso   1.000  H
  H552     1.0000 0.06680  0.12340  0.38250  Biso   1.000  H
  H553     1.0000 0.09740  0.09910  0.35880  Biso   1.000  H
  C261     1.0000 0.96556  0.18860  0.37880  Biso   1.000  C
  C262     1.0000 0.90166  0.24205  0.40127  Biso   1.000  C
  H554     1.0000 0.87080  0.21770  0.40450  Biso   1.000  H
  H555     1.0000 0.92790  0.23930  0.41530  Biso   1.000  H
  C263     1.0000 0.87962  0.29732  0.39984  Biso   1.000  C
  H556     1.0000 0.90980  0.32240  0.40310  Biso   1.000  H
  H557     1.0000 0.85080  0.30240  0.41260  Biso   1.000  H
  C264     1.0000 0.81907  0.34460  0.37325  Biso   1.000  C
  C265     1.0000 0.76140  0.38960  0.34054  Biso   1.000  C
  C266     1.0000 0.75240  0.37950  0.31305  Biso   1.000  C
  H558     1.0000 0.73510  0.34530  0.31080  Biso   1.000  H
  H559     1.0000 0.72840  0.40660  0.30610  Biso   1.000  H
  H560     1.0000 0.78800  0.38010  0.30440  Biso   1.000  H
  C267     1.0000 0.78830  0.44170  0.34375  Biso   1.000  C
  H561     1.0000 0.79540  0.44790  0.36140  Biso   1.000  H
  H562     1.0000 0.82320  0.44230  0.33460  Biso   1.000  H
  H563     1.0000 0.76390  0.46900  0.33730  Biso   1.000  H
  C268     1.0000 0.70740  0.38940  0.35370  Biso   1.000  C
  H564     1.0000 0.69130  0.35450  0.35280  Biso   1.000  H
  H565     1.0000 0.71300  0.39920  0.37110  Biso   1.000  H
  H566     1.0000 0.68260  0.41450  0.34580  Biso   1.000  H
  C269     1.0000 0.81380  0.09160  0.36767  Biso   1.000  C
  H567     1.0000 0.79690  0.11760  0.37860  Biso   1.000  H
  H568     1.0000 0.79510  0.05810  0.36990  Biso   1.000  H
  H569     1.0000 0.85280  0.08790  0.37190  Biso   1.000  H
  C270     1.0000 0.80820  0.10900  0.34066  Biso   1.000  C
  C271     1.0000 0.74710  0.11770  0.33453  Biso   1.000  C
  H570     1.0000 0.74350  0.12910  0.31720  Biso   1.000  H
  H571     1.0000 0.72680  0.08500  0.33690  Biso   1.000  H
  H572     1.0000 0.73190  0.14440  0.34560  Biso   1.000  H
  C272     1.0000 0.83160  0.06760  0.32357  Biso   1.000  C
  H573     1.0000 0.82830  0.07910  0.30630  Biso   1.000  H
  H574     1.0000 0.87050  0.06180  0.32760  Biso   1.000  H
  H575     1.0000 0.81100  0.03510  0.32580  Biso   1.000  H
  C273     1.0000 0.84800  0.18620  0.31700  Biso   1.000  C
  C274     1.0000 0.89350  0.25750  0.29757  Biso   1.000  C
  H576     1.0000 0.90000  0.23400  0.28330  Biso   1.000  H
  H577     1.0000 0.86170  0.28020  0.29360  Biso   1.000  H
  C275     1.0000 0.94450  0.29060  0.30237  Biso   1.000  C
  H578     1.0000 0.94830  0.31730  0.28920  Biso   1.000  H
  H579     1.0000 0.97780  0.26830  0.30210  Biso   1.000  H
  C276     1.0000 0.96733  0.35980  0.33034  Biso   1.000  C
  C277     1.0000 0.97820  0.43240  0.36209  Biso   1.000  C
  C278     1.0000 0.95730  0.43830  0.38857  Biso   1.000  C
  H580     1.0000 0.91720  0.43450  0.38880  Biso   1.000  H
  H581     1.0000 0.97410  0.41140  0.39910  Biso   1.000  H
  H582     1.0000 0.96740  0.47280  0.39490  Biso   1.000  H
  C279     1.0000 0.04130  0.43730  0.36192  Biso   1.000  C
  H583     1.0000 0.05730  0.41080  0.37290  Biso   1.000  H
  H584     1.0000 0.05500  0.43220  0.34500  Biso   1.000  H
  H585     1.0000 0.05190  0.47200  0.36780  Biso   1.000  H
  C280     1.0000 0.95310  0.47460  0.34570  Biso   1.000  C
  H586     1.0000 0.91290  0.47100  0.34560  Biso   1.000  H
  H587     1.0000 0.96310  0.50890  0.35220  Biso   1.000  H
  H588     1.0000 0.96720  0.47100  0.32870  Biso   1.000  H
  Zn8      1.0000 0.89579  0.31104  0.18080  Biso   1.000  Zn
  O57      1.0000 0.78832  0.20776  0.21717  Biso   1.000  O
  O58      1.0000 0.98241  0.39959  0.23367  Biso   1.000  O
  O59      1.0000 0.97990  0.21461  0.13017  Biso   1.000  O
  O60      1.0000 0.80263  0.42326  0.14338  Biso   1.000  O
  N85      1.0000 0.85478  0.26608  0.20455  Biso   1.000  N
  N86      1.0000 0.92892  0.34345  0.21054  Biso   1.000  N
  N87      1.0000 0.92639  0.27401  0.15151  Biso   1.000  N
  N88      1.0000 0.86384  0.35983  0.15595  Biso   1.000  N
  N89      1.0000 0.80830  0.21782  0.17600  Biso   1.000  N
  H589     1.0000 0.82880  0.23460  0.16520  Biso   1.000  H
  N90      1.0000 0.00031  0.38743  0.19231  Biso   1.000  N
  H590     1.0000 0.99780  0.36480  0.18010  Biso   1.000  H
  N91      1.0000 0.97065  0.20936  0.17270  Biso   1.000  N
  H591     1.0000 0.96760  0.22870  0.18610  Biso   1.000  H
  N92      1.0000 0.84096  0.42585  0.18228  Biso   1.000  N
  H592     1.0000 0.85880  0.40760  0.19350  Biso   1.000  H
  C281     1.0000 0.77850  0.18060  0.13774  Biso   1.000  C
  H593     1.0000 0.77040  0.21540  0.13120  Biso   1.000  H
  H594     1.0000 0.81690  0.17160  0.13410  Biso   1.000  H
  H595     1.0000 0.75400  0.15510  0.12980  Biso   1.000  H
  C282     1.0000 0.76930  0.17990  0.16587  Biso   1.000  C
  C283     1.0000 0.71030  0.19640  0.17184  Biso   1.000  C
  H596     1.0000 0.70590  0.19970  0.18990  Biso   1.000  H
  H597     1.0000 0.70240  0.22990  0.16390  Biso   1.000  H
  H598     1.0000 0.68460  0.17000  0.16560  Biso   1.000  H
  C284     1.0000 0.77970  0.12590  0.17564  Biso   1.000  C
  H599     1.0000 0.77270  0.12510  0.19360  Biso   1.000  H
  H600     1.0000 0.75500  0.10120  0.16730  Biso   1.000  H
  H601     1.0000 0.81800  0.11610  0.17240  Biso   1.000  H
  C285     1.0000 0.81630  0.23000  0.20059  Biso   1.000  C
  C286     1.0000 0.86890  0.27910  0.22999  Biso   1.000  C
  H602     1.0000 0.83510  0.27820  0.24030  Biso   1.000  H
  H603     1.0000 0.89450  0.25240  0.23660  Biso   1.000  H
  C287     1.0000 0.89490  0.33130  0.23222  Biso   1.000  C
  H604     1.0000 0.91800  0.33220  0.24740  Biso   1.000  H
  H605     1.0000 0.86580  0.35800  0.23400  Biso   1.000  H
  C288     1.0000 0.97020  0.37710  0.21364  Biso   1.000  C
  C289     1.0000 0.03610  0.43300  0.18845  Biso   1.000  C
  C290     1.0000 0.04980  0.43380  0.16102  Biso   1.000  C
  H606     1.0000 0.01580  0.43680  0.15130  Biso   1.000  H
  H607     1.0000 0.07370  0.46370  0.15740  Biso   1.000  H
  H608     1.0000 0.06890  0.40150  0.15650  Biso   1.000  H
  C291     1.0000 0.08930  0.42810  0.20364  Biso   1.000  C
  H609     1.0000 0.10990  0.39740  0.19810  Biso   1.000  H
  H610     1.0000 0.11190  0.45940  0.20120  Biso   1.000  H
  H611     1.0000 0.08020  0.42450  0.22130  Biso   1.000  H
  C292     1.0000 0.00690  0.48270  0.19553  Biso   1.000  C
  H612     1.0000 0.97230  0.48550  0.18620  Biso   1.000  H
  H613     1.0000 0.99900  0.48250  0.21340  Biso   1.000  H
  H614     1.0000 0.03050  0.51260  0.19160  Biso   1.000  H
  C293     1.0000 0.98610  0.14560  0.20372  Biso   1.000  C
  H615     1.0000 0.01280  0.16870  0.21180  Biso   1.000  H
  H616     1.0000 0.94910  0.15320  0.21000  Biso   1.000  H
  H617     1.0000 0.99550  0.10930  0.20730  Biso   1.000  H
  C294     1.0000 0.98760  0.15450  0.17578  Biso   1.000  C
  C295     1.0000 0.04640  0.14570  0.16651  Biso   1.000  C
  H618     1.0000 0.07170  0.16870  0.17550  Biso   1.000  H
  H619     1.0000 0.05690  0.10930  0.16940  Biso   1.000  H
  H620     1.0000 0.04830  0.15330  0.14870  Biso   1.000  H
  C296     1.0000 0.94840  0.11820  0.16253  Biso   1.000  C
  H621     1.0000 0.95030  0.12450  0.14460  Biso   1.000  H
  H622     1.0000 0.95880  0.08200  0.16600  Biso   1.000  H
  H623     1.0000 0.91080  0.12440  0.16840  Biso   1.000  H
  C297     1.0000 0.95923  0.23250  0.14977  Biso   1.000  C
  C298     1.0000 0.91580  0.30350  0.12883  Biso   1.000  C
  H624     1.0000 0.94670  0.32770  0.12560  Biso   1.000  H
  H625     1.0000 0.91260  0.27950  0.11450  Biso   1.000  H
  C299     1.0000 0.86222  0.33435  0.13187  Biso   1.000  C
  H626     1.0000 0.83020  0.31060  0.13090  Biso   1.000  H
  H627     1.0000 0.85880  0.36060  0.11850  Biso   1.000  H
  C300     1.0000 0.83433  0.40323  0.15926  Biso   1.000  C
  C301     1.0000 0.82110  0.47750  0.18991  Biso   1.000  C
  C302     1.0000 0.84450  0.48620  0.21591  Biso   1.000  C
  H628     1.0000 0.88480  0.48370  0.21530  Biso   1.000  H
  H629     1.0000 0.83390  0.52080  0.22190  Biso   1.000  H
  H630     1.0000 0.83000  0.45960  0.22720  Biso   1.000  H
  C303     1.0000 0.75850  0.47860  0.19083  Biso   1.000  C
  H631     1.0000 0.74370  0.46820  0.17460  Biso   1.000  H
  H632     1.0000 0.74550  0.45440  0.20360  Biso   1.000  H
  H633     1.0000 0.74600  0.51390  0.19480  Biso   1.000  H
  C304     1.0000 0.84220  0.52000  0.17254  Biso   1.000  C
  H634     1.0000 0.88220  0.51710  0.17090  Biso   1.000  H
  H635     1.0000 0.82510  0.51590  0.15620  Biso   1.000  H
  H636     1.0000 0.83270  0.55420  0.17940  Biso   1.000  H
  Zn9      1.0000 0.86540  0.26566  0.01554  Biso   1.000  Zn
  O61      1.0000 0.95946  0.15243  0.05282  Biso   1.000  O
  O62      1.0000 0.77801  0.35850  0.06615  Biso   1.000  O
  O63      1.0000 0.77282  0.32397  0.46551  Biso   1.000  O
  O64      1.0000 0.95443  0.11878  0.47827  Biso   1.000  O
  N93      1.0000 0.90233  0.21842  0.03948  Biso   1.000  N
  N94      1.0000 0.82894  0.29683  0.04500  Biso   1.000  N
  N95      1.0000 0.83122  0.26748  0.48609  Biso   1.000  N
  N96      1.0000 0.89491  0.18225  0.49148  Biso   1.000  N
  N97      1.0000 0.94987  0.16926  0.01131  Biso   1.000  N
  H637     1.0000 0.92860  0.18410  0.00010  Biso   1.000  H
  N98      1.0000 0.76171  0.34211  0.02478  Biso   1.000  N
  H638     1.0000 0.75710  0.31550  0.01470  Biso   1.000  H
  N99      1.0000 0.79874  0.34040  0.50576  Biso   1.000  N
  H639     1.0000 0.80740  0.32500  0.51980  Biso   1.000  H
  N100     1.0000 0.93423  0.12782  0.51963  Biso   1.000  N
  H640     1.0000 0.91920  0.14810  0.53090  Biso   1.000  H
  C305     1.0000 0.99230  0.14100  0.97371  Biso   1.000  C
  H641     1.0000 0.99910  0.17730  0.96890  Biso   1.000  H
  H642     1.0000 0.02060  0.11860  0.96630  Biso   1.000  H
  H643     1.0000 0.95590  0.13030  0.96770  Biso   1.000  H
  C306     1.0000 0.99440  0.13620  0.00203  Biso   1.000  C
  C307     1.0000 0.98520  0.07980  0.00926  Biso   1.000  C
  H644     1.0000 0.98220  0.07710  0.02740  Biso   1.000  H
  H645     1.0000 0.95100  0.06710  0.00160  Biso   1.000  H
  H646     1.0000 0.01620  0.05860  0.00350  Biso   1.000  H
  C308     1.0000 0.05000  0.15450  0.01159  Biso   1.000  C
  H647     1.0000 0.05510  0.19140  0.00740  Biso   1.000  H
  H648     1.0000 0.05140  0.15030  0.02970  Biso   1.000  H
  H649     1.0000 0.07930  0.13380  0.00390  Biso   1.000  H
  C309     1.0000 0.93805  0.17950  0.03594  Biso   1.000  C
  C310     1.0000 0.88135  0.22684  0.06463  Biso   1.000  C
  H650     1.0000 0.85180  0.20130  0.06820  Biso   1.000  H
  H651     1.0000 0.91140  0.22120  0.07680  Biso   1.000  H
  C311     1.0000 0.85875  0.28192  0.06751  Biso   1.000  C
  H652     1.0000 0.88940  0.30650  0.07040  Biso   1.000  H
  H653     1.0000 0.83370  0.28340  0.08200  Biso   1.000  H
  C312     1.0000 0.79081  0.33376  0.04681  Biso   1.000  C
  C313     1.0000 0.73840  0.39241  0.01734  Biso   1.000  C
  C314     1.0000 0.72110  0.38620  0.99026  Biso   1.000  C
  H654     1.0000 0.69390  0.35810  0.98890  Biso   1.000  H
  H655     1.0000 0.70480  0.41880  0.98430  Biso   1.000  H
  H656     1.0000 0.75340  0.37760  0.98020  Biso   1.000  H
  C315     1.0000 0.68830  0.40660  0.03282  Biso   1.000  C
  H657     1.0000 0.66020  0.37950  0.03100  Biso   1.000  H
  H658     1.0000 0.69900  0.40940  0.05030  Biso   1.000  H
  H659     1.0000 0.67340  0.44000  0.02710  Biso   1.000  H
  C316     1.0000 0.78280  0.43470  0.01922  Biso   1.000  C
  H660     1.0000 0.81480  0.42460  0.00930  Biso   1.000  H
  H661     1.0000 0.76800  0.46770  0.01290  Biso   1.000  H
  H662     1.0000 0.79380  0.43900  0.03660  Biso   1.000  H
  C317     1.0000 0.79780  0.41380  0.53298  Biso   1.000  C
  H663     1.0000 0.77570  0.39390  0.54490  Biso   1.000  H
  H664     1.0000 0.78940  0.45100  0.53460  Biso   1.000  H
  H665     1.0000 0.83700  0.40800  0.53630  Biso   1.000  H
  C318     1.0000 0.78420  0.39590  0.50673  Biso   1.000  C
  C319     1.0000 0.72190  0.40240  0.50187  Biso   1.000  C
  H666     1.0000 0.71320  0.39020  0.48510  Biso   1.000  H
  H667     1.0000 0.71190  0.43920  0.50340  Biso   1.000  H
  H668     1.0000 0.70120  0.38180  0.51400  Biso   1.000  H
  C320     1.0000 0.81720  0.42750  0.48771  Biso   1.000  C
  H669     1.0000 0.80920  0.41470  0.47090  Biso   1.000  H
  H670     1.0000 0.85660  0.42380  0.49110  Biso   1.000  H
  H671     1.0000 0.80680  0.46430  0.48890  Biso   1.000  H
  C321     1.0000 0.79991  0.31040  0.48422  Biso   1.000  C
  C322     1.0000 0.83430  0.23250  0.46485  Biso   1.000  C
  H672     1.0000 0.83280  0.25270  0.44920  Biso   1.000  H
  H673     1.0000 0.80270  0.20800  0.46510  Biso   1.000  H
  C323     1.0000 0.88790  0.20240  0.46632  Biso   1.000  C
  H674     1.0000 0.88740  0.17320  0.45430  Biso   1.000  H
  H675     1.0000 0.91910  0.22560  0.46210  Biso   1.000  H
  C324     1.0000 0.92860  0.14250  0.49498  Biso   1.000  C
  C325     1.0000 0.96340  0.08100  0.52839  Biso   1.000  C
  C326     1.0000 0.95360  0.07950  0.55651  Biso   1.000  C
  H676     1.0000 0.96870  0.11110  0.56410  Biso   1.000  H
  H677     1.0000 0.97190  0.04880  0.56360  Biso   1.000  H
  H678     1.0000 0.91400  0.07760  0.55980  Biso   1.000  H
  C327     1.0000 0.02550  0.08510  0.52339  Biso   1.000  C
  H679     1.0000 0.03190  0.08810  0.50550  Biso   1.000  H
  H680     1.0000 0.04410  0.05400  0.52970  Biso   1.000  H
  H681     1.0000 0.04020  0.11610  0.53180  Biso   1.000  H
  C328     1.0000 0.94050  0.03180  0.51659  Biso   1.000  C
  H682     1.0000 0.94460  0.03380  0.49850  Biso   1.000  H
  H683     1.0000 0.90140  0.02830  0.52080  Biso   1.000  H
  H684     1.0000 0.96070  0.00140  0.52280  Biso   1.000  H
  O65      1.0000 0.72120  0.09110  0.25960  Biso   1.000  O
  N101     1.0000 0.64610  0.04900  0.27210  Biso   1.000  N
  C329     1.0000 0.70030  0.05160  0.26910  Biso   1.000  C
  C330     1.0000 0.73480  0.00280  0.27210  Biso   1.000  C
  H685     1.0000 0.73650  0.98420  0.25620  Biso   1.000  H
  H686     1.0000 0.77220  0.01050  0.27790  Biso   1.000  H
  H687     1.0000 0.71590  0.98110  0.28450  Biso   1.000  H
  C331     1.0000 0.61300  0.09540  0.26750  Biso   1.000  C
  H688     1.0000 0.63320  0.11650  0.25540  Biso   1.000  H
  H689     1.0000 0.57680  0.08620  0.26060  Biso   1.000  H
  H690     1.0000 0.60800  0.11530  0.28290  Biso   1.000  H
  C332     1.0000 0.61510  0.00670  0.28330  Biso   1.000  C
  H691     1.0000 0.60500  0.01470  0.30060  Biso   1.000  H
  H692     1.0000 0.58160  0.00290  0.27330  Biso   1.000  H
  H693     1.0000 0.63620  0.97410  0.28280  Biso   1.000  H
  O66      1.0000 0.70680  0.09770  0.26030  Biso   1.000  O
  N102     1.0000 0.66240  0.02870  0.27530  Biso   1.000  N
  C333     1.0000 0.66220  0.07550  0.26470  Biso   1.000  C
  C334     1.0000 0.61070  0.09340  0.25120  Biso   1.000  C
  H694     1.0000 0.61020  0.08370  0.23360  Biso   1.000  H
  H695     1.0000 0.58130  0.07480  0.26000  Biso   1.000  H
  H696     1.0000 0.60480  0.13110  0.25280  Biso   1.000  H
  C335     1.0000 0.71480  0.00780  0.28400  Biso   1.000  C
  H697     1.0000 0.74220  0.02990  0.27580  Biso   1.000  H
  H698     1.0000 0.72030  0.00930  0.30210  Biso   1.000  H
  H699     1.0000 0.71900  0.97170  0.27830  Biso   1.000  H
  C336     1.0000 0.61940  0.98940  0.27340  Biso   1.000  C
  H700     1.0000 0.62720  0.96160  0.26140  Biso   1.000  H
  H701     1.0000 0.61920  0.97480  0.29030  Biso   1.000  H
  H702     1.0000 0.58340  0.00480  0.26970  Biso   1.000  H
  O67      1.0000 0.02370  0.52520  0.26270  Biso   1.000  O
  N103     1.0000 0.10730  0.56110  0.26402  Biso   1.000  N
  C337     1.0000 0.05700  0.55790  0.25465  Biso   1.000  C
  C338     1.0000 0.03970  0.59620  0.23480  Biso   1.000  C
  H703     1.0000 0.03630  0.63110  0.24200  Biso   1.000  H
  H704     1.0000 0.06700  0.59680  0.22140  Biso   1.000  H
  H705     1.0000 0.00390  0.58530  0.22800  Biso   1.000  H
  C339     1.0000 0.12470  0.52450  0.28320  Biso   1.000  C
  H706     1.0000 0.13830  0.49250  0.27530  Biso   1.000  H
  H707     1.0000 0.15430  0.54040  0.29300  Biso   1.000  H
  H708     1.0000 0.09360  0.51620  0.29410  Biso   1.000  H
  C340     1.0000 0.15200  0.59390  0.25510  Biso   1.000  C
  H709     1.0000 0.14260  0.60720  0.23850  Biso   1.000  H
  H710     1.0000 0.15570  0.62310  0.26670  Biso   1.000  H
  H711     1.0000 0.18690  0.57470  0.25420  Biso   1.000  H
  O68      1.0000 0.03350  0.52180  0.26700  Biso   1.000  O
  N104     1.0000 0.09460  0.58020  0.25300  Biso   1.000  N
  C341     1.0000 0.08000  0.54190  0.26810  Biso   1.000  C
  C342     1.0000 0.11690  0.52960  0.29010  Biso   1.000  C
  H712     1.0000 0.15290  0.51840  0.28380  Biso   1.000  H
  H713     1.0000 0.12150  0.56020  0.30080  Biso   1.000  H
  H714     1.0000 0.10020  0.50120  0.29970  Biso   1.000  H
  C343     1.0000 0.05630  0.59920  0.23420  Biso   1.000  C
  H715     1.0000 0.05540  0.63740  0.23470  Biso   1.000  H
  H716     1.0000 0.06800  0.58750  0.21770  Biso   1.000  H
  H717     1.0000 0.01940  0.58550  0.23780  Biso   1.000  H
  C344     1.0000 0.14150  0.61480  0.25660  Biso   1.000  C
  H718     1.0000 0.17400  0.59360  0.26030  Biso   1.000  H
  H719     1.0000 0.14800  0.63490  0.24140  Biso   1.000  H
  H720     1.0000 0.13460  0.63880  0.27050  Biso   1.000  H
  O69      1.0000 0.11180  0.18960  0.09760  Biso   1.000  O
  N105     1.0000 0.20220  0.20620  0.09787  Biso   1.000  N
  C345     1.0000 0.15210  0.21150  0.10723  Biso   1.000  C
  C346     1.0000 0.14490  0.24070  0.13150  Biso   1.000  C
  H721     1.0000 0.16390  0.22050  0.14430  Biso   1.000  H
  H722     1.0000 0.16130  0.27550  0.13040  Biso   1.000  H
  H723     1.0000 0.10580  0.24390  0.13580  Biso   1.000  H
  C347     1.0000 0.21010  0.17690  0.07490  Biso   1.000  C
  H724     1.0000 0.22280  0.20110  0.06210  Biso   1.000  H
  H725     1.0000 0.23720  0.14890  0.07700  Biso   1.000  H
  H726     1.0000 0.17460  0.16190  0.07000  Biso   1.000  H
  C348     1.0000 0.25110  0.23500  0.10540  Biso   1.000  C
  H727     1.0000 0.27270  0.21330  0.11680  Biso   1.000  H
  H728     1.0000 0.27330  0.24330  0.09070  Biso   1.000  H
  H729     1.0000 0.24050  0.26740  0.11380  Biso   1.000  H
  O70      1.0000 0.11660  0.19130  0.09067  Biso   1.000  O
  N106     1.0000 0.18890  0.21780  0.11319  Biso   1.000  N
  C349     1.0000 0.16700  0.19860  0.09259  Biso   1.000  C
  C350     1.0000 0.20350  0.19130  0.06999  Biso   1.000  C
  H730     1.0000 0.20720  0.22430  0.06100  Biso   1.000  H
  H731     1.0000 0.23990  0.17960  0.07550  Biso   1.000  H
  H732     1.0000 0.18730  0.16500  0.05900  Biso   1.000  H
  C351     1.0000 0.15350  0.23060  0.13419  Biso   1.000  C
  H733     1.0000 0.11860  0.21170  0.13250  Biso   1.000  H
  H734     1.0000 0.17120  0.22110  0.14990  Biso   1.000  H
  H735     1.0000 0.14630  0.26820  0.13400  Biso   1.000  H
  C352     1.0000 0.24480  0.23750  0.11614  Biso   1.000  C
  H736     1.0000 0.24760  0.27140  0.10780  Biso   1.000  H
  H737     1.0000 0.25320  0.24150  0.13390  Biso   1.000  H
  H738     1.0000 0.27100  0.21310  0.10860  Biso   1.000  H
  O71      1.0000 0.05814  0.07050  0.09687  Biso   1.000  O
  N107     1.0000 0.12740  0.02800  0.07834  Biso   1.000  N
  C353     1.0000 0.10690  0.05570  0.09689  Biso   1.000  C
  C354     1.0000 0.14370  0.06820  0.11880  Biso   1.000  C
  H739     1.0000 0.12190  0.08520  0.13180  Biso   1.000  H
  H740     1.0000 0.15850  0.03530  0.12520  Biso   1.000  H
  H741     1.0000 0.17410  0.09100  0.11390  Biso   1.000  H
  C355     1.0000 0.09400  0.01640  0.05654  Biso   1.000  C
  H742     1.0000 0.11420  0.02610  0.04150  Biso   1.000  H
  H743     1.0000 0.08540  0.97910  0.05600  Biso   1.000  H
  H744     1.0000 0.05980  0.03650  0.05750  Biso   1.000  H
  C356     1.0000 0.18160  0.00370  0.07790  Biso   1.000  C
  H745     1.0000 0.18230  0.97290  0.08860  Biso   1.000  H
  H746     1.0000 0.19020  0.99350  0.06080  Biso   1.000  H
  H747     1.0000 0.20910  0.02890  0.08370  Biso   1.000  H
  O72      1.0000 0.05460  0.06620  0.08640  Biso   1.000  O
  N108     1.0000 0.14170  0.03950  0.09120  Biso   1.000  N
  C357     1.0000 0.09450  0.04040  0.07880  Biso   1.000  C
  C358     1.0000 0.08660  0.00290  0.05730  Biso   1.000  C
  H748     1.0000 0.04820  0.00310  0.05170  Biso   1.000  H
  H749     1.0000 0.11030  0.01670  0.04410  Biso   1.000  H
  H750     1.0000 0.09770  0.96710  0.06120  Biso   1.000  H
  C359     1.0000 0.14670  0.06700  0.11470  Biso   1.000  C
  H751     1.0000 0.11650  0.09230  0.11590  Biso   1.000  H
  H752     1.0000 0.14560  0.04370  0.12920  Biso   1.000  H
  H753     1.0000 0.18200  0.08560  0.11450  Biso   1.000  H
  C360     1.0000 0.19110  0.01080  0.08440  Biso   1.000  C
  H754     1.0000 0.20540  0.02210  0.06820  Biso   1.000  H
  H755     1.0000 0.21950  0.01560  0.09710  Biso   1.000  H
  H756     1.0000 0.18090  0.97390  0.08350  Biso   1.000  H
  O73      1.0000 0.64639  0.32860  0.41660  Biso   1.000  O
  N109     1.0000 0.57652  0.29710  0.43915  Biso   1.000  N
  C361     1.0000 0.59720  0.31530  0.41811  Biso   1.000  C
  C362     1.0000 0.55920  0.32380  0.39617  Biso   1.000  C
  H757     1.0000 0.57980  0.33930  0.38240  Biso   1.000  H
  H758     1.0000 0.52900  0.34720  0.40100  Biso   1.000  H
  H759     1.0000 0.54390  0.29020  0.39100  Biso   1.000  H
  C363     1.0000 0.61240  0.28860  0.46048  Biso   1.000  C
  H760     1.0000 0.62170  0.25160  0.46190  Biso   1.000  H
  H761     1.0000 0.59360  0.30010  0.47560  Biso   1.000  H
  H762     1.0000 0.64620  0.30890  0.45820  Biso   1.000  H
  C364     1.0000 0.52040  0.27920  0.44329  Biso   1.000  C
  H763     1.0000 0.50360  0.29940  0.45680  Biso   1.000  H
  H764     1.0000 0.52090  0.24220  0.44780  Biso   1.000  H
  H765     1.0000 0.49880  0.28390  0.42800  Biso   1.000  H
  O74      1.0000 0.65330  0.18080  0.91690  Biso   1.000  O
  N110     1.0000 0.56410  0.19600  0.92460  Biso   1.000  N
  C365     1.0000 0.61650  0.19490  0.93150  Biso   1.000  C
  C366     1.0000 0.63170  0.21430  0.95720  Biso   1.000  C
  H766     1.0000 0.62010  0.25080  0.95850  Biso   1.000  H
  H767     1.0000 0.61280  0.19370  0.96990  Biso   1.000  H
  H768     1.0000 0.67160  0.21190  0.95960  Biso   1.000  H
  C367     1.0000 0.54860  0.17900  0.89970  Biso   1.000  C
  H769     1.0000 0.57880  0.15790  0.89300  Biso   1.000  H
  H770     1.0000 0.51530  0.15760  0.90090  Biso   1.000  H
  H771     1.0000 0.54160  0.20860  0.88860  Biso   1.000  H
  C368     1.0000 0.51970  0.22280  0.93750  Biso   1.000  C
  H772     1.0000 0.53360  0.23820  0.95300  Biso   1.000  H
  H773     1.0000 0.50510  0.25040  0.92670  Biso   1.000  H
  H774     1.0000 0.49020  0.19790  0.94140  Biso   1.000  H
  O75      1.0000 0.69350  0.46280  0.43242  Biso   1.000  O
  N111     1.0000 0.61520  0.50410  0.42244  Biso   1.000  N
  C369     1.0000 0.66080  0.49930  0.43573  Biso   1.000  C
  C370     1.0000 0.67010  0.53670  0.45712  Biso   1.000  C
  H775     1.0000 0.69790  0.52240  0.46840  Biso   1.000  H
  H776     1.0000 0.63530  0.54130  0.46610  Biso   1.000  H
  H777     1.0000 0.68270  0.57040  0.45080  Biso   1.000  H
  C371     1.0000 0.60540  0.46990  0.40131  Biso   1.000  C
  H778     1.0000 0.63640  0.44570  0.39960  Biso   1.000  H
  H779     1.0000 0.60190  0.49070  0.38610  Biso   1.000  H
  H780     1.0000 0.57140  0.45010  0.40400  Biso   1.000  H
  C372     1.0000 0.57540  0.54630  0.42440  Biso   1.000  C
  H781     1.0000 0.57640  0.55830  0.44170  Biso   1.000  H
  H782     1.0000 0.53910  0.53120  0.42090  Biso   1.000  H
  H783     1.0000 0.58210  0.57570  0.41320  Biso   1.000  H
  O76      1.0000 0.69630  0.03370  0.92560  Biso   1.000  O
  N112     1.0000 0.63150  0.97400  0.93330  Biso   1.000  N
  C373     1.0000 0.64940  0.01620  0.92160  Biso   1.000  C
  C374     1.0000 0.60940  0.04700  0.90580  Biso   1.000  C
  H784     1.0000 0.61030  0.03370  0.88870  Biso   1.000  H
  H785     1.0000 0.57210  0.04320  0.91250  Biso   1.000  H
  H786     1.0000 0.61980  0.08390  0.90580  Biso   1.000  H
  C375     1.0000 0.66920  0.94380  0.94860  Biso   1.000  C
  H787     1.0000 0.69830  0.96700  0.95460  Biso   1.000  H
  H788     1.0000 0.64910  0.92920  0.96280  Biso   1.000  H
  H789     1.0000 0.68560  0.91540  0.93890  Biso   1.000  H
  C376     1.0000 0.57840  0.94880  0.92960  Biso   1.000  C
  H790     1.0000 0.58850  0.91750  0.92020  Biso   1.000  H
  H791     1.0000 0.55870  0.93860  0.94480  Biso   1.000  H
  H792     1.0000 0.55450  0.97100  0.91940  Biso   1.000  H
  O77      1.0000 0.05930  0.05840  0.42430  Biso   1.000  O
  N113     1.0000 0.12540  0.00740  0.40822  Biso   1.000  N
  C377     1.0000 0.10720  0.04150  0.42477  Biso   1.000  C
  C378     1.0000 0.14620  0.05980  0.44493  Biso   1.000  C
  H793     1.0000 0.12640  0.08180  0.45680  Biso   1.000  H
  H794     1.0000 0.17660  0.07970  0.43750  Biso   1.000  H
  H795     1.0000 0.16110  0.02930  0.45360  Biso   1.000  H
  C379     1.0000 0.08840  0.98550  0.38970  Biso   1.000  C
  H796     1.0000 0.05350  0.00480  0.39020  Biso   1.000  H
  H797     1.0000 0.08140  0.94850  0.39290  Biso   1.000  H
  H798     1.0000 0.10520  0.98940  0.37320  Biso   1.000  H
  C380     1.0000 0.17940  0.98250  0.40872  Biso   1.000  C
  H799     1.0000 0.20610  0.00580  0.41670  Biso   1.000  H
  H800     1.0000 0.19130  0.97500  0.39170  Biso   1.000  H
  H801     1.0000 0.17710  0.94990  0.41820  Biso   1.000  H
  O78      1.0000 0.05550  0.45150  0.92100  Biso   1.000  O
  N114     1.0000 0.14360  0.47690  0.91919  Biso   1.000  N
  C381     1.0000 0.09210  0.47810  0.91100  Biso   1.000  C
  C382     1.0000 0.07730  0.51500  0.89010  Biso   1.000  C
  H802     1.0000 0.03760  0.52200  0.89000  Biso   1.000  H
  H803     1.0000 0.09750  0.54770  0.89270  Biso   1.000  H
  H804     1.0000 0.08810  0.49980  0.87410  Biso   1.000  H
  C383     1.0000 0.15830  0.44380  0.94010  Biso   1.000  C
  H805     1.0000 0.12590  0.43990  0.95090  Biso   1.000  H
  H806     1.0000 0.16970  0.40940  0.93400  Biso   1.000  H
  H807     1.0000 0.18850  0.45940  0.94960  Biso   1.000  H
  C384     1.0000 0.19070  0.50300  0.90800  Biso   1.000  C
  H808     1.0000 0.18030  0.51740  0.89180  Biso   1.000  H
  H809     1.0000 0.20250  0.53130  0.91910  Biso   1.000  H
  H810     1.0000 0.22100  0.47820  0.90590  Biso   1.000  H
  K19      1.0000 0.25770  0.31321  0.73842  Biso   1.000  K
  K20      1.0000 0.52569  0.07739  0.72610  Biso   1.000  K
  K21      1.0000 0.51395  0.33873  0.90638  Biso   1.000  K
  K22      1.0000 0.24088  0.12006  0.89057  Biso   1.000  K
  K23      1.0000 0.23944  0.12749  0.57245  Biso   1.000  K
  K24      1.0000 0.51300  0.35867  0.55930  Biso   1.000  K
  Zn10     1.0000 0.40059  0.23129  0.65014  Biso   1.000  Zn
  O79      1.0000 0.47918  0.33637  0.60206  Biso   1.000  O
  O80      1.0000 0.30229  0.12687  0.60988  Biso   1.000  O
  O81      1.0000 0.32577  0.32787  0.70294  Biso   1.000  O
  O82      1.0000 0.49736  0.11740  0.68544  Biso   1.000  O
  N115     1.0000 0.42930  0.27263  0.62181  Biso   1.000  N
  N116     1.0000 0.35661  0.19326  0.62471  Biso   1.000  N
  N117     1.0000 0.38162  0.27312  0.68009  Biso   1.000  N
  N118     1.0000 0.43955  0.18415  0.67354  Biso   1.000  N
  N119     1.0000 0.48968  0.32260  0.64399  Biso   1.000  N
  H811     1.0000 0.48570  0.29940  0.65590  Biso   1.000  H
  N120     1.0000 0.29760  0.15060  0.65023  Biso   1.000  N
  H812     1.0000 0.30700  0.17490  0.66090  Biso   1.000  H
  N121     1.0000 0.33879  0.34164  0.66134  Biso   1.000  N
  H813     1.0000 0.35250  0.32860  0.64750  Biso   1.000  H
  N122     1.0000 0.46177  0.11992  0.64604  Biso   1.000  N
  H814     1.0000 0.44690  0.14040  0.63480  Biso   1.000  H
  C385     1.0000 0.53370  0.36620  0.67752  Biso   1.000  C
  H815     1.0000 0.55720  0.33580  0.68070  Biso   1.000  H
  H816     1.0000 0.55290  0.39790  0.68280  Biso   1.000  H
  H817     1.0000 0.49920  0.36260  0.68680  Biso   1.000  H
  C386     1.0000 0.52113  0.36965  0.64990  Biso   1.000  C
  C387     1.0000 0.48740  0.41850  0.64437  Biso   1.000  C
  H818     1.0000 0.47790  0.41940  0.62670  Biso   1.000  H
  H819     1.0000 0.45350  0.41800  0.65430  Biso   1.000  H
  H820     1.0000 0.50900  0.44950  0.64860  Biso   1.000  H
  C388     1.0000 0.57500  0.37170  0.63522  Biso   1.000  C
  H821     1.0000 0.59520  0.33910  0.63750  Biso   1.000  H
  H822     1.0000 0.56680  0.37660  0.61750  Biso   1.000  H
  H823     1.0000 0.59740  0.40090  0.64120  Biso   1.000  H
  C389     1.0000 0.46556  0.31140  0.62120  Biso   1.000  C
  C390     1.0000 0.40166  0.25795  0.59873  Biso   1.000  C
  H824     1.0000 0.37080  0.28230  0.59550  Biso   1.000  H
  H825     1.0000 0.42790  0.26070  0.58470  Biso   1.000  H
  C391     1.0000 0.37962  0.20268  0.60016  Biso   1.000  C
  H826     1.0000 0.40980  0.17760  0.59690  Biso   1.000  H
  H827     1.0000 0.35080  0.19760  0.58740  Biso   1.000  H
  C392     1.0000 0.31907  0.15540  0.62675  Biso   1.000  C
  C393     1.0000 0.26140  0.11040  0.65946  Biso   1.000  C
  C394     1.0000 0.25240  0.12050  0.68695  Biso   1.000  C
  H828     1.0000 0.23510  0.15470  0.68920  Biso   1.000  H
  H829     1.0000 0.22840  0.09340  0.69390  Biso   1.000  H
  H830     1.0000 0.28800  0.11990  0.69560  Biso   1.000  H
  C395     1.0000 0.28830  0.05830  0.65625  Biso   1.000  C
  H831     1.0000 0.29540  0.05210  0.63860  Biso   1.000  H
  H832     1.0000 0.32320  0.05770  0.66540  Biso   1.000  H
  H833     1.0000 0.26390  0.03100  0.66270  Biso   1.000  H
  C396     1.0000 0.20740  0.11060  0.64630  Biso   1.000  C
  H834     1.0000 0.19130  0.14550  0.64720  Biso   1.000  H
  H835     1.0000 0.21300  0.10080  0.62890  Biso   1.000  H
  H836     1.0000 0.18260  0.08550  0.65420  Biso   1.000  H
  C397     1.0000 0.31380  0.40840  0.63233  Biso   1.000  C
  H837     1.0000 0.29690  0.38240  0.62140  Biso   1.000  H
  H838     1.0000 0.29510  0.44190  0.63010  Biso   1.000  H
  H839     1.0000 0.35280  0.41210  0.62810  Biso   1.000  H
  C398     1.0000 0.30820  0.39100  0.65934  Biso   1.000  C
  C399     1.0000 0.24710  0.38230  0.66547  Biso   1.000  C
  H840     1.0000 0.24350  0.37090  0.68280  Biso   1.000  H
  H841     1.0000 0.22680  0.41500  0.66310  Biso   1.000  H
  H842     1.0000 0.23190  0.35560  0.65440  Biso   1.000  H
  C400     1.0000 0.33160  0.43240  0.67643  Biso   1.000  C
  H843     1.0000 0.32830  0.42090  0.69370  Biso   1.000  H
  H844     1.0000 0.37050  0.43820  0.67240  Biso   1.000  H
  H845     1.0000 0.31100  0.46490  0.67420  Biso   1.000  H
  C401     1.0000 0.34800  0.31380  0.68300  Biso   1.000  C
  C402     1.0000 0.39350  0.24250  0.70243  Biso   1.000  C
  H846     1.0000 0.40000  0.26600  0.71670  Biso   1.000  H
  H847     1.0000 0.36170  0.21980  0.70640  Biso   1.000  H
  C403     1.0000 0.44450  0.20940  0.69763  Biso   1.000  C
  H848     1.0000 0.44830  0.18270  0.71080  Biso   1.000  H
  H849     1.0000 0.47780  0.23170  0.69790  Biso   1.000  H
  C404     1.0000 0.46733  0.14020  0.66966  Biso   1.000  C
  C405     1.0000 0.47820  0.06760  0.63791  Biso   1.000  C
  C406     1.0000 0.45730  0.06170  0.61143  Biso   1.000  C
  H850     1.0000 0.41720  0.06550  0.61120  Biso   1.000  H
  H851     1.0000 0.47410  0.08860  0.60090  Biso   1.000  H
  H852     1.0000 0.46740  0.02720  0.60510  Biso   1.000  H
  C407     1.0000 0.54130  0.06270  0.63808  Biso   1.000  C
  H853     1.0000 0.55730  0.08920  0.62710  Biso   1.000  H
  H854     1.0000 0.55500  0.06780  0.65500  Biso   1.000  H
  H855     1.0000 0.55190  0.02800  0.63220  Biso   1.000  H
  C408     1.0000 0.45310  0.02540  0.65430  Biso   1.000  C
  H856     1.0000 0.41290  0.02900  0.65440  Biso   1.000  H
  H857     1.0000 0.46310  0.99110  0.64780  Biso   1.000  H
  H858     1.0000 0.46720  0.02900  0.67130  Biso   1.000  H
  Zn11     1.0000 0.39579  0.18896  0.81920  Biso   1.000  Zn
  O83      1.0000 0.28832  0.29224  0.78283  Biso   1.000  O
  O84      1.0000 0.48241  0.10041  0.76633  Biso   1.000  O
  O85      1.0000 0.47990  0.28539  0.86983  Biso   1.000  O
  O86      1.0000 0.30263  0.07674  0.85662  Biso   1.000  O
  N123     1.0000 0.35478  0.23392  0.79545  Biso   1.000  N
  N124     1.0000 0.42892  0.15655  0.78946  Biso   1.000  N
  N125     1.0000 0.42639  0.22599  0.84849  Biso   1.000  N
  N126     1.0000 0.36384  0.14017  0.84405  Biso   1.000  N
  N127     1.0000 0.30830  0.28218  0.82400  Biso   1.000  N
  H859     1.0000 0.32880  0.26540  0.83480  Biso   1.000  H
  N128     1.0000 0.50031  0.11257  0.80769  Biso   1.000  N
  H860     1.0000 0.49780  0.13520  0.81990  Biso   1.000  H
  N129     1.0000 0.47065  0.29064  0.82730  Biso   1.000  N
  H861     1.0000 0.46760  0.27130  0.81390  Biso   1.000  H
  N130     1.0000 0.34096  0.07415  0.81772  Biso   1.000  N
  H862     1.0000 0.35880  0.09240  0.80650  Biso   1.000  H
  C409     1.0000 0.27850  0.31940  0.86226  Biso   1.000  C
  H863     1.0000 0.27040  0.28460  0.86880  Biso   1.000  H
  H864     1.0000 0.31690  0.32840  0.86590  Biso   1.000  H
  H865     1.0000 0.25400  0.34490  0.87020  Biso   1.000  H
  C410     1.0000 0.26930  0.32010  0.83413  Biso   1.000  C
  C411     1.0000 0.21030  0.30360  0.82816  Biso   1.000  C
  H866     1.0000 0.20590  0.30030  0.81010  Biso   1.000  H
  H867     1.0000 0.20240  0.27010  0.83610  Biso   1.000  H
  H868     1.0000 0.18460  0.33000  0.83440  Biso   1.000  H
  C412     1.0000 0.27970  0.37410  0.82436  Biso   1.000  C
  H869     1.0000 0.27270  0.37490  0.80640  Biso   1.000  H
  H870     1.0000 0.25500  0.39880  0.83270  Biso   1.000  H
  H871     1.0000 0.31800  0.38390  0.82760  Biso   1.000  H
  C413     1.0000 0.31630  0.27000  0.79941  Biso   1.000  C
  C414     1.0000 0.36890  0.22090  0.77001  Biso   1.000  C
  H872     1.0000 0.33510  0.22180  0.75970  Biso   1.000  H
  H873     1.0000 0.39450  0.24760  0.76340  Biso   1.000  H
  C415     1.0000 0.39490  0.16870  0.76778  Biso   1.000  C
  H874     1.0000 0.41800  0.16780  0.75260  Biso   1.000  H
  H875     1.0000 0.36580  0.14200  0.76600  Biso   1.000  H
  C416     1.0000 0.47020  0.12290  0.78636  Biso   1.000  C
  C417     1.0000 0.53610  0.06700  0.81155  Biso   1.000  C
  C418     1.0000 0.54980  0.06620  0.83898  Biso   1.000  C
  H876     1.0000 0.51580  0.06320  0.84870  Biso   1.000  H
  H877     1.0000 0.57370  0.03630  0.84260  Biso   1.000  H
  H878     1.0000 0.56890  0.09850  0.84350  Biso   1.000  H
  C419     1.0000 0.58930  0.07190  0.79636  Biso   1.000  C
  H879     1.0000 0.60990  0.10260  0.80190  Biso   1.000  H
  H880     1.0000 0.61190  0.04060  0.79880  Biso   1.000  H
  H881     1.0000 0.58020  0.07550  0.77870  Biso   1.000  H
  C420     1.0000 0.50690  0.01730  0.80447  Biso   1.000  C
  H882     1.0000 0.47230  0.01450  0.81380  Biso   1.000  H
  H883     1.0000 0.49900  0.01750  0.78660  Biso   1.000  H
  H884     1.0000 0.53050  0.98740  0.80840  Biso   1.000  H
  C421     1.0000 0.48610  0.35440  0.79628  Biso   1.000  C
  H885     1.0000 0.51280  0.33130  0.78820  Biso   1.000  H
  H886     1.0000 0.44910  0.34680  0.79000  Biso   1.000  H
  H887     1.0000 0.49550  0.39070  0.79270  Biso   1.000  H
  C422     1.0000 0.48760  0.34550  0.82422  Biso   1.000  C
  C423     1.0000 0.54640  0.35430  0.83349  Biso   1.000  C
  H888     1.0000 0.57170  0.33130  0.82450  Biso   1.000  H
  H889     1.0000 0.55690  0.39070  0.83060  Biso   1.000  H
  H890     1.0000 0.54830  0.34670  0.85130  Biso   1.000  H
  C424     1.0000 0.44840  0.38180  0.83747  Biso   1.000  C
  H891     1.0000 0.45030  0.37550  0.85540  Biso   1.000  H
  H892     1.0000 0.45880  0.41800  0.83400  Biso   1.000  H
  H893     1.0000 0.41080  0.37560  0.83160  Biso   1.000  H
  C425     1.0000 0.45923  0.26750  0.85023  Biso   1.000  C
  C426     1.0000 0.41580  0.19650  0.87117  Biso   1.000  C
  H894     1.0000 0.44670  0.17230  0.87440  Biso   1.000  H
  H895     1.0000 0.41260  0.22050  0.88550  Biso   1.000  H
  C427     1.0000 0.36222  0.16565  0.86813  Biso   1.000  C
  H896     1.0000 0.33020  0.18940  0.86910  Biso   1.000  H
  H897     1.0000 0.35880  0.13940  0.88150  Biso   1.000  H
  C428     1.0000 0.33433  0.09677  0.84074  Biso   1.000  C
  C429     1.0000 0.32110  0.02250  0.81009  Biso   1.000  C
  C430     1.0000 0.34450  0.01380  0.78409  Biso   1.000  C
  H898     1.0000 0.38480  0.01630  0.78470  Biso   1.000  H
  H899     1.0000 0.33390  0.97920  0.77810  Biso   1.000  H
  H900     1.0000 0.33000  0.04040  0.77280  Biso   1.000  H
  C431     1.0000 0.25850  0.02140  0.80917  Biso   1.000  C
  H901     1.0000 0.24370  0.03180  0.82540  Biso   1.000  H
  H902     1.0000 0.24550  0.04560  0.79640  Biso   1.000  H
  H903     1.0000 0.24600  0.98610  0.80520  Biso   1.000  H
  C432     1.0000 0.34220  0.98000  0.82746  Biso   1.000  C
  H904     1.0000 0.38220  0.98290  0.82910  Biso   1.000  H
  H905     1.0000 0.32510  0.98410  0.84380  Biso   1.000  H
  H906     1.0000 0.33270  0.94580  0.82060  Biso   1.000  H
  Zn12     1.0000 0.36540  0.23434  0.98446  Biso   1.000  Zn
  O87      1.0000 0.45946  0.34757  0.94718  Biso   1.000  O
  O88      1.0000 0.27801  0.14150  0.93385  Biso   1.000  O
  O89      1.0000 0.27282  0.17603  0.53449  Biso   1.000  O
  O90      1.0000 0.45443  0.38122  0.52173  Biso   1.000  O
  N131     1.0000 0.40233  0.28158  0.96052  Biso   1.000  N
  N132     1.0000 0.32894  0.20317  0.95500  Biso   1.000  N
  N133     1.0000 0.33122  0.23252  0.51391  Biso   1.000  N
  N134     1.0000 0.39491  0.31775  0.50852  Biso   1.000  N
  N135     1.0000 0.44987  0.33074  0.98869  Biso   1.000  N
  H907     1.0000 0.42860  0.31590  0.99990  Biso   1.000  H
  N136     1.0000 0.26171  0.15789  0.97522  Biso   1.000  N
  H908     1.0000 0.25710  0.18450  0.98530  Biso   1.000  H
  N137     1.0000 0.29874  0.15960  0.49424  Biso   1.000  N
  H909     1.0000 0.30740  0.17500  0.48020  Biso   1.000  H
  N138     1.0000 0.43423  0.37218  0.48037  Biso   1.000  N
  H910     1.0000 0.41920  0.35190  0.46910  Biso   1.000  H
  C433     1.0000 0.49230  0.35900  0.02629  Biso   1.000  C
  H911     1.0000 0.49910  0.32270  0.03110  Biso   1.000  H
  H912     1.0000 0.52060  0.38140  0.03370  Biso   1.000  H
  H913     1.0000 0.45590  0.36970  0.03230  Biso   1.000  H
  C434     1.0000 0.49440  0.36380  0.99797  Biso   1.000  C
  C435     1.0000 0.48520  0.42020  0.99074  Biso   1.000  C
  H914     1.0000 0.48220  0.42290  0.97260  Biso   1.000  H
  H915     1.0000 0.45100  0.43290  0.99840  Biso   1.000  H
  H916     1.0000 0.51620  0.44140  0.99650  Biso   1.000  H
  C436     1.0000 0.55000  0.34550  0.98841  Biso   1.000  C
  H917     1.0000 0.55510  0.30860  0.99260  Biso   1.000  H
  H918     1.0000 0.55140  0.34970  0.97030  Biso   1.000  H
  H919     1.0000 0.57930  0.36620  0.99610  Biso   1.000  H
  C437     1.0000 0.43805  0.32050  0.96406  Biso   1.000  C
  C438     1.0000 0.38135  0.27316  0.93537  Biso   1.000  C
  H920     1.0000 0.35180  0.29870  0.93180  Biso   1.000  H
  H921     1.0000 0.41140  0.27880  0.92320  Biso   1.000  H
  C439     1.0000 0.35875  0.21808  0.93249  Biso   1.000  C
  H922     1.0000 0.38940  0.19350  0.92960  Biso   1.000  H
  H923     1.0000 0.33370  0.21660  0.91800  Biso   1.000  H
  C440     1.0000 0.29081  0.16624  0.95319  Biso   1.000  C
  C441     1.0000 0.23840  0.10759  0.98266  Biso   1.000  C
  C442     1.0000 0.22110  0.11380  0.00974  Biso   1.000  C
  H924     1.0000 0.19390  0.14190  0.01110  Biso   1.000  H
  H925     1.0000 0.20480  0.08120  0.01570  Biso   1.000  H
  H926     1.0000 0.25340  0.12240  0.01980  Biso   1.000  H
  C443     1.0000 0.18830  0.09340  0.96718  Biso   1.000  C
  H927     1.0000 0.16020  0.12050  0.96900  Biso   1.000  H
  H928     1.0000 0.19900  0.09060  0.94970  Biso   1.000  H
  H929     1.0000 0.17340  0.06000  0.97290  Biso   1.000  H
  C444     1.0000 0.28280  0.06530  0.98078  Biso   1.000  C
  H930     1.0000 0.31480  0.07540  0.99070  Biso   1.000  H
  H931     1.0000 0.26800  0.03230  0.98710  Biso   1.000  H
  H932     1.0000 0.29380  0.06100  0.96340  Biso   1.000  H
  C445     1.0000 0.29780  0.08620  0.46702  Biso   1.000  C
  H933     1.0000 0.27570  0.10610  0.45510  Biso   1.000  H
  H934     1.0000 0.28940  0.04900  0.46540  Biso   1.000  H
  H935     1.0000 0.33700  0.09200  0.46370  Biso   1.000  H
  C446     1.0000 0.28420  0.10410  0.49327  Biso   1.000  C
  C447     1.0000 0.22190  0.09760  0.49813  Biso   1.000  C
  H936     1.0000 0.21320  0.10980  0.51490  Biso   1.000  H
  H937     1.0000 0.21190  0.06080  0.49660  Biso   1.000  H
  H938     1.0000 0.20120  0.11820  0.48600  Biso   1.000  H
  C448     1.0000 0.31720  0.07250  0.51229  Biso   1.000  C
  H939     1.0000 0.30920  0.08530  0.52910  Biso   1.000  H
  H940     1.0000 0.35660  0.07620  0.50890  Biso   1.000  H
  H941     1.0000 0.30680  0.03570  0.51110  Biso   1.000  H
  C449     1.0000 0.29991  0.18960  0.51578  Biso   1.000  C
  C450     1.0000 0.33430  0.26750  0.53515  Biso   1.000  C
  H942     1.0000 0.33280  0.24730  0.55080  Biso   1.000  H
  H943     1.0000 0.30270  0.29200  0.53490  Biso   1.000  H
  C451     1.0000 0.38790  0.29760  0.53368  Biso   1.000  C
  H944     1.0000 0.38740  0.32680  0.54570  Biso   1.000  H
  H945     1.0000 0.41910  0.27440  0.53790  Biso   1.000  H
  C452     1.0000 0.42860  0.35750  0.50502  Biso   1.000  C
  C453     1.0000 0.46340  0.41900  0.47161  Biso   1.000  C
  C454     1.0000 0.45360  0.42050  0.44349  Biso   1.000  C
  H946     1.0000 0.46870  0.38890  0.43590  Biso   1.000  H
  H947     1.0000 0.47190  0.45120  0.43640  Biso   1.000  H
  H948     1.0000 0.41400  0.42240  0.44020  Biso   1.000  H
  C455     1.0000 0.52550  0.41490  0.47661  Biso   1.000  C
  H949     1.0000 0.53190  0.41190  0.49450  Biso   1.000  H
  H950     1.0000 0.54410  0.44600  0.47030  Biso   1.000  H
  H951     1.0000 0.54020  0.38390  0.46820  Biso   1.000  H
  C456     1.0000 0.44050  0.46820  0.48341  Biso   1.000  C
  H952     1.0000 0.44460  0.46620  0.50150  Biso   1.000  H
  H953     1.0000 0.40140  0.47170  0.47920  Biso   1.000  H
  H954     1.0000 0.46070  0.49860  0.47720  Biso   1.000  H
  O91      1.0000 0.22120  0.40890  0.74040  Biso   1.000  O
  N139     1.0000 0.14610  0.45100  0.72790  Biso   1.000  N
  C457     1.0000 0.20030  0.44840  0.73090  Biso   1.000  C
  C458     1.0000 0.23480  0.49720  0.72790  Biso   1.000  C
  H955     1.0000 0.23650  0.51580  0.74380  Biso   1.000  H
  H956     1.0000 0.27220  0.48950  0.72210  Biso   1.000  H
  H957     1.0000 0.21590  0.51890  0.71550  Biso   1.000  H
  C459     1.0000 0.11300  0.40460  0.73250  Biso   1.000  C
  H958     1.0000 0.13320  0.38350  0.74460  Biso   1.000  H
  H959     1.0000 0.07680  0.41380  0.73940  Biso   1.000  H
  H960     1.0000 0.10800  0.38470  0.71710  Biso   1.000  H
  C460     1.0000 0.11510  0.49330  0.71670  Biso   1.000  C
  H961     1.0000 0.10500  0.48530  0.69940  Biso   1.000  H
  H962     1.0000 0.08160  0.49710  0.72670  Biso   1.000  H
  H963     1.0000 0.13620  0.52590  0.71720  Biso   1.000  H
  O92      1.0000 0.20680  0.40230  0.73970  Biso   1.000  O
  N140     1.0000 0.16240  0.47130  0.72470  Biso   1.000  N
  C461     1.0000 0.16220  0.42450  0.73530  Biso   1.000  C
  C462     1.0000 0.11070  0.40660  0.74880  Biso   1.000  C
  H964     1.0000 0.11020  0.41630  0.76640  Biso   1.000  H
  H965     1.0000 0.08130  0.42520  0.74000  Biso   1.000  H
  H966     1.0000 0.10480  0.36890  0.74720  Biso   1.000  H
  C463     1.0000 0.21480  0.49220  0.71600  Biso   1.000  C
  H967     1.0000 0.24220  0.47010  0.72420  Biso   1.000  H
  H968     1.0000 0.22030  0.49070  0.69790  Biso   1.000  H
  H969     1.0000 0.21900  0.52830  0.72170  Biso   1.000  H
  C464     1.0000 0.11940  0.51060  0.72660  Biso   1.000  C
  H970     1.0000 0.12720  0.53840  0.73860  Biso   1.000  H
  H971     1.0000 0.11920  0.52520  0.70970  Biso   1.000  H
  H972     1.0000 0.08340  0.49520  0.73030  Biso   1.000  H
  O93      1.0000 0.52370  0.97480  0.73730  Biso   1.000  O
  N141     1.0000 0.60730  0.93890  0.73598  Biso   1.000  N
  C465     1.0000 0.55700  0.94210  0.74535  Biso   1.000  C
  C466     1.0000 0.53970  0.90380  0.76520  Biso   1.000  C
  H973     1.0000 0.53630  0.86890  0.75800  Biso   1.000  H
  H974     1.0000 0.56700  0.90320  0.77860  Biso   1.000  H
  H975     1.0000 0.50390  0.91470  0.77200  Biso   1.000  H
  C467     1.0000 0.62470  0.97550  0.71680  Biso   1.000  C
  H976     1.0000 0.63830  0.00750  0.72470  Biso   1.000  H
  H977     1.0000 0.65430  0.95960  0.70700  Biso   1.000  H
  H978     1.0000 0.59360  0.98380  0.70590  Biso   1.000  H
  C468     1.0000 0.65200  0.90610  0.74490  Biso   1.000  C
  H979     1.0000 0.64260  0.89280  0.76150  Biso   1.000  H
  H980     1.0000 0.65570  0.87690  0.73330  Biso   1.000  H
  H981     1.0000 0.68690  0.92530  0.74580  Biso   1.000  H
  O94      1.0000 0.53350  0.97820  0.73300  Biso   1.000  O
  N142     1.0000 0.59460  0.91980  0.74700  Biso   1.000  N
  C469     1.0000 0.58000  0.95810  0.73190  Biso   1.000  C
  C470     1.0000 0.61690  0.97040  0.70990  Biso   1.000  C
  H982     1.0000 0.65290  0.98160  0.71620  Biso   1.000  H
  H983     1.0000 0.62150  0.93980  0.69920  Biso   1.000  H
  H984     1.0000 0.60020  0.99880  0.70030  Biso   1.000  H
  C471     1.0000 0.55630  0.90080  0.76580  Biso   1.000  C
  H985     1.0000 0.55540  0.86260  0.76530  Biso   1.000  H
  H986     1.0000 0.56800  0.91250  0.78230  Biso   1.000  H
  H987     1.0000 0.51940  0.91450  0.76220  Biso   1.000  H
  C472     1.0000 0.64150  0.88520  0.74340  Biso   1.000  C
  H988     1.0000 0.67400  0.90640  0.73970  Biso   1.000  H
  H989     1.0000 0.64800  0.86510  0.75860  Biso   1.000  H
  H990     1.0000 0.63460  0.86120  0.72950  Biso   1.000  H
  O95      1.0000 0.61180  0.31040  0.90240  Biso   1.000  O
  N143     1.0000 0.70220  0.29380  0.90213  Biso   1.000  N
  C473     1.0000 0.65210  0.28850  0.89277  Biso   1.000  C
  C474     1.0000 0.64490  0.25930  0.86850  Biso   1.000  C
  H991     1.0000 0.66390  0.27950  0.85570  Biso   1.000  H
  H992     1.0000 0.66130  0.22450  0.86960  Biso   1.000  H
  H993     1.0000 0.60580  0.25610  0.86420  Biso   1.000  H
  C475     1.0000 0.71010  0.32310  0.92510  Biso   1.000  C
  H994     1.0000 0.72280  0.29890  0.93790  Biso   1.000  H
  H995     1.0000 0.73720  0.35110  0.92300  Biso   1.000  H
  H996     1.0000 0.67460  0.33810  0.93000  Biso   1.000  H
  C476     1.0000 0.75110  0.26500  0.89460  Biso   1.000  C
  H997     1.0000 0.77270  0.28670  0.88320  Biso   1.000  H
  H998     1.0000 0.77330  0.25670  0.90930  Biso   1.000  H
  H999     1.0000 0.74050  0.23260  0.88620  Biso   1.000  H
  O96      1.0000 0.61660  0.30870  0.90933  Biso   1.000  O
  N144     1.0000 0.68890  0.28220  0.88681  Biso   1.000  N
  C477     1.0000 0.66700  0.30140  0.90741  Biso   1.000  C
  C478     1.0000 0.70350  0.30870  0.93001  Biso   1.000  C
  H1000    1.0000 0.70720  0.27570  0.93900  Biso   1.000  H
  H1001    1.0000 0.73990  0.32040  0.92450  Biso   1.000  H
  H1002    1.0000 0.68730  0.33500  0.94100  Biso   1.000  H
  C479     1.0000 0.65350  0.26940  0.86581  Biso   1.000  C
  H1003    1.0000 0.61860  0.28830  0.86750  Biso   1.000  H
  H1004    1.0000 0.67120  0.27890  0.85010  Biso   1.000  H
  H1005    1.0000 0.64630  0.23180  0.86600  Biso   1.000  H
  C480     1.0000 0.74480  0.26250  0.88386  Biso   1.000  C
  H1006    1.0000 0.74760  0.22860  0.89220  Biso   1.000  H
  H1007    1.0000 0.75320  0.25850  0.86610  Biso   1.000  H
  H1008    1.0000 0.77100  0.28690  0.89140  Biso   1.000  H
  O97      1.0000 0.55814  0.42950  0.90313  Biso   1.000  O
  N145     1.0000 0.62740  0.47200  0.92166  Biso   1.000  N
  C481     1.0000 0.60690  0.44430  0.90311  Biso   1.000  C
  C482     1.0000 0.64370  0.43180  0.88120  Biso   1.000  C
  H1009    1.0000 0.62190  0.41480  0.86820  Biso   1.000  H
  H1010    1.0000 0.65850  0.46470  0.87480  Biso   1.000  H
  H1011    1.0000 0.67410  0.40900  0.88610  Biso   1.000  H
  C483     1.0000 0.59400  0.48360  0.94346  Biso   1.000  C
  H1012    1.0000 0.61420  0.47390  0.95850  Biso   1.000  H
  H1013    1.0000 0.58540  0.52090  0.94400  Biso   1.000  H
  H1014    1.0000 0.55980  0.46350  0.94250  Biso   1.000  H
  C484     1.0000 0.68160  0.49630  0.92210  Biso   1.000  C
  H1015    1.0000 0.68230  0.52710  0.91140  Biso   1.000  H
  H1016    1.0000 0.69020  0.50650  0.93920  Biso   1.000  H
  H1017    1.0000 0.70910  0.47110  0.91630  Biso   1.000  H
  O98      1.0000 0.55460  0.43380  0.91360  Biso   1.000  O
  N146     1.0000 0.64170  0.46050  0.90880  Biso   1.000  N
  C485     1.0000 0.59450  0.45960  0.92120  Biso   1.000  C
  C486     1.0000 0.58660  0.49710  0.94270  Biso   1.000  C
  H1018    1.0000 0.54820  0.49690  0.94830  Biso   1.000  H
  H1019    1.0000 0.61030  0.48330  0.95590  Biso   1.000  H
  H1020    1.0000 0.59770  0.53290  0.93880  Biso   1.000  H
  C487     1.0000 0.64670  0.43300  0.88530  Biso   1.000  C
  H1021    1.0000 0.61650  0.40770  0.88410  Biso   1.000  H
  H1022    1.0000 0.64560  0.45630  0.87080  Biso   1.000  H
  H1023    1.0000 0.68200  0.41440  0.88550  Biso   1.000  H
  C488     1.0000 0.69110  0.48920  0.91560  Biso   1.000  C
  H1024    1.0000 0.70540  0.47790  0.93180  Biso   1.000  H
  H1025    1.0000 0.71950  0.48440  0.90290  Biso   1.000  H
  H1026    1.0000 0.68090  0.52610  0.91650  Biso   1.000  H
  O99      1.0000 0.14639  0.17140  0.58340  Biso   1.000  O
  N147     1.0000 0.07652  0.20290  0.56085  Biso   1.000  N
  C489     1.0000 0.09720  0.18470  0.58189  Biso   1.000  C
  C490     1.0000 0.05920  0.17620  0.60383  Biso   1.000  C
  H1027    1.0000 0.07980  0.16070  0.61760  Biso   1.000  H
  H1028    1.0000 0.02900  0.15280  0.59900  Biso   1.000  H
  H1029    1.0000 0.04390  0.20980  0.60900  Biso   1.000  H
  C491     1.0000 0.11240  0.21140  0.53952  Biso   1.000  C
  H1030    1.0000 0.12170  0.24840  0.53810  Biso   1.000  H
  H1031    1.0000 0.09360  0.19990  0.52440  Biso   1.000  H
  H1032    1.0000 0.14620  0.19110  0.54180  Biso   1.000  H
  C492     1.0000 0.02040  0.22080  0.55671  Biso   1.000  C
  H1033    1.0000 0.00360  0.20060  0.54320  Biso   1.000  H
  H1034    1.0000 0.02090  0.25780  0.55220  Biso   1.000  H
  H1035    1.0000 0.99880  0.21610  0.57200  Biso   1.000  H
  O100     1.0000 0.15330  0.31920  0.08310  Biso   1.000  O
  N148     1.0000 0.06410  0.30400  0.07540  Biso   1.000  N
  C493     1.0000 0.11650  0.30510  0.06850  Biso   1.000  C
  C494     1.0000 0.13170  0.28570  0.04280  Biso   1.000  C
  H1036    1.0000 0.12010  0.24920  0.04150  Biso   1.000  H
  H1037    1.0000 0.11280  0.30630  0.03010  Biso   1.000  H
  H1038    1.0000 0.17160  0.28810  0.04040  Biso   1.000  H
  C495     1.0000 0.04860  0.32100  0.10030  Biso   1.000  C
  H1039    1.0000 0.07880  0.34210  0.10700  Biso   1.000  H
  H1040    1.0000 0.01530  0.34240  0.09910  Biso   1.000  H
  H1041    1.0000 0.04160  0.29140  0.11140  Biso   1.000  H
  C496     1.0000 0.01970  0.27720  0.06250  Biso   1.000  C
  H1042    1.0000 0.03360  0.26180  0.04700  Biso   1.000  H
  H1043    1.0000 0.00510  0.24960  0.07330  Biso   1.000  H
  H1044    1.0000 0.99020  0.30210  0.05860  Biso   1.000  H
  O101     1.0000 0.19350  0.03720  0.56758  Biso   1.000  O
  N149     1.0000 0.11520  0.99590  0.57756  Biso   1.000  N
  C497     1.0000 0.16080  0.00070  0.56427  Biso   1.000  C
  C498     1.0000 0.17010  0.96330  0.54288  Biso   1.000  C
  H1045    1.0000 0.19790  0.97760  0.53160  Biso   1.000  H
  H1046    1.0000 0.13530  0.95870  0.53390  Biso   1.000  H
  H1047    1.0000 0.18270  0.92960  0.54920  Biso   1.000  H
  C499     1.0000 0.10540  0.03010  0.59869  Biso   1.000  C
  H1048    1.0000 0.13640  0.05430  0.60040  Biso   1.000  H
  H1049    1.0000 0.10190  0.00930  0.61390  Biso   1.000  H
  H1050    1.0000 0.07140  0.04990  0.59600  Biso   1.000  H
  C500     1.0000 0.07540  0.95370  0.57560  Biso   1.000  C
  H1051    1.0000 0.07640  0.94170  0.55830  Biso   1.000  H
  H1052    1.0000 0.03910  0.96880  0.57910  Biso   1.000  H
  H1053    1.0000 0.08210  0.92430  0.58680  Biso   1.000  H
  O102     1.0000 0.19630  0.46630  0.07440  Biso   1.000  O
  N150     1.0000 0.13150  0.52600  0.06670  Biso   1.000  N
  C501     1.0000 0.14940  0.48380  0.07840  Biso   1.000  C
  C502     1.0000 0.10940  0.45300  0.09420  Biso   1.000  C
  H1054    1.0000 0.11030  0.46630  0.11130  Biso   1.000  H
  H1055    1.0000 0.07210  0.45680  0.08750  Biso   1.000  H
  H1056    1.0000 0.11980  0.41610  0.09420  Biso   1.000  H
  C503     1.0000 0.16920  0.55620  0.05140  Biso   1.000  C
  H1057    1.0000 0.19830  0.53300  0.04540  Biso   1.000  H
  H1058    1.0000 0.14910  0.57080  0.03720  Biso   1.000  H
  H1059    1.0000 0.18560  0.58460  0.06110  Biso   1.000  H
  C504     1.0000 0.07840  0.55120  0.07040  Biso   1.000  C
  H1060    1.0000 0.08850  0.58250  0.07980  Biso   1.000  H
  H1061    1.0000 0.05870  0.56140  0.05520  Biso   1.000  H
  H1062    1.0000 0.05450  0.52900  0.08060  Biso   1.000  H
  O103     1.0000 0.55930  0.44160  0.57570  Biso   1.000  O
  N151     1.0000 0.62540  0.49260  0.59178  Biso   1.000  N
  C505     1.0000 0.60720  0.45850  0.57523  Biso   1.000  C
  C506     1.0000 0.64620  0.44020  0.55507  Biso   1.000  C
  H1063    1.0000 0.62640  0.41820  0.54320  Biso   1.000  H
  H1064    1.0000 0.67660  0.42030  0.56250  Biso   1.000  H
  H1065    1.0000 0.66110  0.47070  0.54640  Biso   1.000  H
  C507     1.0000 0.58840  0.51450  0.61030  Biso   1.000  C
  H1066    1.0000 0.55350  0.49520  0.60980  Biso   1.000  H
  H1067    1.0000 0.58140  0.55150  0.60710  Biso   1.000  H
  H1068    1.0000 0.60520  0.51060  0.62680  Biso   1.000  H
  C508     1.0000 0.67940  0.51750  0.59128  Biso   1.000  C
  H1069    1.0000 0.70610  0.49420  0.58330  Biso   1.000  H
  H1070    1.0000 0.69130  0.52500  0.60830  Biso   1.000  H
  H1071    1.0000 0.67710  0.55010  0.58180  Biso   1.000  H
  O104     1.0000 0.55550  0.04850  0.07900  Biso   1.000  O
  N152     1.0000 0.64360  0.02310  0.08081  Biso   1.000  N
  C509     1.0000 0.59210  0.02190  0.08900  Biso   1.000  C
  C510     1.0000 0.57730  0.98500  0.10990  Biso   1.000  C
  H1072    1.0000 0.53760  0.97800  0.11000  Biso   1.000  H
  H1073    1.0000 0.59750  0.95230  0.10730  Biso   1.000  H
  H1074    1.0000 0.58810  0.00020  0.12590  Biso   1.000  H
  C511     1.0000 0.65830  0.05620  0.05990  Biso   1.000  C
  H1075    1.0000 0.62590  0.06010  0.04910  Biso   1.000  H
  H1076    1.0000 0.66970  0.09060  0.06600  Biso   1.000  H
  H1077    1.0000 0.68850  0.04060  0.05040  Biso   1.000  H
  C512     1.0000 0.69070  0.99700  0.09200  Biso   1.000  C
  H1078    1.0000 0.68030  0.98260  0.10820  Biso   1.000  H
  H1079    1.0000 0.70250  0.96870  0.08090  Biso   1.000  H
  H1080    1.0000 0.72100  0.02180  0.09410  Biso   1.000  H
  K25      1.0000 0.24230  0.81321  0.73842  Biso   1.000  K
  K26      1.0000 0.97431  0.57739  0.72610  Biso   1.000  K
  K27      1.0000 0.98605  0.83873  0.90638  Biso   1.000  K
  K28      1.0000 0.25912  0.62006  0.89057  Biso   1.000  K
  K29      1.0000 0.26056  0.62749  0.57245  Biso   1.000  K
  K30      1.0000 0.98700  0.85867  0.55930  Biso   1.000  K
  Zn13     1.0000 0.09941  0.73129  0.65014  Biso   1.000  Zn
  O105     1.0000 0.02082  0.83637  0.60206  Biso   1.000  O
  O106     1.0000 0.19771  0.62687  0.60988  Biso   1.000  O
  O107     1.0000 0.17423  0.82787  0.70294  Biso   1.000  O
  O108     1.0000 0.00264  0.61740  0.68544  Biso   1.000  O
  N153     1.0000 0.07070  0.77263  0.62181  Biso   1.000  N
  N154     1.0000 0.14339  0.69326  0.62471  Biso   1.000  N
  N155     1.0000 0.11838  0.77312  0.68009  Biso   1.000  N
  N156     1.0000 0.06045  0.68415  0.67354  Biso   1.000  N
  N157     1.0000 0.01032  0.82260  0.64399  Biso   1.000  N
  H1081    1.0000 0.01430  0.79940  0.65590  Biso   1.000  H
  N158     1.0000 0.20240  0.65060  0.65023  Biso   1.000  N
  H1082    1.0000 0.19300  0.67490  0.66090  Biso   1.000  H
  N159     1.0000 0.16121  0.84164  0.66134  Biso   1.000  N
  H1083    1.0000 0.14750  0.82860  0.64750  Biso   1.000  H
  N160     1.0000 0.03823  0.61992  0.64604  Biso   1.000  N
  H1084    1.0000 0.05310  0.64040  0.63480  Biso   1.000  H
  C513     1.0000 0.96630  0.86620  0.67752  Biso   1.000  C
  H1085    1.0000 0.94280  0.83580  0.68070  Biso   1.000  H
  H1086    1.0000 0.94710  0.89790  0.68280  Biso   1.000  H
  H1087    1.0000 0.00080  0.86260  0.68680  Biso   1.000  H
  C514     1.0000 0.97887  0.86965  0.64990  Biso   1.000  C
  C515     1.0000 0.01260  0.91850  0.64437  Biso   1.000  C
  H1088    1.0000 0.02210  0.91940  0.62670  Biso   1.000  H
  H1089    1.0000 0.04650  0.91800  0.65430  Biso   1.000  H
  H1090    1.0000 0.99100  0.94950  0.64860  Biso   1.000  H
  C516     1.0000 0.92500  0.87170  0.63522  Biso   1.000  C
  H1091    1.0000 0.90480  0.83910  0.63750  Biso   1.000  H
  H1092    1.0000 0.93320  0.87660  0.61750  Biso   1.000  H
  H1093    1.0000 0.90260  0.90090  0.64120  Biso   1.000  H
  C517     1.0000 0.03444  0.81140  0.62120  Biso   1.000  C
  C518     1.0000 0.09834  0.75795  0.59873  Biso   1.000  C
  H1094    1.0000 0.12920  0.78230  0.59550  Biso   1.000  H
  H1095    1.0000 0.07210  0.76070  0.58470  Biso   1.000  H
  C519     1.0000 0.12038  0.70268  0.60016  Biso   1.000  C
  H1096    1.0000 0.09020  0.67760  0.59690  Biso   1.000  H
  H1097    1.0000 0.14920  0.69760  0.58740  Biso   1.000  H
  C520     1.0000 0.18093  0.65540  0.62675  Biso   1.000  C
  C521     1.0000 0.23860  0.61040  0.65946  Biso   1.000  C
  C522     1.0000 0.24760  0.62050  0.68695  Biso   1.000  C
  H1098    1.0000 0.26490  0.65470  0.68920  Biso   1.000  H
  H1099    1.0000 0.27160  0.59340  0.69390  Biso   1.000  H
  H1100    1.0000 0.21200  0.61990  0.69560  Biso   1.000  H
  C523     1.0000 0.21170  0.55830  0.65625  Biso   1.000  C
  H1101    1.0000 0.20460  0.55210  0.63860  Biso   1.000  H
  H1102    1.0000 0.17680  0.55770  0.66540  Biso   1.000  H
  H1103    1.0000 0.23610  0.53100  0.66270  Biso   1.000  H
  C524     1.0000 0.29260  0.61060  0.64630  Biso   1.000  C
  H1104    1.0000 0.30870  0.64550  0.64720  Biso   1.000  H
  H1105    1.0000 0.28700  0.60080  0.62890  Biso   1.000  H
  H1106    1.0000 0.31740  0.58550  0.65420  Biso   1.000  H
  C525     1.0000 0.18620  0.90840  0.63233  Biso   1.000  C
  H1107    1.0000 0.20310  0.88240  0.62140  Biso   1.000  H
  H1108    1.0000 0.20490  0.94190  0.63010  Biso   1.000  H
  H1109    1.0000 0.14720  0.91210  0.62810  Biso   1.000  H
  C526     1.0000 0.19180  0.89100  0.65934  Biso   1.000  C
  C527     1.0000 0.25290  0.88230  0.66547  Biso   1.000  C
  H1110    1.0000 0.25650  0.87090  0.68280  Biso   1.000  H
  H1111    1.0000 0.27320  0.91500  0.66310  Biso   1.000  H
  H1112    1.0000 0.26810  0.85560  0.65440  Biso   1.000  H
  C528     1.0000 0.16840  0.93240  0.67643  Biso   1.000  C
  H1113    1.0000 0.17170  0.92090  0.69370  Biso   1.000  H
  H1114    1.0000 0.12950  0.93820  0.67240  Biso   1.000  H
  H1115    1.0000 0.18900  0.96490  0.67420  Biso   1.000  H
  C529     1.0000 0.15200  0.81380  0.68300  Biso   1.000  C
  C530     1.0000 0.10650  0.74250  0.70243  Biso   1.000  C
  H1116    1.0000 0.10000  0.76600  0.71670  Biso   1.000  H
  H1117    1.0000 0.13830  0.71980  0.70640  Biso   1.000  H
  C531     1.0000 0.05550  0.70940  0.69763  Biso   1.000  C
  H1118    1.0000 0.05170  0.68270  0.71080  Biso   1.000  H
  H1119    1.0000 0.02220  0.73170  0.69790  Biso   1.000  H
  C532     1.0000 0.03267  0.64020  0.66966  Biso   1.000  C
  C533     1.0000 0.02180  0.56760  0.63791  Biso   1.000  C
  C534     1.0000 0.04270  0.56170  0.61143  Biso   1.000  C
  H1120    1.0000 0.08280  0.56550  0.61120  Biso   1.000  H
  H1121    1.0000 0.02590  0.58860  0.60090  Biso   1.000  H
  H1122    1.0000 0.03260  0.52720  0.60510  Biso   1.000  H
  C535     1.0000 0.95870  0.56270  0.63808  Biso   1.000  C
  H1123    1.0000 0.94270  0.58920  0.62710  Biso   1.000  H
  H1124    1.0000 0.94500  0.56780  0.65500  Biso   1.000  H
  H1125    1.0000 0.94810  0.52800  0.63220  Biso   1.000  H
  C536     1.0000 0.04690  0.52540  0.65430  Biso   1.000  C
  H1126    1.0000 0.08710  0.52900  0.65440  Biso   1.000  H
  H1127    1.0000 0.03690  0.49110  0.64780  Biso   1.000  H
  H1128    1.0000 0.03280  0.52900  0.67130  Biso   1.000  H
  Zn14     1.0000 0.10421  0.68896  0.81920  Biso   1.000  Zn
  O109     1.0000 0.21168  0.79224  0.78283  Biso   1.000  O
  O110     1.0000 0.01759  0.60041  0.76633  Biso   1.000  O
  O111     1.0000 0.02010  0.78539  0.86983  Biso   1.000  O
  O112     1.0000 0.19737  0.57674  0.85662  Biso   1.000  O
  N161     1.0000 0.14522  0.73392  0.79545  Biso   1.000  N
  N162     1.0000 0.07108  0.65655  0.78946  Biso   1.000  N
  N163     1.0000 0.07361  0.72599  0.84849  Biso   1.000  N
  N164     1.0000 0.13616  0.64017  0.84405  Biso   1.000  N
  N165     1.0000 0.19170  0.78218  0.82400  Biso   1.000  N
  H1129    1.0000 0.17120  0.76540  0.83480  Biso   1.000  H
  N166     1.0000 0.99969  0.61257  0.80769  Biso   1.000  N
  H1130    1.0000 0.00220  0.63520  0.81990  Biso   1.000  H
  N167     1.0000 0.02935  0.79064  0.82730  Biso   1.000  N
  H1131    1.0000 0.03240  0.77130  0.81390  Biso   1.000  H
  N168     1.0000 0.15904  0.57415  0.81772  Biso   1.000  N
  H1132    1.0000 0.14120  0.59240  0.80650  Biso   1.000  H
  C537     1.0000 0.22150  0.81940  0.86226  Biso   1.000  C
  H1133    1.0000 0.22960  0.78460  0.86880  Biso   1.000  H
  H1134    1.0000 0.18310  0.82840  0.86590  Biso   1.000  H
  H1135    1.0000 0.24600  0.84490  0.87020  Biso   1.000  H
  C538     1.0000 0.23070  0.82010  0.83413  Biso   1.000  C
  C539     1.0000 0.28970  0.80360  0.82816  Biso   1.000  C
  H1136    1.0000 0.29410  0.80030  0.81010  Biso   1.000  H
  H1137    1.0000 0.29760  0.77010  0.83610  Biso   1.000  H
  H1138    1.0000 0.31540  0.83000  0.83440  Biso   1.000  H
  C540     1.0000 0.22030  0.87410  0.82436  Biso   1.000  C
  H1139    1.0000 0.22730  0.87490  0.80640  Biso   1.000  H
  H1140    1.0000 0.24500  0.89880  0.83270  Biso   1.000  H
  H1141    1.0000 0.18200  0.88390  0.82760  Biso   1.000  H
  C541     1.0000 0.18370  0.77000  0.79941  Biso   1.000  C
  C542     1.0000 0.13110  0.72090  0.77001  Biso   1.000  C
  H1142    1.0000 0.16490  0.72180  0.75970  Biso   1.000  H
  H1143    1.0000 0.10550  0.74760  0.76340  Biso   1.000  H
  C543     1.0000 0.10510  0.66870  0.76778  Biso   1.000  C
  H1144    1.0000 0.08200  0.66780  0.75260  Biso   1.000  H
  H1145    1.0000 0.13420  0.64200  0.76600  Biso   1.000  H
  C544     1.0000 0.02980  0.62290  0.78636  Biso   1.000  C
  C545     1.0000 0.96390  0.56700  0.81155  Biso   1.000  C
  C546     1.0000 0.95020  0.56620  0.83898  Biso   1.000  C
  H1146    1.0000 0.98420  0.56320  0.84870  Biso   1.000  H
  H1147    1.0000 0.92630  0.53630  0.84260  Biso   1.000  H
  H1148    1.0000 0.93110  0.59850  0.84350  Biso   1.000  H
  C547     1.0000 0.91070  0.57190  0.79636  Biso   1.000  C
  H1149    1.0000 0.89010  0.60260  0.80190  Biso   1.000  H
  H1150    1.0000 0.88810  0.54060  0.79880  Biso   1.000  H
  H1151    1.0000 0.91980  0.57550  0.77870  Biso   1.000  H
  C548     1.0000 0.99310  0.51730  0.80447  Biso   1.000  C
  H1152    1.0000 0.02770  0.51450  0.81380  Biso   1.000  H
  H1153    1.0000 0.00100  0.51750  0.78660  Biso   1.000  H
  H1154    1.0000 0.96950  0.48740  0.80840  Biso   1.000  H
  C549     1.0000 0.01390  0.85440  0.79628  Biso   1.000  C
  H1155    1.0000 0.98720  0.83130  0.78820  Biso   1.000  H
  H1156    1.0000 0.05090  0.84680  0.79000  Biso   1.000  H
  H1157    1.0000 0.00450  0.89070  0.79270  Biso   1.000  H
  C550     1.0000 0.01240  0.84550  0.82422  Biso   1.000  C
  C551     1.0000 0.95360  0.85430  0.83349  Biso   1.000  C
  H1158    1.0000 0.92830  0.83130  0.82450  Biso   1.000  H
  H1159    1.0000 0.94310  0.89070  0.83060  Biso   1.000  H
  H1160    1.0000 0.95170  0.84670  0.85130  Biso   1.000  H
  C552     1.0000 0.05160  0.88180  0.83747  Biso   1.000  C
  H1161    1.0000 0.04970  0.87550  0.85540  Biso   1.000  H
  H1162    1.0000 0.04120  0.91800  0.83400  Biso   1.000  H
  H1163    1.0000 0.08920  0.87560  0.83160  Biso   1.000  H
  C553     1.0000 0.04077  0.76750  0.85023  Biso   1.000  C
  C554     1.0000 0.08420  0.69650  0.87117  Biso   1.000  C
  H1164    1.0000 0.05330  0.67230  0.87440  Biso   1.000  H
  H1165    1.0000 0.08740  0.72050  0.88550  Biso   1.000  H
  C555     1.0000 0.13778  0.66565  0.86813  Biso   1.000  C
  H1166    1.0000 0.16980  0.68940  0.86910  Biso   1.000  H
  H1167    1.0000 0.14120  0.63940  0.88150  Biso   1.000  H
  C556     1.0000 0.16567  0.59677  0.84074  Biso   1.000  C
  C557     1.0000 0.17890  0.52250  0.81009  Biso   1.000  C
  C558     1.0000 0.15550  0.51380  0.78409  Biso   1.000  C
  H1168    1.0000 0.11520  0.51630  0.78470  Biso   1.000  H
  H1169    1.0000 0.16610  0.47920  0.77810  Biso   1.000  H
  H1170    1.0000 0.17000  0.54040  0.77280  Biso   1.000  H
  C559     1.0000 0.24150  0.52140  0.80917  Biso   1.000  C
  H1171    1.0000 0.25630  0.53180  0.82540  Biso   1.000  H
  H1172    1.0000 0.25450  0.54560  0.79640  Biso   1.000  H
  H1173    1.0000 0.25400  0.48610  0.80520  Biso   1.000  H
  C560     1.0000 0.15780  0.48000  0.82746  Biso   1.000  C
  H1174    1.0000 0.11780  0.48290  0.82910  Biso   1.000  H
  H1175    1.0000 0.17490  0.48410  0.84380  Biso   1.000  H
  H1176    1.0000 0.16730  0.44580  0.82060  Biso   1.000  H
  Zn15     1.0000 0.13460  0.73434  0.98446  Biso   1.000  Zn
  O113     1.0000 0.04054  0.84757  0.94718  Biso   1.000  O
  O114     1.0000 0.22199  0.64150  0.93385  Biso   1.000  O
  O115     1.0000 0.22718  0.67603  0.53449  Biso   1.000  O
  O116     1.0000 0.04557  0.88122  0.52173  Biso   1.000  O
  N169     1.0000 0.09767  0.78158  0.96052  Biso   1.000  N
  N170     1.0000 0.17106  0.70317  0.95500  Biso   1.000  N
  N171     1.0000 0.16878  0.73252  0.51391  Biso   1.000  N
  N172     1.0000 0.10509  0.81775  0.50852  Biso   1.000  N
  N173     1.0000 0.05013  0.83074  0.98869  Biso   1.000  N
  H1177    1.0000 0.07140  0.81590  0.99990  Biso   1.000  H
  N174     1.0000 0.23829  0.65789  0.97522  Biso   1.000  N
  H1178    1.0000 0.24290  0.68450  0.98530  Biso   1.000  H
  N175     1.0000 0.20126  0.65960  0.49424  Biso   1.000  N
  H1179    1.0000 0.19260  0.67500  0.48020  Biso   1.000  H
  N176     1.0000 0.06577  0.87218  0.48037  Biso   1.000  N
  H1180    1.0000 0.08080  0.85190  0.46910  Biso   1.000  H
  C561     1.0000 0.00770  0.85900  0.02629  Biso   1.000  C
  H1181    1.0000 0.00090  0.82270  0.03110  Biso   1.000  H
  H1182    1.0000 0.97940  0.88140  0.03370  Biso   1.000  H
  H1183    1.0000 0.04410  0.86970  0.03230  Biso   1.000  H
  C562     1.0000 0.00560  0.86380  0.99797  Biso   1.000  C
  C563     1.0000 0.01480  0.92020  0.99074  Biso   1.000  C
  H1184    1.0000 0.01780  0.92290  0.97260  Biso   1.000  H
  H1185    1.0000 0.04900  0.93290  0.99840  Biso   1.000  H
  H1186    1.0000 0.98380  0.94140  0.99650  Biso   1.000  H
  C564     1.0000 0.95000  0.84550  0.98841  Biso   1.000  C
  H1187    1.0000 0.94490  0.80860  0.99260  Biso   1.000  H
  H1188    1.0000 0.94860  0.84970  0.97030  Biso   1.000  H
  H1189    1.0000 0.92070  0.86620  0.99610  Biso   1.000  H
  C565     1.0000 0.06195  0.82050  0.96406  Biso   1.000  C
  C566     1.0000 0.11865  0.77316  0.93537  Biso   1.000  C
  H1190    1.0000 0.14820  0.79870  0.93180  Biso   1.000  H
  H1191    1.0000 0.08860  0.77880  0.92320  Biso   1.000  H
  C567     1.0000 0.14125  0.71808  0.93249  Biso   1.000  C
  H1192    1.0000 0.11060  0.69350  0.92960  Biso   1.000  H
  H1193    1.0000 0.16630  0.71660  0.91800  Biso   1.000  H
  C568     1.0000 0.20919  0.66624  0.95319  Biso   1.000  C
  C569     1.0000 0.26160  0.60759  0.98266  Biso   1.000  C
  C570     1.0000 0.27890  0.61380  0.00974  Biso   1.000  C
  H1194    1.0000 0.30610  0.64190  0.01110  Biso   1.000  H
  H1195    1.0000 0.29520  0.58120  0.01570  Biso   1.000  H
  H1196    1.0000 0.24660  0.62240  0.01980  Biso   1.000  H
  C571     1.0000 0.31170  0.59340  0.96718  Biso   1.000  C
  H1197    1.0000 0.33980  0.62050  0.96900  Biso   1.000  H
  H1198    1.0000 0.30100  0.59060  0.94970  Biso   1.000  H
  H1199    1.0000 0.32660  0.56000  0.97290  Biso   1.000  H
  C572     1.0000 0.21720  0.56530  0.98078  Biso   1.000  C
  H1200    1.0000 0.18520  0.57540  0.99070  Biso   1.000  H
  H1201    1.0000 0.23200  0.53230  0.98710  Biso   1.000  H
  H1202    1.0000 0.20620  0.56100  0.96340  Biso   1.000  H
  C573     1.0000 0.20220  0.58620  0.46702  Biso   1.000  C
  H1203    1.0000 0.22430  0.60610  0.45510  Biso   1.000  H
  H1204    1.0000 0.21060  0.54900  0.46540  Biso   1.000  H
  H1205    1.0000 0.16300  0.59200  0.46370  Biso   1.000  H
  C574     1.0000 0.21580  0.60410  0.49327  Biso   1.000  C
  C575     1.0000 0.27810  0.59760  0.49813  Biso   1.000  C
  H1206    1.0000 0.28680  0.60980  0.51490  Biso   1.000  H
  H1207    1.0000 0.28810  0.56080  0.49660  Biso   1.000  H
  H1208    1.0000 0.29880  0.61820  0.48600  Biso   1.000  H
  C576     1.0000 0.18280  0.57250  0.51229  Biso   1.000  C
  H1209    1.0000 0.19080  0.58530  0.52910  Biso   1.000  H
  H1210    1.0000 0.14340  0.57620  0.50890  Biso   1.000  H
  H1211    1.0000 0.19320  0.53570  0.51110  Biso   1.000  H
  C577     1.0000 0.20009  0.68960  0.51578  Biso   1.000  C
  C578     1.0000 0.16570  0.76750  0.53515  Biso   1.000  C
  H1212    1.0000 0.16720  0.74730  0.55080  Biso   1.000  H
  H1213    1.0000 0.19730  0.79200  0.53490  Biso   1.000  H
  C579     1.0000 0.11210  0.79760  0.53368  Biso   1.000  C
  H1214    1.0000 0.11260  0.82680  0.54570  Biso   1.000  H
  H1215    1.0000 0.08090  0.77440  0.53790  Biso   1.000  H
  C580     1.0000 0.07140  0.85750  0.50502  Biso   1.000  C
  C581     1.0000 0.03660  0.91900  0.47161  Biso   1.000  C
  C582     1.0000 0.04640  0.92050  0.44349  Biso   1.000  C
  H1216    1.0000 0.03130  0.88890  0.43590  Biso   1.000  H
  H1217    1.0000 0.02810  0.95120  0.43640  Biso   1.000  H
  H1218    1.0000 0.08600  0.92240  0.44020  Biso   1.000  H
  C583     1.0000 0.97450  0.91490  0.47661  Biso   1.000  C
  H1219    1.0000 0.96810  0.91190  0.49450  Biso   1.000  H
  H1220    1.0000 0.95590  0.94600  0.47030  Biso   1.000  H
  H1221    1.0000 0.95980  0.88390  0.46820  Biso   1.000  H
  C584     1.0000 0.05950  0.96820  0.48341  Biso   1.000  C
  H1222    1.0000 0.05540  0.96620  0.50150  Biso   1.000  H
  H1223    1.0000 0.09860  0.97170  0.47920  Biso   1.000  H
  H1224    1.0000 0.03930  0.99860  0.47720  Biso   1.000  H
  O117     1.0000 0.27880  0.90890  0.74040  Biso   1.000  O
  N177     1.0000 0.35390  0.95100  0.72790  Biso   1.000  N
  C585     1.0000 0.29970  0.94840  0.73090  Biso   1.000  C
  C586     1.0000 0.26520  0.99720  0.72790  Biso   1.000  C
  H1225    1.0000 0.26350  0.01580  0.74380  Biso   1.000  H
  H1226    1.0000 0.22780  0.98950  0.72210  Biso   1.000  H
  H1227    1.0000 0.28410  0.01890  0.71550  Biso   1.000  H
  C587     1.0000 0.38700  0.90460  0.73250  Biso   1.000  C
  H1228    1.0000 0.36680  0.88350  0.74460  Biso   1.000  H
  H1229    1.0000 0.42320  0.91380  0.73940  Biso   1.000  H
  H1230    1.0000 0.39200  0.88470  0.71710  Biso   1.000  H
  C588     1.0000 0.38490  0.99330  0.71670  Biso   1.000  C
  H1231    1.0000 0.39500  0.98530  0.69940  Biso   1.000  H
  H1232    1.0000 0.41840  0.99710  0.72670  Biso   1.000  H
  H1233    1.0000 0.36380  0.02590  0.71720  Biso   1.000  H
  O118     1.0000 0.29320  0.90230  0.73970  Biso   1.000  O
  N178     1.0000 0.33760  0.97130  0.72470  Biso   1.000  N
  C589     1.0000 0.33780  0.92450  0.73530  Biso   1.000  C
  C590     1.0000 0.38930  0.90660  0.74880  Biso   1.000  C
  H1234    1.0000 0.38980  0.91630  0.76640  Biso   1.000  H
  H1235    1.0000 0.41870  0.92520  0.74000  Biso   1.000  H
  H1236    1.0000 0.39520  0.86890  0.74720  Biso   1.000  H
  C591     1.0000 0.28520  0.99220  0.71600  Biso   1.000  C
  H1237    1.0000 0.25780  0.97010  0.72420  Biso   1.000  H
  H1238    1.0000 0.27970  0.99070  0.69790  Biso   1.000  H
  H1239    1.0000 0.28100  0.02830  0.72170  Biso   1.000  H
  C592     1.0000 0.38060  0.01060  0.72660  Biso   1.000  C
  H1240    1.0000 0.37280  0.03840  0.73860  Biso   1.000  H
  H1241    1.0000 0.38080  0.02520  0.70970  Biso   1.000  H
  H1242    1.0000 0.41660  0.99520  0.73030  Biso   1.000  H
  O119     1.0000 0.97630  0.47480  0.73730  Biso   1.000  O
  N179     1.0000 0.89270  0.43890  0.73598  Biso   1.000  N
  C593     1.0000 0.94300  0.44210  0.74535  Biso   1.000  C
  C594     1.0000 0.96030  0.40380  0.76520  Biso   1.000  C
  H1243    1.0000 0.96370  0.36890  0.75800  Biso   1.000  H
  H1244    1.0000 0.93300  0.40320  0.77860  Biso   1.000  H
  H1245    1.0000 0.99610  0.41470  0.77200  Biso   1.000  H
  C595     1.0000 0.87530  0.47550  0.71680  Biso   1.000  C
  H1246    1.0000 0.86170  0.50750  0.72470  Biso   1.000  H
  H1247    1.0000 0.84570  0.45960  0.70700  Biso   1.000  H
  H1248    1.0000 0.90640  0.48380  0.70590  Biso   1.000  H
  C596     1.0000 0.84800  0.40610  0.74490  Biso   1.000  C
  H1249    1.0000 0.85740  0.39280  0.76150  Biso   1.000  H
  H1250    1.0000 0.84430  0.37690  0.73330  Biso   1.000  H
  H1251    1.0000 0.81310  0.42530  0.74580  Biso   1.000  H
  O120     1.0000 0.96650  0.47820  0.73300  Biso   1.000  O
  N180     1.0000 0.90540  0.41980  0.74700  Biso   1.000  N
  C597     1.0000 0.92000  0.45810  0.73190  Biso   1.000  C
  C598     1.0000 0.88310  0.47040  0.70990  Biso   1.000  C
  H1252    1.0000 0.84710  0.48160  0.71620  Biso   1.000  H
  H1253    1.0000 0.87850  0.43980  0.69920  Biso   1.000  H
  H1254    1.0000 0.89980  0.49880  0.70030  Biso   1.000  H
  C599     1.0000 0.94370  0.40080  0.76580  Biso   1.000  C
  H1255    1.0000 0.94460  0.36260  0.76530  Biso   1.000  H
  H1256    1.0000 0.93200  0.41250  0.78230  Biso   1.000  H
  H1257    1.0000 0.98060  0.41450  0.76220  Biso   1.000  H
  C600     1.0000 0.85850  0.38520  0.74340  Biso   1.000  C
  H1258    1.0000 0.82600  0.40640  0.73970  Biso   1.000  H
  H1259    1.0000 0.85200  0.36510  0.75860  Biso   1.000  H
  H1260    1.0000 0.86540  0.36120  0.72950  Biso   1.000  H
  O121     1.0000 0.88820  0.81040  0.90240  Biso   1.000  O
  N181     1.0000 0.79780  0.79380  0.90213  Biso   1.000  N
  C601     1.0000 0.84790  0.78850  0.89277  Biso   1.000  C
  C602     1.0000 0.85510  0.75930  0.86850  Biso   1.000  C
  H1261    1.0000 0.83610  0.77950  0.85570  Biso   1.000  H
  H1262    1.0000 0.83870  0.72450  0.86960  Biso   1.000  H
  H1263    1.0000 0.89420  0.75610  0.86420  Biso   1.000  H
  C603     1.0000 0.78990  0.82310  0.92510  Biso   1.000  C
  H1264    1.0000 0.77720  0.79890  0.93790  Biso   1.000  H
  H1265    1.0000 0.76280  0.85110  0.92300  Biso   1.000  H
  H1266    1.0000 0.82540  0.83810  0.93000  Biso   1.000  H
  C604     1.0000 0.74890  0.76500  0.89460  Biso   1.000  C
  H1267    1.0000 0.72730  0.78670  0.88320  Biso   1.000  H
  H1268    1.0000 0.72670  0.75670  0.90930  Biso   1.000  H
  H1269    1.0000 0.75950  0.73260  0.88620  Biso   1.000  H
  O122     1.0000 0.88340  0.80870  0.90933  Biso   1.000  O
  N182     1.0000 0.81110  0.78220  0.88681  Biso   1.000  N
  C605     1.0000 0.83300  0.80140  0.90741  Biso   1.000  C
  C606     1.0000 0.79650  0.80870  0.93001  Biso   1.000  C
  H1270    1.0000 0.79280  0.77570  0.93900  Biso   1.000  H
  H1271    1.0000 0.76010  0.82040  0.92450  Biso   1.000  H
  H1272    1.0000 0.81270  0.83500  0.94100  Biso   1.000  H
  C607     1.0000 0.84650  0.76940  0.86581  Biso   1.000  C
  H1273    1.0000 0.88140  0.78830  0.86750  Biso   1.000  H
  H1274    1.0000 0.82880  0.77890  0.85010  Biso   1.000  H
  H1275    1.0000 0.85370  0.73180  0.86600  Biso   1.000  H
  C608     1.0000 0.75520  0.76250  0.88386  Biso   1.000  C
  H1276    1.0000 0.75240  0.72860  0.89220  Biso   1.000  H
  H1277    1.0000 0.74680  0.75850  0.86610  Biso   1.000  H
  H1278    1.0000 0.72900  0.78690  0.89140  Biso   1.000  H
  O123     1.0000 0.94186  0.92950  0.90313  Biso   1.000  O
  N183     1.0000 0.87260  0.97200  0.92166  Biso   1.000  N
  C609     1.0000 0.89310  0.94430  0.90311  Biso   1.000  C
  C610     1.0000 0.85630  0.93180  0.88120  Biso   1.000  C
  H1279    1.0000 0.87810  0.91480  0.86820  Biso   1.000  H
  H1280    1.0000 0.84150  0.96470  0.87480  Biso   1.000  H
  H1281    1.0000 0.82590  0.90900  0.88610  Biso   1.000  H
  C611     1.0000 0.90600  0.98360  0.94346  Biso   1.000  C
  H1282    1.0000 0.88580  0.97390  0.95850  Biso   1.000  H
  H1283    1.0000 0.91460  0.02090  0.94400  Biso   1.000  H
  H1284    1.0000 0.94020  0.96350  0.94250  Biso   1.000  H
  C612     1.0000 0.81840  0.99630  0.92210  Biso   1.000  C
  H1285    1.0000 0.81770  0.02710  0.91140  Biso   1.000  H
  H1286    1.0000 0.80980  0.00650  0.93920  Biso   1.000  H
  H1287    1.0000 0.79090  0.97110  0.91630  Biso   1.000  H
  O124     1.0000 0.94540  0.93380  0.91360  Biso   1.000  O
  N184     1.0000 0.85830  0.96050  0.90880  Biso   1.000  N
  C613     1.0000 0.90550  0.95960  0.92120  Biso   1.000  C
  C614     1.0000 0.91340  0.99710  0.94270  Biso   1.000  C
  H1288    1.0000 0.95180  0.99690  0.94830  Biso   1.000  H
  H1289    1.0000 0.88970  0.98330  0.95590  Biso   1.000  H
  H1290    1.0000 0.90230  0.03290  0.93880  Biso   1.000  H
  C615     1.0000 0.85330  0.93300  0.88530  Biso   1.000  C
  H1291    1.0000 0.88350  0.90770  0.88410  Biso   1.000  H
  H1292    1.0000 0.85440  0.95630  0.87080  Biso   1.000  H
  H1293    1.0000 0.81800  0.91440  0.88550  Biso   1.000  H
  C616     1.0000 0.80890  0.98920  0.91560  Biso   1.000  C
  H1294    1.0000 0.79460  0.97790  0.93180  Biso   1.000  H
  H1295    1.0000 0.78050  0.98440  0.90290  Biso   1.000  H
  H1296    1.0000 0.81910  0.02610  0.91650  Biso   1.000  H
  O125     1.0000 0.35361  0.67140  0.58340  Biso   1.000  O
  N185     1.0000 0.42348  0.70290  0.56085  Biso   1.000  N
  C617     1.0000 0.40280  0.68470  0.58189  Biso   1.000  C
  C618     1.0000 0.44080  0.67620  0.60383  Biso   1.000  C
  H1297    1.0000 0.42020  0.66070  0.61760  Biso   1.000  H
  H1298    1.0000 0.47100  0.65280  0.59900  Biso   1.000  H
  H1299    1.0000 0.45610  0.70980  0.60900  Biso   1.000  H
  C619     1.0000 0.38760  0.71140  0.53952  Biso   1.000  C
  H1300    1.0000 0.37830  0.74840  0.53810  Biso   1.000  H
  H1301    1.0000 0.40640  0.69990  0.52440  Biso   1.000  H
  H1302    1.0000 0.35380  0.69110  0.54180  Biso   1.000  H
  C620     1.0000 0.47960  0.72080  0.55671  Biso   1.000  C
  H1303    1.0000 0.49640  0.70060  0.54320  Biso   1.000  H
  H1304    1.0000 0.47910  0.75780  0.55220  Biso   1.000  H
  H1305    1.0000 0.50120  0.71610  0.57200  Biso   1.000  H
  O126     1.0000 0.34670  0.81920  0.08310  Biso   1.000  O
  N186     1.0000 0.43590  0.80400  0.07540  Biso   1.000  N
  C621     1.0000 0.38350  0.80510  0.06850  Biso   1.000  C
  C622     1.0000 0.36830  0.78570  0.04280  Biso   1.000  C
  H1306    1.0000 0.37990  0.74920  0.04150  Biso   1.000  H
  H1307    1.0000 0.38720  0.80630  0.03010  Biso   1.000  H
  H1308    1.0000 0.32840  0.78810  0.04040  Biso   1.000  H
  C623     1.0000 0.45140  0.82100  0.10030  Biso   1.000  C
  H1309    1.0000 0.42120  0.84210  0.10700  Biso   1.000  H
  H1310    1.0000 0.48470  0.84240  0.09910  Biso   1.000  H
  H1311    1.0000 0.45840  0.79140  0.11140  Biso   1.000  H
  C624     1.0000 0.48030  0.77720  0.06250  Biso   1.000  C
  H1312    1.0000 0.46640  0.76180  0.04700  Biso   1.000  H
  H1313    1.0000 0.49490  0.74960  0.07330  Biso   1.000  H
  H1314    1.0000 0.50980  0.80210  0.05860  Biso   1.000  H
  O127     1.0000 0.30650  0.53720  0.56758  Biso   1.000  O
  N187     1.0000 0.38480  0.49590  0.57756  Biso   1.000  N
  C625     1.0000 0.33920  0.50070  0.56427  Biso   1.000  C
  C626     1.0000 0.32990  0.46330  0.54288  Biso   1.000  C
  H1315    1.0000 0.30210  0.47760  0.53160  Biso   1.000  H
  H1316    1.0000 0.36470  0.45870  0.53390  Biso   1.000  H
  H1317    1.0000 0.31730  0.42960  0.54920  Biso   1.000  H
  C627     1.0000 0.39460  0.53010  0.59869  Biso   1.000  C
  H1318    1.0000 0.36360  0.55430  0.60040  Biso   1.000  H
  H1319    1.0000 0.39810  0.50930  0.61390  Biso   1.000  H
  H1320    1.0000 0.42860  0.54990  0.59600  Biso   1.000  H
  C628     1.0000 0.42460  0.45370  0.57560  Biso   1.000  C
  H1321    1.0000 0.42360  0.44170  0.55830  Biso   1.000  H
  H1322    1.0000 0.46090  0.46880  0.57910  Biso   1.000  H
  H1323    1.0000 0.41790  0.42430  0.58680  Biso   1.000  H
  O128     1.0000 0.30370  0.96630  0.07440  Biso   1.000  O
  N188     1.0000 0.36850  0.02600  0.06670  Biso   1.000  N
  C629     1.0000 0.35060  0.98380  0.07840  Biso   1.000  C
  C630     1.0000 0.39060  0.95300  0.09420  Biso   1.000  C
  H1324    1.0000 0.38970  0.96630  0.11130  Biso   1.000  H
  H1325    1.0000 0.42790  0.95680  0.08750  Biso   1.000  H
  H1326    1.0000 0.38020  0.91610  0.09420  Biso   1.000  H
  C631     1.0000 0.33080  0.05620  0.05140  Biso   1.000  C
  H1327    1.0000 0.30170  0.03300  0.04540  Biso   1.000  H
  H1328    1.0000 0.35090  0.07080  0.03720  Biso   1.000  H
  H1329    1.0000 0.31440  0.08460  0.06110  Biso   1.000  H
  C632     1.0000 0.42160  0.05120  0.07040  Biso   1.000  C
  H1330    1.0000 0.41150  0.08250  0.07980  Biso   1.000  H
  H1331    1.0000 0.44130  0.06140  0.05520  Biso   1.000  H
  H1332    1.0000 0.44550  0.02900  0.08060  Biso   1.000  H
  O129     1.0000 0.94070  0.94160  0.57570  Biso   1.000  O
  N189     1.0000 0.87460  0.99260  0.59178  Biso   1.000  N
  C633     1.0000 0.89280  0.95850  0.57523  Biso   1.000  C
  C634     1.0000 0.85380  0.94020  0.55507  Biso   1.000  C
  H1333    1.0000 0.87360  0.91820  0.54320  Biso   1.000  H
  H1334    1.0000 0.82340  0.92030  0.56250  Biso   1.000  H
  H1335    1.0000 0.83890  0.97070  0.54640  Biso   1.000  H
  C635     1.0000 0.91160  0.01450  0.61030  Biso   1.000  C
  H1336    1.0000 0.94650  0.99520  0.60980  Biso   1.000  H
  H1337    1.0000 0.91860  0.05150  0.60710  Biso   1.000  H
  H1338    1.0000 0.89480  0.01060  0.62680  Biso   1.000  H
  C636     1.0000 0.82060  0.01750  0.59128  Biso   1.000  C
  H1339    1.0000 0.79390  0.99420  0.58330  Biso   1.000  H
  H1340    1.0000 0.80870  0.02500  0.60830  Biso   1.000  H
  H1341    1.0000 0.82290  0.05010  0.58180  Biso   1.000  H
  O130     1.0000 0.94450  0.54850  0.07900  Biso   1.000  O
  N190     1.0000 0.85640  0.52310  0.08081  Biso   1.000  N
  C637     1.0000 0.90790  0.52190  0.08900  Biso   1.000  C
  C638     1.0000 0.92270  0.48500  0.10990  Biso   1.000  C
  H1342    1.0000 0.96240  0.47800  0.11000  Biso   1.000  H
  H1343    1.0000 0.90250  0.45230  0.10730  Biso   1.000  H
  H1344    1.0000 0.91190  0.50020  0.12590  Biso   1.000  H
  C639     1.0000 0.84170  0.55620  0.05990  Biso   1.000  C
  H1345    1.0000 0.87410  0.56010  0.04910  Biso   1.000  H
  H1346    1.0000 0.83030  0.59060  0.06600  Biso   1.000  H
  H1347    1.0000 0.81150  0.54060  0.05040  Biso   1.000  H
  C640     1.0000 0.80930  0.49700  0.09200  Biso   1.000  C
  H1348    1.0000 0.81970  0.48260  0.10820  Biso   1.000  H
  H1349    1.0000 0.79750  0.46870  0.08090  Biso   1.000  H
  H1350    1.0000 0.77900  0.52180  0.09410  Biso   1.000  H
  K31      1.0000 0.74230  0.68679  0.26158  Biso   1.000  K
  K32      1.0000 0.47431  0.92261  0.27390  Biso   1.000  K
  K33      1.0000 0.48605  0.66127  0.09362  Biso   1.000  K
  K34      1.0000 0.75912  0.87994  0.10943  Biso   1.000  K
  K35      1.0000 0.76056  0.87251  0.42755  Biso   1.000  K
  K36      1.0000 0.48700  0.64133  0.44070  Biso   1.000  K
  Zn16     1.0000 0.59941  0.76871  0.34986  Biso   1.000  Zn
  O131     1.0000 0.52082  0.66363  0.39794  Biso   1.000  O
  O132     1.0000 0.69771  0.87313  0.39012  Biso   1.000  O
  O133     1.0000 0.67423  0.67213  0.29706  Biso   1.000  O
  O134     1.0000 0.50264  0.88260  0.31456  Biso   1.000  O
  N191     1.0000 0.57070  0.72737  0.37819  Biso   1.000  N
  N192     1.0000 0.64339  0.80674  0.37529  Biso   1.000  N
  N193     1.0000 0.61838  0.72688  0.31991  Biso   1.000  N
  N194     1.0000 0.56045  0.81585  0.32646  Biso   1.000  N
  N195     1.0000 0.51032  0.67740  0.35601  Biso   1.000  N
  H1351    1.0000 0.51430  0.70060  0.34410  Biso   1.000  H
  N196     1.0000 0.70240  0.84940  0.34977  Biso   1.000  N
  H1352    1.0000 0.69300  0.82510  0.33910  Biso   1.000  H
  N197     1.0000 0.66121  0.65836  0.33866  Biso   1.000  N
  H1353    1.0000 0.64750  0.67140  0.35250  Biso   1.000  H
  N198     1.0000 0.53823  0.88008  0.35396  Biso   1.000  N
  H1354    1.0000 0.55310  0.85960  0.36520  Biso   1.000  H
  C641     1.0000 0.46630  0.63380  0.32248  Biso   1.000  C
  H1355    1.0000 0.44280  0.66420  0.31930  Biso   1.000  H
  H1356    1.0000 0.44710  0.60210  0.31720  Biso   1.000  H
  H1357    1.0000 0.50080  0.63740  0.31320  Biso   1.000  H
  C642     1.0000 0.47887  0.63035  0.35010  Biso   1.000  C
  C643     1.0000 0.51260  0.58150  0.35563  Biso   1.000  C
  H1358    1.0000 0.52210  0.58060  0.37330  Biso   1.000  H
  H1359    1.0000 0.54650  0.58200  0.34570  Biso   1.000  H
  H1360    1.0000 0.49100  0.55050  0.35140  Biso   1.000  H
  C644     1.0000 0.42500  0.62830  0.36478  Biso   1.000  C
  H1361    1.0000 0.40480  0.66090  0.36250  Biso   1.000  H
  H1362    1.0000 0.43320  0.62340  0.38250  Biso   1.000  H
  H1363    1.0000 0.40260  0.59910  0.35880  Biso   1.000  H
  C645     1.0000 0.53444  0.68860  0.37880  Biso   1.000  C
  C646     1.0000 0.59834  0.74205  0.40127  Biso   1.000  C
  H1364    1.0000 0.62920  0.71770  0.40450  Biso   1.000  H
  H1365    1.0000 0.57210  0.73930  0.41530  Biso   1.000  H
  C647     1.0000 0.62038  0.79732  0.39984  Biso   1.000  C
  H1366    1.0000 0.59020  0.82240  0.40310  Biso   1.000  H
  H1367    1.0000 0.64920  0.80240  0.41260  Biso   1.000  H
  C648     1.0000 0.68093  0.84460  0.37325  Biso   1.000  C
  C649     1.0000 0.73860  0.88960  0.34054  Biso   1.000  C
  C650     1.0000 0.74760  0.87950  0.31305  Biso   1.000  C
  H1368    1.0000 0.76490  0.84530  0.31080  Biso   1.000  H
  H1369    1.0000 0.77160  0.90660  0.30610  Biso   1.000  H
  H1370    1.0000 0.71200  0.88010  0.30440  Biso   1.000  H
  C651     1.0000 0.71170  0.94170  0.34375  Biso   1.000  C
  H1371    1.0000 0.70460  0.94790  0.36140  Biso   1.000  H
  H1372    1.0000 0.67680  0.94230  0.33460  Biso   1.000  H
  H1373    1.0000 0.73610  0.96900  0.33730  Biso   1.000  H
  C652     1.0000 0.79260  0.88940  0.35370  Biso   1.000  C
  H1374    1.0000 0.80870  0.85450  0.35280  Biso   1.000  H
  H1375    1.0000 0.78700  0.89920  0.37110  Biso   1.000  H
  H1376    1.0000 0.81740  0.91450  0.34580  Biso   1.000  H
  C653     1.0000 0.68620  0.59160  0.36767  Biso   1.000  C
  H1377    1.0000 0.70310  0.61760  0.37860  Biso   1.000  H
  H1378    1.0000 0.70490  0.55810  0.36990  Biso   1.000  H
  H1379    1.0000 0.64720  0.58790  0.37190  Biso   1.000  H
  C654     1.0000 0.69180  0.60900  0.34066  Biso   1.000  C
  C655     1.0000 0.75290  0.61770  0.33453  Biso   1.000  C
  H1380    1.0000 0.75650  0.62910  0.31720  Biso   1.000  H
  H1381    1.0000 0.77320  0.58500  0.33690  Biso   1.000  H
  H1382    1.0000 0.76810  0.64440  0.34560  Biso   1.000  H
  C656     1.0000 0.66840  0.56760  0.32357  Biso   1.000  C
  H1383    1.0000 0.67170  0.57910  0.30630  Biso   1.000  H
  H1384    1.0000 0.62950  0.56180  0.32760  Biso   1.000  H
  H1385    1.0000 0.68900  0.53510  0.32580  Biso   1.000  H
  C657     1.0000 0.65200  0.68620  0.31700  Biso   1.000  C
  C658     1.0000 0.60650  0.75750  0.29757  Biso   1.000  C
  H1386    1.0000 0.60000  0.73400  0.28330  Biso   1.000  H
  H1387    1.0000 0.63830  0.78020  0.29360  Biso   1.000  H
  C659     1.0000 0.55550  0.79060  0.30237  Biso   1.000  C
  H1388    1.0000 0.55170  0.81730  0.28920  Biso   1.000  H
  H1389    1.0000 0.52220  0.76830  0.30210  Biso   1.000  H
  C660     1.0000 0.53267  0.85980  0.33034  Biso   1.000  C
  C661     1.0000 0.52180  0.93240  0.36209  Biso   1.000  C
  C662     1.0000 0.54270  0.93830  0.38857  Biso   1.000  C
  H1390    1.0000 0.58280  0.93450  0.38880  Biso   1.000  H
  H1391    1.0000 0.52590  0.91140  0.39910  Biso   1.000  H
  H1392    1.0000 0.53260  0.97280  0.39490  Biso   1.000  H
  C663     1.0000 0.45870  0.93730  0.36192  Biso   1.000  C
  H1393    1.0000 0.44270  0.91080  0.37290  Biso   1.000  H
  H1394    1.0000 0.44500  0.93220  0.34500  Biso   1.000  H
  H1395    1.0000 0.44810  0.97200  0.36780  Biso   1.000  H
  C664     1.0000 0.54690  0.97460  0.34570  Biso   1.000  C
  H1396    1.0000 0.58710  0.97100  0.34560  Biso   1.000  H
  H1397    1.0000 0.53690  0.00890  0.35220  Biso   1.000  H
  H1398    1.0000 0.53280  0.97100  0.32870  Biso   1.000  H
  Zn17     1.0000 0.60421  0.81104  0.18080  Biso   1.000  Zn
  O135     1.0000 0.71168  0.70776  0.21717  Biso   1.000  O
  O136     1.0000 0.51759  0.89959  0.23367  Biso   1.000  O
  O137     1.0000 0.52010  0.71461  0.13017  Biso   1.000  O
  O138     1.0000 0.69737  0.92326  0.14338  Biso   1.000  O
  N199     1.0000 0.64522  0.76608  0.20455  Biso   1.000  N
  N200     1.0000 0.57108  0.84345  0.21054  Biso   1.000  N
  N201     1.0000 0.57361  0.77401  0.15151  Biso   1.000  N
  N202     1.0000 0.63616  0.85983  0.15595  Biso   1.000  N
  N203     1.0000 0.69170  0.71782  0.17600  Biso   1.000  N
  H1399    1.0000 0.67120  0.73460  0.16520  Biso   1.000  H
  N204     1.0000 0.49969  0.88743  0.19231  Biso   1.000  N
  H1400    1.0000 0.50220  0.86480  0.18010  Biso   1.000  H
  N205     1.0000 0.52935  0.70936  0.17270  Biso   1.000  N
  H1401    1.0000 0.53240  0.72870  0.18610  Biso   1.000  H
  N206     1.0000 0.65904  0.92585  0.18228  Biso   1.000  N
  H1402    1.0000 0.64120  0.90760  0.19350  Biso   1.000  H
  C665     1.0000 0.72150  0.68060  0.13774  Biso   1.000  C
  H1403    1.0000 0.72960  0.71540  0.13120  Biso   1.000  H
  H1404    1.0000 0.68310  0.67160  0.13410  Biso   1.000  H
  H1405    1.0000 0.74600  0.65510  0.12980  Biso   1.000  H
  C666     1.0000 0.73070  0.67990  0.16587  Biso   1.000  C
  C667     1.0000 0.78970  0.69640  0.17184  Biso   1.000  C
  H1406    1.0000 0.79410  0.69970  0.18990  Biso   1.000  H
  H1407    1.0000 0.79760  0.72990  0.16390  Biso   1.000  H
  H1408    1.0000 0.81540  0.67000  0.16560  Biso   1.000  H
  C668     1.0000 0.72030  0.62590  0.17564  Biso   1.000  C
  H1409    1.0000 0.72730  0.62510  0.19360  Biso   1.000  H
  H1410    1.0000 0.74500  0.60120  0.16730  Biso   1.000  H
  H1411    1.0000 0.68200  0.61610  0.17240  Biso   1.000  H
  C669     1.0000 0.68370  0.73000  0.20059  Biso   1.000  C
  C670     1.0000 0.63110  0.77910  0.22999  Biso   1.000  C
  H1412    1.0000 0.66490  0.77820  0.24030  Biso   1.000  H
  H1413    1.0000 0.60550  0.75240  0.23660  Biso   1.000  H
  C671     1.0000 0.60510  0.83130  0.23222  Biso   1.000  C
  H1414    1.0000 0.58200  0.83220  0.24740  Biso   1.000  H
  H1415    1.0000 0.63420  0.85800  0.23400  Biso   1.000  H
  C672     1.0000 0.52980  0.87710  0.21364  Biso   1.000  C
  C673     1.0000 0.46390  0.93300  0.18845  Biso   1.000  C
  C674     1.0000 0.45020  0.93380  0.16102  Biso   1.000  C
  H1416    1.0000 0.48420  0.93680  0.15130  Biso   1.000  H
  H1417    1.0000 0.42630  0.96370  0.15740  Biso   1.000  H
  H1418    1.0000 0.43110  0.90150  0.15650  Biso   1.000  H
  C675     1.0000 0.41070  0.92810  0.20364  Biso   1.000  C
  H1419    1.0000 0.39010  0.89740  0.19810  Biso   1.000  H
  H1420    1.0000 0.38810  0.95940  0.20120  Biso   1.000  H
  H1421    1.0000 0.41980  0.92450  0.22130  Biso   1.000  H
  C676     1.0000 0.49310  0.98270  0.19553  Biso   1.000  C
  H1422    1.0000 0.52770  0.98550  0.18620  Biso   1.000  H
  H1423    1.0000 0.50100  0.98250  0.21340  Biso   1.000  H
  H1424    1.0000 0.46950  0.01260  0.19160  Biso   1.000  H
  C677     1.0000 0.51390  0.64560  0.20372  Biso   1.000  C
  H1425    1.0000 0.48720  0.66870  0.21180  Biso   1.000  H
  H1426    1.0000 0.55090  0.65320  0.21000  Biso   1.000  H
  H1427    1.0000 0.50450  0.60930  0.20730  Biso   1.000  H
  C678     1.0000 0.51240  0.65450  0.17578  Biso   1.000  C
  C679     1.0000 0.45360  0.64570  0.16651  Biso   1.000  C
  H1428    1.0000 0.42830  0.66870  0.17550  Biso   1.000  H
  H1429    1.0000 0.44310  0.60930  0.16940  Biso   1.000  H
  H1430    1.0000 0.45170  0.65330  0.14870  Biso   1.000  H
  C680     1.0000 0.55160  0.61820  0.16253  Biso   1.000  C
  H1431    1.0000 0.54970  0.62450  0.14460  Biso   1.000  H
  H1432    1.0000 0.54120  0.58200  0.16600  Biso   1.000  H
  H1433    1.0000 0.58920  0.62440  0.16840  Biso   1.000  H
  C681     1.0000 0.54077  0.73250  0.14977  Biso   1.000  C
  C682     1.0000 0.58420  0.80350  0.12883  Biso   1.000  C
  H1434    1.0000 0.55330  0.82770  0.12560  Biso   1.000  H
  H1435    1.0000 0.58740  0.77950  0.11450  Biso   1.000  H
  C683     1.0000 0.63778  0.83435  0.13187  Biso   1.000  C
  H1436    1.0000 0.66980  0.81060  0.13090  Biso   1.000  H
  H1437    1.0000 0.64120  0.86060  0.11850  Biso   1.000  H
  C684     1.0000 0.66567  0.90323  0.15926  Biso   1.000  C
  C685     1.0000 0.67890  0.97750  0.18991  Biso   1.000  C
  C686     1.0000 0.65550  0.98620  0.21591  Biso   1.000  C
  H1438    1.0000 0.61520  0.98370  0.21530  Biso   1.000  H
  H1439    1.0000 0.66610  0.02080  0.22190  Biso   1.000  H
  H1440    1.0000 0.67000  0.95960  0.22720  Biso   1.000  H
  C687     1.0000 0.74150  0.97860  0.19083  Biso   1.000  C
  H1441    1.0000 0.75630  0.96820  0.17460  Biso   1.000  H
  H1442    1.0000 0.75450  0.95440  0.20360  Biso   1.000  H
  H1443    1.0000 0.75400  0.01390  0.19480  Biso   1.000  H
  C688     1.0000 0.65780  0.02000  0.17254  Biso   1.000  C
  H1444    1.0000 0.61780  0.01710  0.17090  Biso   1.000  H
  H1445    1.0000 0.67490  0.01590  0.15620  Biso   1.000  H
  H1446    1.0000 0.66730  0.05420  0.17940  Biso   1.000  H
  Zn18     1.0000 0.63460  0.76566  0.01554  Biso   1.000  Zn
  O139     1.0000 0.54054  0.65243  0.05282  Biso   1.000  O
  O140     1.0000 0.72199  0.85850  0.06615  Biso   1.000  O
  O141     1.0000 0.72718  0.82397  0.46551  Biso   1.000  O
  O142     1.0000 0.54557  0.61878  0.47827  Biso   1.000  O
  N207     1.0000 0.59767  0.71842  0.03948  Biso   1.000  N
  N208     1.0000 0.67106  0.79683  0.04500  Biso   1.000  N
  N209     1.0000 0.66878  0.76748  0.48609  Biso   1.000  N
  N210     1.0000 0.60509  0.68225  0.49148  Biso   1.000  N
  N211     1.0000 0.55013  0.66926  0.01131  Biso   1.000  N
  H1447    1.0000 0.57140  0.68410  0.00010  Biso   1.000  H
  N212     1.0000 0.73829  0.84211  0.02478  Biso   1.000  N
  H1448    1.0000 0.74290  0.81550  0.01470  Biso   1.000  H
  N213     1.0000 0.70126  0.84040  0.50576  Biso   1.000  N
  H1449    1.0000 0.69260  0.82500  0.51980  Biso   1.000  H
  N214     1.0000 0.56577  0.62782  0.51963  Biso   1.000  N
  H1450    1.0000 0.58080  0.64810  0.53090  Biso   1.000  H
  C689     1.0000 0.50770  0.64100  0.97371  Biso   1.000  C
  H1451    1.0000 0.50090  0.67730  0.96890  Biso   1.000  H
  H1452    1.0000 0.47940  0.61860  0.96630  Biso   1.000  H
  H1453    1.0000 0.54410  0.63030  0.96770  Biso   1.000  H
  C690     1.0000 0.50560  0.63620  0.00203  Biso   1.000  C
  C691     1.0000 0.51480  0.57980  0.00926  Biso   1.000  C
  H1454    1.0000 0.51780  0.57710  0.02740  Biso   1.000  H
  H1455    1.0000 0.54900  0.56710  0.00160  Biso   1.000  H
  H1456    1.0000 0.48380  0.55860  0.00350  Biso   1.000  H
  C692     1.0000 0.45000  0.65450  0.01159  Biso   1.000  C
  H1457    1.0000 0.44490  0.69140  0.00740  Biso   1.000  H
  H1458    1.0000 0.44860  0.65030  0.02970  Biso   1.000  H
  H1459    1.0000 0.42070  0.63380  0.00390  Biso   1.000  H
  C693     1.0000 0.56195  0.67950  0.03594  Biso   1.000  C
  C694     1.0000 0.61865  0.72684  0.06463  Biso   1.000  C
  H1460    1.0000 0.64820  0.70130  0.06820  Biso   1.000  H
  H1461    1.0000 0.58860  0.72120  0.07680  Biso   1.000  H
  C695     1.0000 0.64125  0.78192  0.06751  Biso   1.000  C
  H1462    1.0000 0.61060  0.80650  0.07040  Biso   1.000  H
  H1463    1.0000 0.66630  0.78340  0.08200  Biso   1.000  H
  C696     1.0000 0.70919  0.83376  0.04681  Biso   1.000  C
  C697     1.0000 0.76160  0.89241  0.01734  Biso   1.000  C
  C698     1.0000 0.77890  0.88620  0.99026  Biso   1.000  C
  H1464    1.0000 0.80610  0.85810  0.98890  Biso   1.000  H
  H1465    1.0000 0.79520  0.91880  0.98430  Biso   1.000  H
  H1466    1.0000 0.74660  0.87760  0.98020  Biso   1.000  H
  C699     1.0000 0.81170  0.90660  0.03282  Biso   1.000  C
  H1467    1.0000 0.83980  0.87950  0.03100  Biso   1.000  H
  H1468    1.0000 0.80100  0.90940  0.05030  Biso   1.000  H
  H1469    1.0000 0.82660  0.94000  0.02710  Biso   1.000  H
  C700     1.0000 0.71720  0.93470  0.01922  Biso   1.000  C
  H1470    1.0000 0.68520  0.92460  0.00930  Biso   1.000  H
  H1471    1.0000 0.73200  0.96770  0.01290  Biso   1.000  H
  H1472    1.0000 0.70620  0.93900  0.03660  Biso   1.000  H
  C701     1.0000 0.70220  0.91380  0.53298  Biso   1.000  C
  H1473    1.0000 0.72430  0.89390  0.54490  Biso   1.000  H
  H1474    1.0000 0.71060  0.95100  0.53460  Biso   1.000  H
  H1475    1.0000 0.66300  0.90800  0.53630  Biso   1.000  H
  C702     1.0000 0.71580  0.89590  0.50673  Biso   1.000  C
  C703     1.0000 0.77810  0.90240  0.50187  Biso   1.000  C
  H1476    1.0000 0.78680  0.89020  0.48510  Biso   1.000  H
  H1477    1.0000 0.78810  0.93920  0.50340  Biso   1.000  H
  H1478    1.0000 0.79880  0.88180  0.51400  Biso   1.000  H
  C704     1.0000 0.68280  0.92750  0.48771  Biso   1.000  C
  H1479    1.0000 0.69080  0.91470  0.47090  Biso   1.000  H
  H1480    1.0000 0.64340  0.92380  0.49110  Biso   1.000  H
  H1481    1.0000 0.69320  0.96430  0.48890  Biso   1.000  H
  C705     1.0000 0.70009  0.81040  0.48422  Biso   1.000  C
  C706     1.0000 0.66570  0.73250  0.46485  Biso   1.000  C
  H1482    1.0000 0.66720  0.75270  0.44920  Biso   1.000  H
  H1483    1.0000 0.69730  0.70800  0.46510  Biso   1.000  H
  C707     1.0000 0.61210  0.70240  0.46632  Biso   1.000  C
  H1484    1.0000 0.61260  0.67320  0.45430  Biso   1.000  H
  H1485    1.0000 0.58090  0.72560  0.46210  Biso   1.000  H
  C708     1.0000 0.57140  0.64250  0.49498  Biso   1.000  C
  C709     1.0000 0.53660  0.58100  0.52839  Biso   1.000  C
  C710     1.0000 0.54640  0.57950  0.55651  Biso   1.000  C
  H1486    1.0000 0.53130  0.61110  0.56410  Biso   1.000  H
  H1487    1.0000 0.52810  0.54880  0.56360  Biso   1.000  H
  H1488    1.0000 0.58600  0.57760  0.55980  Biso   1.000  H
  C711     1.0000 0.47450  0.58510  0.52339  Biso   1.000  C
  H1489    1.0000 0.46810  0.58810  0.50550  Biso   1.000  H
  H1490    1.0000 0.45590  0.55400  0.52970  Biso   1.000  H
  H1491    1.0000 0.45980  0.61610  0.53180  Biso   1.000  H
  C712     1.0000 0.55950  0.53180  0.51659  Biso   1.000  C
  H1492    1.0000 0.55540  0.53380  0.49850  Biso   1.000  H
  H1493    1.0000 0.59860  0.52830  0.52080  Biso   1.000  H
  H1494    1.0000 0.53930  0.50140  0.52280  Biso   1.000  H
  O143     1.0000 0.77880  0.59110  0.25960  Biso   1.000  O
  N215     1.0000 0.85390  0.54900  0.27210  Biso   1.000  N
  C713     1.0000 0.79970  0.55160  0.26910  Biso   1.000  C
  C714     1.0000 0.76520  0.50280  0.27210  Biso   1.000  C
  H1495    1.0000 0.76350  0.48420  0.25620  Biso   1.000  H
  H1496    1.0000 0.72780  0.51050  0.27790  Biso   1.000  H
  H1497    1.0000 0.78410  0.48110  0.28450  Biso   1.000  H
  C715     1.0000 0.88700  0.59540  0.26750  Biso   1.000  C
  H1498    1.0000 0.86680  0.61650  0.25540  Biso   1.000  H
  H1499    1.0000 0.92320  0.58620  0.26060  Biso   1.000  H
  H1500    1.0000 0.89200  0.61530  0.28290  Biso   1.000  H
  C716     1.0000 0.88490  0.50670  0.28330  Biso   1.000  C
  H1501    1.0000 0.89500  0.51470  0.30060  Biso   1.000  H
  H1502    1.0000 0.91840  0.50290  0.27330  Biso   1.000  H
  H1503    1.0000 0.86380  0.47410  0.28280  Biso   1.000  H
  O144     1.0000 0.79320  0.59770  0.26030  Biso   1.000  O
  N216     1.0000 0.83760  0.52870  0.27530  Biso   1.000  N
  C717     1.0000 0.83780  0.57550  0.26470  Biso   1.000  C
  C718     1.0000 0.88930  0.59340  0.25120  Biso   1.000  C
  H1504    1.0000 0.88980  0.58370  0.23360  Biso   1.000  H
  H1505    1.0000 0.91870  0.57480  0.26000  Biso   1.000  H
  H1506    1.0000 0.89520  0.63110  0.25280  Biso   1.000  H
  C719     1.0000 0.78520  0.50780  0.28400  Biso   1.000  C
  H1507    1.0000 0.75780  0.52990  0.27580  Biso   1.000  H
  H1508    1.0000 0.77970  0.50930  0.30210  Biso   1.000  H
  H1509    1.0000 0.78100  0.47170  0.27830  Biso   1.000  H
  C720     1.0000 0.88060  0.48940  0.27340  Biso   1.000  C
  H1510    1.0000 0.87280  0.46160  0.26140  Biso   1.000  H
  H1511    1.0000 0.88080  0.47480  0.29030  Biso   1.000  H
  H1512    1.0000 0.91660  0.50480  0.26970  Biso   1.000  H
  O145     1.0000 0.47630  0.02520  0.26270  Biso   1.000  O
  N217     1.0000 0.39270  0.06110  0.26402  Biso   1.000  N
  C721     1.0000 0.44300  0.05790  0.25465  Biso   1.000  C
  C722     1.0000 0.46030  0.09620  0.23480  Biso   1.000  C
  H1513    1.0000 0.46370  0.13110  0.24200  Biso   1.000  H
  H1514    1.0000 0.43300  0.09680  0.22140  Biso   1.000  H
  H1515    1.0000 0.49610  0.08530  0.22800  Biso   1.000  H
  C723     1.0000 0.37530  0.02450  0.28320  Biso   1.000  C
  H1516    1.0000 0.36170  0.99250  0.27530  Biso   1.000  H
  H1517    1.0000 0.34570  0.04040  0.29300  Biso   1.000  H
  H1518    1.0000 0.40640  0.01620  0.29410  Biso   1.000  H
  C724     1.0000 0.34800  0.09390  0.25510  Biso   1.000  C
  H1519    1.0000 0.35740  0.10720  0.23850  Biso   1.000  H
  H1520    1.0000 0.34430  0.12310  0.26670  Biso   1.000  H
  H1521    1.0000 0.31310  0.07470  0.25420  Biso   1.000  H
  O146     1.0000 0.46650  0.02180  0.26700  Biso   1.000  O
  N218     1.0000 0.40540  0.08020  0.25300  Biso   1.000  N
  C725     1.0000 0.42000  0.04190  0.26810  Biso   1.000  C
  C726     1.0000 0.38310  0.02960  0.29010  Biso   1.000  C
  H1522    1.0000 0.34710  0.01840  0.28380  Biso   1.000  H
  H1523    1.0000 0.37850  0.06020  0.30080  Biso   1.000  H
  H1524    1.0000 0.39980  0.00120  0.29970  Biso   1.000  H
  C727     1.0000 0.44370  0.09920  0.23420  Biso   1.000  C
  H1525    1.0000 0.44460  0.13740  0.23470  Biso   1.000  H
  H1526    1.0000 0.43200  0.08750  0.21770  Biso   1.000  H
  H1527    1.0000 0.48060  0.08550  0.23780  Biso   1.000  H
  C728     1.0000 0.35850  0.11480  0.25660  Biso   1.000  C
  H1528    1.0000 0.32600  0.09360  0.26030  Biso   1.000  H
  H1529    1.0000 0.35200  0.13490  0.24140  Biso   1.000  H
  H1530    1.0000 0.36540  0.13880  0.27050  Biso   1.000  H
  O147     1.0000 0.38820  0.68960  0.09760  Biso   1.000  O
  N219     1.0000 0.29780  0.70620  0.09787  Biso   1.000  N
  C729     1.0000 0.34790  0.71150  0.10723  Biso   1.000  C
  C730     1.0000 0.35510  0.74070  0.13150  Biso   1.000  C
  H1531    1.0000 0.33610  0.72050  0.14430  Biso   1.000  H
  H1532    1.0000 0.33870  0.77550  0.13040  Biso   1.000  H
  H1533    1.0000 0.39420  0.74390  0.13580  Biso   1.000  H
  C731     1.0000 0.28990  0.67690  0.07490  Biso   1.000  C
  H1534    1.0000 0.27720  0.70110  0.06210  Biso   1.000  H
  H1535    1.0000 0.26280  0.64890  0.07700  Biso   1.000  H
  H1536    1.0000 0.32540  0.66190  0.07000  Biso   1.000  H
  C732     1.0000 0.24890  0.73500  0.10540  Biso   1.000  C
  H1537    1.0000 0.22730  0.71330  0.11680  Biso   1.000  H
  H1538    1.0000 0.22670  0.74330  0.09070  Biso   1.000  H
  H1539    1.0000 0.25950  0.76740  0.11380  Biso   1.000  H
  O148     1.0000 0.38340  0.69130  0.09067  Biso   1.000  O
  N220     1.0000 0.31110  0.71780  0.11319  Biso   1.000  N
  C733     1.0000 0.33300  0.69860  0.09259  Biso   1.000  C
  C734     1.0000 0.29650  0.69130  0.06999  Biso   1.000  C
  H1540    1.0000 0.29280  0.72430  0.06100  Biso   1.000  H
  H1541    1.0000 0.26010  0.67960  0.07550  Biso   1.000  H
  H1542    1.0000 0.31270  0.66500  0.05900  Biso   1.000  H
  C735     1.0000 0.34650  0.73060  0.13419  Biso   1.000  C
  H1543    1.0000 0.38140  0.71170  0.13250  Biso   1.000  H
  H1544    1.0000 0.32880  0.72110  0.14990  Biso   1.000  H
  H1545    1.0000 0.35370  0.76820  0.13400  Biso   1.000  H
  C736     1.0000 0.25520  0.73750  0.11614  Biso   1.000  C
  H1546    1.0000 0.25240  0.77140  0.10780  Biso   1.000  H
  H1547    1.0000 0.24680  0.74150  0.13390  Biso   1.000  H
  H1548    1.0000 0.22900  0.71310  0.10860  Biso   1.000  H
  O149     1.0000 0.44186  0.57050  0.09687  Biso   1.000  O
  N221     1.0000 0.37260  0.52800  0.07834  Biso   1.000  N
  C737     1.0000 0.39310  0.55570  0.09689  Biso   1.000  C
  C738     1.0000 0.35630  0.56820  0.11880  Biso   1.000  C
  H1549    1.0000 0.37810  0.58520  0.13180  Biso   1.000  H
  H1550    1.0000 0.34150  0.53530  0.12520  Biso   1.000  H
  H1551    1.0000 0.32590  0.59100  0.11390  Biso   1.000  H
  C739     1.0000 0.40600  0.51640  0.05654  Biso   1.000  C
  H1552    1.0000 0.38580  0.52610  0.04150  Biso   1.000  H
  H1553    1.0000 0.41460  0.47910  0.05600  Biso   1.000  H
  H1554    1.0000 0.44020  0.53650  0.05750  Biso   1.000  H
  C740     1.0000 0.31840  0.50370  0.07790  Biso   1.000  C
  H1555    1.0000 0.31770  0.47290  0.08860  Biso   1.000  H
  H1556    1.0000 0.30980  0.49350  0.06080  Biso   1.000  H
  H1557    1.0000 0.29090  0.52890  0.08370  Biso   1.000  H
  O150     1.0000 0.44540  0.56620  0.08640  Biso   1.000  O
  N222     1.0000 0.35830  0.53950  0.09120  Biso   1.000  N
  C741     1.0000 0.40550  0.54040  0.07880  Biso   1.000  C
  C742     1.0000 0.41340  0.50290  0.05730  Biso   1.000  C
  H1558    1.0000 0.45180  0.50310  0.05170  Biso   1.000  H
  H1559    1.0000 0.38970  0.51670  0.04410  Biso   1.000  H
  H1560    1.0000 0.40230  0.46710  0.06120  Biso   1.000  H
  C743     1.0000 0.35330  0.56700  0.11470  Biso   1.000  C
  H1561    1.0000 0.38350  0.59230  0.11590  Biso   1.000  H
  H1562    1.0000 0.35440  0.54370  0.12920  Biso   1.000  H
  H1563    1.0000 0.31800  0.58560  0.11450  Biso   1.000  H
  C744     1.0000 0.30890  0.51080  0.08440  Biso   1.000  C
  H1564    1.0000 0.29460  0.52210  0.06820  Biso   1.000  H
  H1565    1.0000 0.28050  0.51560  0.09710  Biso   1.000  H
  H1566    1.0000 0.31910  0.47390  0.08350  Biso   1.000  H
  O151     1.0000 0.85361  0.82860  0.41660  Biso   1.000  O
  N223     1.0000 0.92348  0.79710  0.43915  Biso   1.000  N
  C745     1.0000 0.90280  0.81530  0.41811  Biso   1.000  C
  C746     1.0000 0.94080  0.82380  0.39617  Biso   1.000  C
  H1567    1.0000 0.92020  0.83930  0.38240  Biso   1.000  H
  H1568    1.0000 0.97100  0.84720  0.40100  Biso   1.000  H
  H1569    1.0000 0.95610  0.79020  0.39100  Biso   1.000  H
  C747     1.0000 0.88760  0.78860  0.46048  Biso   1.000  C
  H1570    1.0000 0.87830  0.75160  0.46190  Biso   1.000  H
  H1571    1.0000 0.90640  0.80010  0.47560  Biso   1.000  H
  H1572    1.0000 0.85380  0.80890  0.45820  Biso   1.000  H
  C748     1.0000 0.97960  0.77920  0.44329  Biso   1.000  C
  H1573    1.0000 0.99640  0.79940  0.45680  Biso   1.000  H
  H1574    1.0000 0.97910  0.74220  0.44780  Biso   1.000  H
  H1575    1.0000 0.00120  0.78390  0.42800  Biso   1.000  H
  O152     1.0000 0.84670  0.68080  0.91690  Biso   1.000  O
  N224     1.0000 0.93590  0.69600  0.92460  Biso   1.000  N
  C749     1.0000 0.88350  0.69490  0.93150  Biso   1.000  C
  C750     1.0000 0.86830  0.71430  0.95720  Biso   1.000  C
  H1576    1.0000 0.87990  0.75080  0.95850  Biso   1.000  H
  H1577    1.0000 0.88720  0.69370  0.96990  Biso   1.000  H
  H1578    1.0000 0.82840  0.71190  0.95960  Biso   1.000  H
  C751     1.0000 0.95140  0.67900  0.89970  Biso   1.000  C
  H1579    1.0000 0.92120  0.65790  0.89300  Biso   1.000  H
  H1580    1.0000 0.98470  0.65760  0.90090  Biso   1.000  H
  H1581    1.0000 0.95840  0.70860  0.88860  Biso   1.000  H
  C752     1.0000 0.98030  0.72280  0.93750  Biso   1.000  C
  H1582    1.0000 0.96640  0.73820  0.95300  Biso   1.000  H
  H1583    1.0000 0.99490  0.75040  0.92670  Biso   1.000  H
  H1584    1.0000 0.00980  0.69790  0.94140  Biso   1.000  H
  O153     1.0000 0.80650  0.96280  0.43242  Biso   1.000  O
  N225     1.0000 0.88480  0.00410  0.42244  Biso   1.000  N
  C753     1.0000 0.83920  0.99930  0.43573  Biso   1.000  C
  C754     1.0000 0.82990  0.03670  0.45712  Biso   1.000  C
  H1585    1.0000 0.80210  0.02240  0.46840  Biso   1.000  H
  H1586    1.0000 0.86470  0.04130  0.46610  Biso   1.000  H
  H1587    1.0000 0.81730  0.07040  0.45080  Biso   1.000  H
  C755     1.0000 0.89460  0.96990  0.40131  Biso   1.000  C
  H1588    1.0000 0.86360  0.94570  0.39960  Biso   1.000  H
  H1589    1.0000 0.89810  0.99070  0.38610  Biso   1.000  H
  H1590    1.0000 0.92860  0.95010  0.40400  Biso   1.000  H
  C756     1.0000 0.92460  0.04630  0.42440  Biso   1.000  C
  H1591    1.0000 0.92360  0.05830  0.44170  Biso   1.000  H
  H1592    1.0000 0.96090  0.03120  0.42090  Biso   1.000  H
  H1593    1.0000 0.91790  0.07570  0.41320  Biso   1.000  H
  O154     1.0000 0.80370  0.53370  0.92560  Biso   1.000  O
  N226     1.0000 0.86850  0.47400  0.93330  Biso   1.000  N
  C757     1.0000 0.85060  0.51620  0.92160  Biso   1.000  C
  C758     1.0000 0.89060  0.54700  0.90580  Biso   1.000  C
  H1594    1.0000 0.88970  0.53370  0.88870  Biso   1.000  H
  H1595    1.0000 0.92790  0.54320  0.91250  Biso   1.000  H
  H1596    1.0000 0.88020  0.58390  0.90580  Biso   1.000  H
  C759     1.0000 0.83080  0.44380  0.94860  Biso   1.000  C
  H1597    1.0000 0.80170  0.46700  0.95460  Biso   1.000  H
  H1598    1.0000 0.85090  0.42920  0.96280  Biso   1.000  H
  H1599    1.0000 0.81440  0.41540  0.93890  Biso   1.000  H
  C760     1.0000 0.92160  0.44880  0.92960  Biso   1.000  C
  H1600    1.0000 0.91150  0.41750  0.92020  Biso   1.000  H
  H1601    1.0000 0.94130  0.43860  0.94480  Biso   1.000  H
  H1602    1.0000 0.94550  0.47100  0.91940  Biso   1.000  H
  O155     1.0000 0.44070  0.55840  0.42430  Biso   1.000  O
  N227     1.0000 0.37460  0.50740  0.40822  Biso   1.000  N
  C761     1.0000 0.39280  0.54150  0.42477  Biso   1.000  C
  C762     1.0000 0.35380  0.55980  0.44493  Biso   1.000  C
  H1603    1.0000 0.37360  0.58180  0.45680  Biso   1.000  H
  H1604    1.0000 0.32340  0.57970  0.43750  Biso   1.000  H
  H1605    1.0000 0.33890  0.52930  0.45360  Biso   1.000  H
  C763     1.0000 0.41160  0.48550  0.38970  Biso   1.000  C
  H1606    1.0000 0.44650  0.50480  0.39020  Biso   1.000  H
  H1607    1.0000 0.41860  0.44850  0.39290  Biso   1.000  H
  H1608    1.0000 0.39480  0.48940  0.37320  Biso   1.000  H
  C764     1.0000 0.32060  0.48250  0.40872  Biso   1.000  C
  H1609    1.0000 0.29390  0.50580  0.41670  Biso   1.000  H
  H1610    1.0000 0.30870  0.47500  0.39170  Biso   1.000  H
  H1611    1.0000 0.32290  0.44990  0.41820  Biso   1.000  H
  O156     1.0000 0.44450  0.95150  0.92100  Biso   1.000  O
  N228     1.0000 0.35640  0.97690  0.91919  Biso   1.000  N
  C765     1.0000 0.40790  0.97810  0.91100  Biso   1.000  C
  C766     1.0000 0.42270  0.01500  0.89010  Biso   1.000  C
  H1612    1.0000 0.46240  0.02200  0.89000  Biso   1.000  H
  H1613    1.0000 0.40250  0.04770  0.89270  Biso   1.000  H
  H1614    1.0000 0.41190  0.99980  0.87410  Biso   1.000  H
  C767     1.0000 0.34170  0.94380  0.94010  Biso   1.000  C
  H1615    1.0000 0.37410  0.93990  0.95090  Biso   1.000  H
  H1616    1.0000 0.33030  0.90940  0.93400  Biso   1.000  H
  H1617    1.0000 0.31150  0.95940  0.94960  Biso   1.000  H
  C768     1.0000 0.30930  0.00300  0.90800  Biso   1.000  C
  H1618    1.0000 0.31970  0.01740  0.89180  Biso   1.000  H
  H1619    1.0000 0.29750  0.03130  0.91910  Biso   1.000  H
  H1620    1.0000 0.27900  0.97820  0.90590  Biso   1.000  H
  K37      1.0000 0.74230  0.81321  0.76158  Biso   1.000  K
  K38      1.0000 0.47431  0.57739  0.77390  Biso   1.000  K
  K39      1.0000 0.48605  0.83873  0.59362  Biso   1.000  K
  K40      1.0000 0.75912  0.62006  0.60943  Biso   1.000  K
  K41      1.0000 0.76056  0.62749  0.92755  Biso   1.000  K
  K42      1.0000 0.48700  0.85867  0.94070  Biso   1.000  K
  Zn19     1.0000 0.59941  0.73129  0.84986  Biso   1.000  Zn
  O157     1.0000 0.52082  0.83637  0.89794  Biso   1.000  O
  O158     1.0000 0.69771  0.62687  0.89012  Biso   1.000  O
  O159     1.0000 0.67423  0.82787  0.79706  Biso   1.000  O
  O160     1.0000 0.50264  0.61740  0.81456  Biso   1.000  O
  N229     1.0000 0.57070  0.77263  0.87819  Biso   1.000  N
  N230     1.0000 0.64339  0.69326  0.87529  Biso   1.000  N
  N231     1.0000 0.61838  0.77312  0.81991  Biso   1.000  N
  N232     1.0000 0.56045  0.68415  0.82646  Biso   1.000  N
  N233     1.0000 0.51032  0.82260  0.85601  Biso   1.000  N
  H1621    1.0000 0.51430  0.79940  0.84410  Biso   1.000  H
  N234     1.0000 0.70240  0.65060  0.84977  Biso   1.000  N
  H1622    1.0000 0.69300  0.67490  0.83910  Biso   1.000  H
  N235     1.0000 0.66121  0.84164  0.83866  Biso   1.000  N
  H1623    1.0000 0.64750  0.82860  0.85250  Biso   1.000  H
  N236     1.0000 0.53823  0.61992  0.85396  Biso   1.000  N
  H1624    1.0000 0.55310  0.64040  0.86520  Biso   1.000  H
  C769     1.0000 0.46630  0.86620  0.82248  Biso   1.000  C
  H1625    1.0000 0.44280  0.83580  0.81930  Biso   1.000  H
  H1626    1.0000 0.44710  0.89790  0.81720  Biso   1.000  H
  H1627    1.0000 0.50080  0.86260  0.81320  Biso   1.000  H
  C770     1.0000 0.47887  0.86965  0.85010  Biso   1.000  C
  C771     1.0000 0.51260  0.91850  0.85563  Biso   1.000  C
  H1628    1.0000 0.52210  0.91940  0.87330  Biso   1.000  H
  H1629    1.0000 0.54650  0.91800  0.84570  Biso   1.000  H
  H1630    1.0000 0.49100  0.94950  0.85140  Biso   1.000  H
  C772     1.0000 0.42500  0.87170  0.86478  Biso   1.000  C
  H1631    1.0000 0.40480  0.83910  0.86250  Biso   1.000  H
  H1632    1.0000 0.43320  0.87660  0.88250  Biso   1.000  H
  H1633    1.0000 0.40260  0.90090  0.85880  Biso   1.000  H
  C773     1.0000 0.53444  0.81140  0.87880  Biso   1.000  C
  C774     1.0000 0.59834  0.75795  0.90127  Biso   1.000  C
  H1634    1.0000 0.62920  0.78230  0.90450  Biso   1.000  H
  H1635    1.0000 0.57210  0.76070  0.91530  Biso   1.000  H
  C775     1.0000 0.62038  0.70268  0.89984  Biso   1.000  C
  H1636    1.0000 0.59020  0.67760  0.90310  Biso   1.000  H
  H1637    1.0000 0.64920  0.69760  0.91260  Biso   1.000  H
  C776     1.0000 0.68093  0.65540  0.87325  Biso   1.000  C
  C777     1.0000 0.73860  0.61040  0.84054  Biso   1.000  C
  C778     1.0000 0.74760  0.62050  0.81305  Biso   1.000  C
  H1638    1.0000 0.76490  0.65470  0.81080  Biso   1.000  H
  H1639    1.0000 0.77160  0.59340  0.80610  Biso   1.000  H
  H1640    1.0000 0.71200  0.61990  0.80440  Biso   1.000  H
  C779     1.0000 0.71170  0.55830  0.84375  Biso   1.000  C
  H1641    1.0000 0.70460  0.55210  0.86140  Biso   1.000  H
  H1642    1.0000 0.67680  0.55770  0.83460  Biso   1.000  H
  H1643    1.0000 0.73610  0.53100  0.83730  Biso   1.000  H
  C780     1.0000 0.79260  0.61060  0.85370  Biso   1.000  C
  H1644    1.0000 0.80870  0.64550  0.85280  Biso   1.000  H
  H1645    1.0000 0.78700  0.60080  0.87110  Biso   1.000  H
  H1646    1.0000 0.81740  0.58550  0.84580  Biso   1.000  H
  C781     1.0000 0.68620  0.90840  0.86767  Biso   1.000  C
  H1647    1.0000 0.70310  0.88240  0.87860  Biso   1.000  H
  H1648    1.0000 0.70490  0.94190  0.86990  Biso   1.000  H
  H1649    1.0000 0.64720  0.91210  0.87190  Biso   1.000  H
  C782     1.0000 0.69180  0.89100  0.84066  Biso   1.000  C
  C783     1.0000 0.75290  0.88230  0.83453  Biso   1.000  C
  H1650    1.0000 0.75650  0.87090  0.81720  Biso   1.000  H
  H1651    1.0000 0.77320  0.91500  0.83690  Biso   1.000  H
  H1652    1.0000 0.76810  0.85560  0.84560  Biso   1.000  H
  C784     1.0000 0.66840  0.93240  0.82357  Biso   1.000  C
  H1653    1.0000 0.67170  0.92090  0.80630  Biso   1.000  H
  H1654    1.0000 0.62950  0.93820  0.82760  Biso   1.000  H
  H1655    1.0000 0.68900  0.96490  0.82580  Biso   1.000  H
  C785     1.0000 0.65200  0.81380  0.81700  Biso   1.000  C
  C786     1.0000 0.60650  0.74250  0.79757  Biso   1.000  C
  H1656    1.0000 0.60000  0.76600  0.78330  Biso   1.000  H
  H1657    1.0000 0.63830  0.71980  0.79360  Biso   1.000  H
  C787     1.0000 0.55550  0.70940  0.80237  Biso   1.000  C
  H1658    1.0000 0.55170  0.68270  0.78920  Biso   1.000  H
  H1659    1.0000 0.52220  0.73170  0.80210  Biso   1.000  H
  C788     1.0000 0.53267  0.64020  0.83034  Biso   1.000  C
  C789     1.0000 0.52180  0.56760  0.86209  Biso   1.000  C
  C790     1.0000 0.54270  0.56170  0.88857  Biso   1.000  C
  H1660    1.0000 0.58280  0.56550  0.88880  Biso   1.000  H
  H1661    1.0000 0.52590  0.58860  0.89910  Biso   1.000  H
  H1662    1.0000 0.53260  0.52720  0.89490  Biso   1.000  H
  C791     1.0000 0.45870  0.56270  0.86192  Biso   1.000  C
  H1663    1.0000 0.44270  0.58920  0.87290  Biso   1.000  H
  H1664    1.0000 0.44500  0.56780  0.84500  Biso   1.000  H
  H1665    1.0000 0.44810  0.52800  0.86780  Biso   1.000  H
  C792     1.0000 0.54690  0.52540  0.84570  Biso   1.000  C
  H1666    1.0000 0.58710  0.52900  0.84560  Biso   1.000  H
  H1667    1.0000 0.53690  0.49110  0.85220  Biso   1.000  H
  H1668    1.0000 0.53280  0.52900  0.82870  Biso   1.000  H
  Zn20     1.0000 0.60421  0.68896  0.68080  Biso   1.000  Zn
  O161     1.0000 0.71168  0.79224  0.71717  Biso   1.000  O
  O162     1.0000 0.51759  0.60041  0.73367  Biso   1.000  O
  O163     1.0000 0.52010  0.78539  0.63017  Biso   1.000  O
  O164     1.0000 0.69737  0.57674  0.64338  Biso   1.000  O
  N237     1.0000 0.64522  0.73392  0.70455  Biso   1.000  N
  N238     1.0000 0.57108  0.65655  0.71054  Biso   1.000  N
  N239     1.0000 0.57361  0.72599  0.65151  Biso   1.000  N
  N240     1.0000 0.63616  0.64017  0.65595  Biso   1.000  N
  N241     1.0000 0.69170  0.78218  0.67600  Biso   1.000  N
  H1669    1.0000 0.67120  0.76540  0.66520  Biso   1.000  H
  N242     1.0000 0.49969  0.61257  0.69231  Biso   1.000  N
  H1670    1.0000 0.50220  0.63520  0.68010  Biso   1.000  H
  N243     1.0000 0.52935  0.79064  0.67270  Biso   1.000  N
  H1671    1.0000 0.53240  0.77130  0.68610  Biso   1.000  H
  N244     1.0000 0.65904  0.57415  0.68228  Biso   1.000  N
  H1672    1.0000 0.64120  0.59240  0.69350  Biso   1.000  H
  C793     1.0000 0.72150  0.81940  0.63774  Biso   1.000  C
  H1673    1.0000 0.72960  0.78460  0.63120  Biso   1.000  H
  H1674    1.0000 0.68310  0.82840  0.63410  Biso   1.000  H
  H1675    1.0000 0.74600  0.84490  0.62980  Biso   1.000  H
  C794     1.0000 0.73070  0.82010  0.66587  Biso   1.000  C
  C795     1.0000 0.78970  0.80360  0.67184  Biso   1.000  C
  H1676    1.0000 0.79410  0.80030  0.68990  Biso   1.000  H
  H1677    1.0000 0.79760  0.77010  0.66390  Biso   1.000  H
  H1678    1.0000 0.81540  0.83000  0.66560  Biso   1.000  H
  C796     1.0000 0.72030  0.87410  0.67564  Biso   1.000  C
  H1679    1.0000 0.72730  0.87490  0.69360  Biso   1.000  H
  H1680    1.0000 0.74500  0.89880  0.66730  Biso   1.000  H
  H1681    1.0000 0.68200  0.88390  0.67240  Biso   1.000  H
  C797     1.0000 0.68370  0.77000  0.70059  Biso   1.000  C
  C798     1.0000 0.63110  0.72090  0.72999  Biso   1.000  C
  H1682    1.0000 0.66490  0.72180  0.74030  Biso   1.000  H
  H1683    1.0000 0.60550  0.74760  0.73660  Biso   1.000  H
  C799     1.0000 0.60510  0.66870  0.73222  Biso   1.000  C
  H1684    1.0000 0.58200  0.66780  0.74740  Biso   1.000  H
  H1685    1.0000 0.63420  0.64200  0.73400  Biso   1.000  H
  C800     1.0000 0.52980  0.62290  0.71364  Biso   1.000  C
  C801     1.0000 0.46390  0.56700  0.68845  Biso   1.000  C
  C802     1.0000 0.45020  0.56620  0.66102  Biso   1.000  C
  H1686    1.0000 0.48420  0.56320  0.65130  Biso   1.000  H
  H1687    1.0000 0.42630  0.53630  0.65740  Biso   1.000  H
  H1688    1.0000 0.43110  0.59850  0.65650  Biso   1.000  H
  C803     1.0000 0.41070  0.57190  0.70364  Biso   1.000  C
  H1689    1.0000 0.39010  0.60260  0.69810  Biso   1.000  H
  H1690    1.0000 0.38810  0.54060  0.70120  Biso   1.000  H
  H1691    1.0000 0.41980  0.57550  0.72130  Biso   1.000  H
  C804     1.0000 0.49310  0.51730  0.69553  Biso   1.000  C
  H1692    1.0000 0.52770  0.51450  0.68620  Biso   1.000  H
  H1693    1.0000 0.50100  0.51750  0.71340  Biso   1.000  H
  H1694    1.0000 0.46950  0.48740  0.69160  Biso   1.000  H
  C805     1.0000 0.51390  0.85440  0.70372  Biso   1.000  C
  H1695    1.0000 0.48720  0.83130  0.71180  Biso   1.000  H
  H1696    1.0000 0.55090  0.84680  0.71000  Biso   1.000  H
  H1697    1.0000 0.50450  0.89070  0.70730  Biso   1.000  H
  C806     1.0000 0.51240  0.84550  0.67578  Biso   1.000  C
  C807     1.0000 0.45360  0.85430  0.66651  Biso   1.000  C
  H1698    1.0000 0.42830  0.83130  0.67550  Biso   1.000  H
  H1699    1.0000 0.44310  0.89070  0.66940  Biso   1.000  H
  H1700    1.0000 0.45170  0.84670  0.64870  Biso   1.000  H
  C808     1.0000 0.55160  0.88180  0.66253  Biso   1.000  C
  H1701    1.0000 0.54970  0.87550  0.64460  Biso   1.000  H
  H1702    1.0000 0.54120  0.91800  0.66600  Biso   1.000  H
  H1703    1.0000 0.58920  0.87560  0.66840  Biso   1.000  H
  C809     1.0000 0.54077  0.76750  0.64977  Biso   1.000  C
  C810     1.0000 0.58420  0.69650  0.62883  Biso   1.000  C
  H1704    1.0000 0.55330  0.67230  0.62560  Biso   1.000  H
  H1705    1.0000 0.58740  0.72050  0.61450  Biso   1.000  H
  C811     1.0000 0.63778  0.66565  0.63187  Biso   1.000  C
  H1706    1.0000 0.66980  0.68940  0.63090  Biso   1.000  H
  H1707    1.0000 0.64120  0.63940  0.61850  Biso   1.000  H
  C812     1.0000 0.66567  0.59677  0.65926  Biso   1.000  C
  C813     1.0000 0.67890  0.52250  0.68991  Biso   1.000  C
  C814     1.0000 0.65550  0.51380  0.71591  Biso   1.000  C
  H1708    1.0000 0.61520  0.51630  0.71530  Biso   1.000  H
  H1709    1.0000 0.66610  0.47920  0.72190  Biso   1.000  H
  H1710    1.0000 0.67000  0.54040  0.72720  Biso   1.000  H
  C815     1.0000 0.74150  0.52140  0.69083  Biso   1.000  C
  H1711    1.0000 0.75630  0.53180  0.67460  Biso   1.000  H
  H1712    1.0000 0.75450  0.54560  0.70360  Biso   1.000  H
  H1713    1.0000 0.75400  0.48610  0.69480  Biso   1.000  H
  C816     1.0000 0.65780  0.48000  0.67254  Biso   1.000  C
  H1714    1.0000 0.61780  0.48290  0.67090  Biso   1.000  H
  H1715    1.0000 0.67490  0.48410  0.65620  Biso   1.000  H
  H1716    1.0000 0.66730  0.44580  0.67940  Biso   1.000  H
  Zn21     1.0000 0.63460  0.73434  0.51554  Biso   1.000  Zn
  O165     1.0000 0.54054  0.84757  0.55282  Biso   1.000  O
  O166     1.0000 0.72199  0.64150  0.56615  Biso   1.000  O
  O167     1.0000 0.72718  0.67603  0.96551  Biso   1.000  O
  O168     1.0000 0.54557  0.88122  0.97827  Biso   1.000  O
  N245     1.0000 0.59767  0.78158  0.53948  Biso   1.000  N
  N246     1.0000 0.67106  0.70317  0.54500  Biso   1.000  N
  N247     1.0000 0.66878  0.73252  0.98609  Biso   1.000  N
  N248     1.0000 0.60509  0.81775  0.99148  Biso   1.000  N
  N249     1.0000 0.55013  0.83074  0.51131  Biso   1.000  N
  H1717    1.0000 0.57140  0.81590  0.50010  Biso   1.000  H
  N250     1.0000 0.73829  0.65789  0.52478  Biso   1.000  N
  H1718    1.0000 0.74290  0.68450  0.51470  Biso   1.000  H
  N251     1.0000 0.70126  0.65960  0.00576  Biso   1.000  N
  H1719    1.0000 0.69260  0.67500  0.01980  Biso   1.000  H
  N252     1.0000 0.56577  0.87218  0.01963  Biso   1.000  N
  H1720    1.0000 0.58080  0.85190  0.03090  Biso   1.000  H
  C817     1.0000 0.50770  0.85900  0.47371  Biso   1.000  C
  H1721    1.0000 0.50090  0.82270  0.46890  Biso   1.000  H
  H1722    1.0000 0.47940  0.88140  0.46630  Biso   1.000  H
  H1723    1.0000 0.54410  0.86970  0.46770  Biso   1.000  H
  C818     1.0000 0.50560  0.86380  0.50203  Biso   1.000  C
  C819     1.0000 0.51480  0.92020  0.50926  Biso   1.000  C
  H1724    1.0000 0.51780  0.92290  0.52740  Biso   1.000  H
  H1725    1.0000 0.54900  0.93290  0.50160  Biso   1.000  H
  H1726    1.0000 0.48380  0.94140  0.50350  Biso   1.000  H
  C820     1.0000 0.45000  0.84550  0.51159  Biso   1.000  C
  H1727    1.0000 0.44490  0.80860  0.50740  Biso   1.000  H
  H1728    1.0000 0.44860  0.84970  0.52970  Biso   1.000  H
  H1729    1.0000 0.42070  0.86620  0.50390  Biso   1.000  H
  C821     1.0000 0.56195  0.82050  0.53594  Biso   1.000  C
  C822     1.0000 0.61865  0.77316  0.56463  Biso   1.000  C
  H1730    1.0000 0.64820  0.79870  0.56820  Biso   1.000  H
  H1731    1.0000 0.58860  0.77880  0.57680  Biso   1.000  H
  C823     1.0000 0.64125  0.71808  0.56751  Biso   1.000  C
  H1732    1.0000 0.61060  0.69350  0.57040  Biso   1.000  H
  H1733    1.0000 0.66630  0.71660  0.58200  Biso   1.000  H
  C824     1.0000 0.70919  0.66624  0.54681  Biso   1.000  C
  C825     1.0000 0.76160  0.60759  0.51734  Biso   1.000  C
  C826     1.0000 0.77890  0.61380  0.49026  Biso   1.000  C
  H1734    1.0000 0.80610  0.64190  0.48890  Biso   1.000  H
  H1735    1.0000 0.79520  0.58120  0.48430  Biso   1.000  H
  H1736    1.0000 0.74660  0.62240  0.48020  Biso   1.000  H
  C827     1.0000 0.81170  0.59340  0.53282  Biso   1.000  C
  H1737    1.0000 0.83980  0.62050  0.53100  Biso   1.000  H
  H1738    1.0000 0.80100  0.59060  0.55030  Biso   1.000  H
  H1739    1.0000 0.82660  0.56000  0.52710  Biso   1.000  H
  C828     1.0000 0.71720  0.56530  0.51922  Biso   1.000  C
  H1740    1.0000 0.68520  0.57540  0.50930  Biso   1.000  H
  H1741    1.0000 0.73200  0.53230  0.51290  Biso   1.000  H
  H1742    1.0000 0.70620  0.56100  0.53660  Biso   1.000  H
  C829     1.0000 0.70220  0.58620  0.03298  Biso   1.000  C
  H1743    1.0000 0.72430  0.60610  0.04490  Biso   1.000  H
  H1744    1.0000 0.71060  0.54900  0.03460  Biso   1.000  H
  H1745    1.0000 0.66300  0.59200  0.03630  Biso   1.000  H
  C830     1.0000 0.71580  0.60410  0.00673  Biso   1.000  C
  C831     1.0000 0.77810  0.59760  0.00187  Biso   1.000  C
  H1746    1.0000 0.78680  0.60980  0.98510  Biso   1.000  H
  H1747    1.0000 0.78810  0.56080  0.00340  Biso   1.000  H
  H1748    1.0000 0.79880  0.61820  0.01400  Biso   1.000  H
  C832     1.0000 0.68280  0.57250  0.98771  Biso   1.000  C
  H1749    1.0000 0.69080  0.58530  0.97090  Biso   1.000  H
  H1750    1.0000 0.64340  0.57620  0.99110  Biso   1.000  H
  H1751    1.0000 0.69320  0.53570  0.98890  Biso   1.000  H
  C833     1.0000 0.70009  0.68960  0.98422  Biso   1.000  C
  C834     1.0000 0.66570  0.76750  0.96485  Biso   1.000  C
  H1752    1.0000 0.66720  0.74730  0.94920  Biso   1.000  H
  H1753    1.0000 0.69730  0.79200  0.96510  Biso   1.000  H
  C835     1.0000 0.61210  0.79760  0.96632  Biso   1.000  C
  H1754    1.0000 0.61260  0.82680  0.95430  Biso   1.000  H
  H1755    1.0000 0.58090  0.77440  0.96210  Biso   1.000  H
  C836     1.0000 0.57140  0.85750  0.99498  Biso   1.000  C
  C837     1.0000 0.53660  0.91900  0.02839  Biso   1.000  C
  C838     1.0000 0.54640  0.92050  0.05651  Biso   1.000  C
  H1756    1.0000 0.53130  0.88890  0.06410  Biso   1.000  H
  H1757    1.0000 0.52810  0.95120  0.06360  Biso   1.000  H
  H1758    1.0000 0.58600  0.92240  0.05980  Biso   1.000  H
  C839     1.0000 0.47450  0.91490  0.02339  Biso   1.000  C
  H1759    1.0000 0.46810  0.91190  0.00550  Biso   1.000  H
  H1760    1.0000 0.45590  0.94600  0.02970  Biso   1.000  H
  H1761    1.0000 0.45980  0.88390  0.03180  Biso   1.000  H
  C840     1.0000 0.55950  0.96820  0.01659  Biso   1.000  C
  H1762    1.0000 0.55540  0.96620  0.99850  Biso   1.000  H
  H1763    1.0000 0.59860  0.97170  0.02080  Biso   1.000  H
  H1764    1.0000 0.53930  0.99860  0.02280  Biso   1.000  H
  O169     1.0000 0.77880  0.90890  0.75960  Biso   1.000  O
  N253     1.0000 0.85390  0.95100  0.77210  Biso   1.000  N
  C841     1.0000 0.79970  0.94840  0.76910  Biso   1.000  C
  C842     1.0000 0.76520  0.99720  0.77210  Biso   1.000  C
  H1765    1.0000 0.76350  0.01580  0.75620  Biso   1.000  H
  H1766    1.0000 0.72780  0.98950  0.77790  Biso   1.000  H
  H1767    1.0000 0.78410  0.01890  0.78450  Biso   1.000  H
  C843     1.0000 0.88700  0.90460  0.76750  Biso   1.000  C
  H1768    1.0000 0.86680  0.88350  0.75540  Biso   1.000  H
  H1769    1.0000 0.92320  0.91380  0.76060  Biso   1.000  H
  H1770    1.0000 0.89200  0.88470  0.78290  Biso   1.000  H
  C844     1.0000 0.88490  0.99330  0.78330  Biso   1.000  C
  H1771    1.0000 0.89500  0.98530  0.80060  Biso   1.000  H
  H1772    1.0000 0.91840  0.99710  0.77330  Biso   1.000  H
  H1773    1.0000 0.86380  0.02590  0.78280  Biso   1.000  H
  O170     1.0000 0.79320  0.90230  0.76030  Biso   1.000  O
  N254     1.0000 0.83760  0.97130  0.77530  Biso   1.000  N
  C845     1.0000 0.83780  0.92450  0.76470  Biso   1.000  C
  C846     1.0000 0.88930  0.90660  0.75120  Biso   1.000  C
  H1774    1.0000 0.88980  0.91630  0.73360  Biso   1.000  H
  H1775    1.0000 0.91870  0.92520  0.76000  Biso   1.000  H
  H1776    1.0000 0.89520  0.86890  0.75280  Biso   1.000  H
  C847     1.0000 0.78520  0.99220  0.78400  Biso   1.000  C
  H1777    1.0000 0.75780  0.97010  0.77580  Biso   1.000  H
  H1778    1.0000 0.77970  0.99070  0.80210  Biso   1.000  H
  H1779    1.0000 0.78100  0.02830  0.77830  Biso   1.000  H
  C848     1.0000 0.88060  0.01060  0.77340  Biso   1.000  C
  H1780    1.0000 0.87280  0.03840  0.76140  Biso   1.000  H
  H1781    1.0000 0.88080  0.02520  0.79030  Biso   1.000  H
  H1782    1.0000 0.91660  0.99520  0.76970  Biso   1.000  H
  O171     1.0000 0.47630  0.47480  0.76270  Biso   1.000  O
  N255     1.0000 0.39270  0.43890  0.76402  Biso   1.000  N
  C849     1.0000 0.44300  0.44210  0.75465  Biso   1.000  C
  C850     1.0000 0.46030  0.40380  0.73480  Biso   1.000  C
  H1783    1.0000 0.46370  0.36890  0.74200  Biso   1.000  H
  H1784    1.0000 0.43300  0.40320  0.72140  Biso   1.000  H
  H1785    1.0000 0.49610  0.41470  0.72800  Biso   1.000  H
  C851     1.0000 0.37530  0.47550  0.78320  Biso   1.000  C
  H1786    1.0000 0.36170  0.50750  0.77530  Biso   1.000  H
  H1787    1.0000 0.34570  0.45960  0.79300  Biso   1.000  H
  H1788    1.0000 0.40640  0.48380  0.79410  Biso   1.000  H
  C852     1.0000 0.34800  0.40610  0.75510  Biso   1.000  C
  H1789    1.0000 0.35740  0.39280  0.73850  Biso   1.000  H
  H1790    1.0000 0.34430  0.37690  0.76670  Biso   1.000  H
  H1791    1.0000 0.31310  0.42530  0.75420  Biso   1.000  H
  O172     1.0000 0.46650  0.47820  0.76700  Biso   1.000  O
  N256     1.0000 0.40540  0.41980  0.75300  Biso   1.000  N
  C853     1.0000 0.42000  0.45810  0.76810  Biso   1.000  C
  C854     1.0000 0.38310  0.47040  0.79010  Biso   1.000  C
  H1792    1.0000 0.34710  0.48160  0.78380  Biso   1.000  H
  H1793    1.0000 0.37850  0.43980  0.80080  Biso   1.000  H
  H1794    1.0000 0.39980  0.49880  0.79970  Biso   1.000  H
  C855     1.0000 0.44370  0.40080  0.73420  Biso   1.000  C
  H1795    1.0000 0.44460  0.36260  0.73470  Biso   1.000  H
  H1796    1.0000 0.43200  0.41250  0.71770  Biso   1.000  H
  H1797    1.0000 0.48060  0.41450  0.73780  Biso   1.000  H
  C856     1.0000 0.35850  0.38520  0.75660  Biso   1.000  C
  H1798    1.0000 0.32600  0.40640  0.76030  Biso   1.000  H
  H1799    1.0000 0.35200  0.36510  0.74140  Biso   1.000  H
  H1800    1.0000 0.36540  0.36120  0.77050  Biso   1.000  H
  O173     1.0000 0.38820  0.81040  0.59760  Biso   1.000  O
  N257     1.0000 0.29780  0.79380  0.59787  Biso   1.000  N
  C857     1.0000 0.34790  0.78850  0.60723  Biso   1.000  C
  C858     1.0000 0.35510  0.75930  0.63150  Biso   1.000  C
  H1801    1.0000 0.33610  0.77950  0.64430  Biso   1.000  H
  H1802    1.0000 0.33870  0.72450  0.63040  Biso   1.000  H
  H1803    1.0000 0.39420  0.75610  0.63580  Biso   1.000  H
  C859     1.0000 0.28990  0.82310  0.57490  Biso   1.000  C
  H1804    1.0000 0.27720  0.79890  0.56210  Biso   1.000  H
  H1805    1.0000 0.26280  0.85110  0.57700  Biso   1.000  H
  H1806    1.0000 0.32540  0.83810  0.57000  Biso   1.000  H
  C860     1.0000 0.24890  0.76500  0.60540  Biso   1.000  C
  H1807    1.0000 0.22730  0.78670  0.61680  Biso   1.000  H
  H1808    1.0000 0.22670  0.75670  0.59070  Biso   1.000  H
  H1809    1.0000 0.25950  0.73260  0.61380  Biso   1.000  H
  O174     1.0000 0.38340  0.80870  0.59067  Biso   1.000  O
  N258     1.0000 0.31110  0.78220  0.61319  Biso   1.000  N
  C861     1.0000 0.33300  0.80140  0.59259  Biso   1.000  C
  C862     1.0000 0.29650  0.80870  0.56999  Biso   1.000  C
  H1810    1.0000 0.29280  0.77570  0.56100  Biso   1.000  H
  H1811    1.0000 0.26010  0.82040  0.57550  Biso   1.000  H
  H1812    1.0000 0.31270  0.83500  0.55900  Biso   1.000  H
  C863     1.0000 0.34650  0.76940  0.63419  Biso   1.000  C
  H1813    1.0000 0.38140  0.78830  0.63250  Biso   1.000  H
  H1814    1.0000 0.32880  0.77890  0.64990  Biso   1.000  H
  H1815    1.0000 0.35370  0.73180  0.63400  Biso   1.000  H
  C864     1.0000 0.25520  0.76250  0.61614  Biso   1.000  C
  H1816    1.0000 0.25240  0.72860  0.60780  Biso   1.000  H
  H1817    1.0000 0.24680  0.75850  0.63390  Biso   1.000  H
  H1818    1.0000 0.22900  0.78690  0.60860  Biso   1.000  H
  O175     1.0000 0.44186  0.92950  0.59687  Biso   1.000  O
  N259     1.0000 0.37260  0.97200  0.57834  Biso   1.000  N
  C865     1.0000 0.39310  0.94430  0.59689  Biso   1.000  C
  C866     1.0000 0.35630  0.93180  0.61880  Biso   1.000  C
  H1819    1.0000 0.37810  0.91480  0.63180  Biso   1.000  H
  H1820    1.0000 0.34150  0.96470  0.62520  Biso   1.000  H
  H1821    1.0000 0.32590  0.90900  0.61390  Biso   1.000  H
  C867     1.0000 0.40600  0.98360  0.55654  Biso   1.000  C
  H1822    1.0000 0.38580  0.97390  0.54150  Biso   1.000  H
  H1823    1.0000 0.41460  0.02090  0.55600  Biso   1.000  H
  H1824    1.0000 0.44020  0.96350  0.55750  Biso   1.000  H
  C868     1.0000 0.31840  0.99630  0.57790  Biso   1.000  C
  H1825    1.0000 0.31770  0.02710  0.58860  Biso   1.000  H
  H1826    1.0000 0.30980  0.00650  0.56080  Biso   1.000  H
  H1827    1.0000 0.29090  0.97110  0.58370  Biso   1.000  H
  O176     1.0000 0.44540  0.93380  0.58640  Biso   1.000  O
  N260     1.0000 0.35830  0.96050  0.59120  Biso   1.000  N
  C869     1.0000 0.40550  0.95960  0.57880  Biso   1.000  C
  C870     1.0000 0.41340  0.99710  0.55730  Biso   1.000  C
  H1828    1.0000 0.45180  0.99690  0.55170  Biso   1.000  H
  H1829    1.0000 0.38970  0.98330  0.54410  Biso   1.000  H
  H1830    1.0000 0.40230  0.03290  0.56120  Biso   1.000  H
  C871     1.0000 0.35330  0.93300  0.61470  Biso   1.000  C
  H1831    1.0000 0.38350  0.90770  0.61590  Biso   1.000  H
  H1832    1.0000 0.35440  0.95630  0.62920  Biso   1.000  H
  H1833    1.0000 0.31800  0.91440  0.61450  Biso   1.000  H
  C872     1.0000 0.30890  0.98920  0.58440  Biso   1.000  C
  H1834    1.0000 0.29460  0.97790  0.56820  Biso   1.000  H
  H1835    1.0000 0.28050  0.98440  0.59710  Biso   1.000  H
  H1836    1.0000 0.31910  0.02610  0.58350  Biso   1.000  H
  O177     1.0000 0.85361  0.67140  0.91660  Biso   1.000  O
  N261     1.0000 0.92348  0.70290  0.93915  Biso   1.000  N
  C873     1.0000 0.90280  0.68470  0.91811  Biso   1.000  C
  C874     1.0000 0.94080  0.67620  0.89617  Biso   1.000  C
  H1837    1.0000 0.92020  0.66070  0.88240  Biso   1.000  H
  H1838    1.0000 0.97100  0.65280  0.90100  Biso   1.000  H
  H1839    1.0000 0.95610  0.70980  0.89100  Biso   1.000  H
  C875     1.0000 0.88760  0.71140  0.96048  Biso   1.000  C
  H1840    1.0000 0.87830  0.74840  0.96190  Biso   1.000  H
  H1841    1.0000 0.90640  0.69990  0.97560  Biso   1.000  H
  H1842    1.0000 0.85380  0.69110  0.95820  Biso   1.000  H
  C876     1.0000 0.97960  0.72080  0.94329  Biso   1.000  C
  H1843    1.0000 0.99640  0.70060  0.95680  Biso   1.000  H
  H1844    1.0000 0.97910  0.75780  0.94780  Biso   1.000  H
  H1845    1.0000 0.00120  0.71610  0.92800  Biso   1.000  H
  O178     1.0000 0.84670  0.81920  0.41690  Biso   1.000  O
  N262     1.0000 0.93590  0.80400  0.42460  Biso   1.000  N
  C877     1.0000 0.88350  0.80510  0.43150  Biso   1.000  C
  C878     1.0000 0.86830  0.78570  0.45720  Biso   1.000  C
  H1846    1.0000 0.87990  0.74920  0.45850  Biso   1.000  H
  H1847    1.0000 0.88720  0.80630  0.46990  Biso   1.000  H
  H1848    1.0000 0.82840  0.78810  0.45960  Biso   1.000  H
  C879     1.0000 0.95140  0.82100  0.39970  Biso   1.000  C
  H1849    1.0000 0.92120  0.84210  0.39300  Biso   1.000  H
  H1850    1.0000 0.98470  0.84240  0.40090  Biso   1.000  H
  H1851    1.0000 0.95840  0.79140  0.38860  Biso   1.000  H
  C880     1.0000 0.98030  0.77720  0.43750  Biso   1.000  C
  H1852    1.0000 0.96640  0.76180  0.45300  Biso   1.000  H
  H1853    1.0000 0.99490  0.74960  0.42670  Biso   1.000  H
  H1854    1.0000 0.00980  0.80210  0.44140  Biso   1.000  H
  O179     1.0000 0.80650  0.53720  0.93242  Biso   1.000  O
  N263     1.0000 0.88480  0.49590  0.92244  Biso   1.000  N
  C881     1.0000 0.83920  0.50070  0.93573  Biso   1.000  C
  C882     1.0000 0.82990  0.46330  0.95712  Biso   1.000  C
  H1855    1.0000 0.80210  0.47760  0.96840  Biso   1.000  H
  H1856    1.0000 0.86470  0.45870  0.96610  Biso   1.000  H
  H1857    1.0000 0.81730  0.42960  0.95080  Biso   1.000  H
  C883     1.0000 0.89460  0.53010  0.90131  Biso   1.000  C
  H1858    1.0000 0.86360  0.55430  0.89960  Biso   1.000  H
  H1859    1.0000 0.89810  0.50930  0.88610  Biso   1.000  H
  H1860    1.0000 0.92860  0.54990  0.90400  Biso   1.000  H
  C884     1.0000 0.92460  0.45370  0.92440  Biso   1.000  C
  H1861    1.0000 0.92360  0.44170  0.94170  Biso   1.000  H
  H1862    1.0000 0.96090  0.46880  0.92090  Biso   1.000  H
  H1863    1.0000 0.91790  0.42430  0.91320  Biso   1.000  H
  O180     1.0000 0.80370  0.96630  0.42560  Biso   1.000  O
  N264     1.0000 0.86850  0.02600  0.43330  Biso   1.000  N
  C885     1.0000 0.85060  0.98380  0.42160  Biso   1.000  C
  C886     1.0000 0.89060  0.95300  0.40580  Biso   1.000  C
  H1864    1.0000 0.88970  0.96630  0.38870  Biso   1.000  H
  H1865    1.0000 0.92790  0.95680  0.41250  Biso   1.000  H
  H1866    1.0000 0.88020  0.91610  0.40580  Biso   1.000  H
  C887     1.0000 0.83080  0.05620  0.44860  Biso   1.000  C
  H1867    1.0000 0.80170  0.03300  0.45460  Biso   1.000  H
  H1868    1.0000 0.85090  0.07080  0.46280  Biso   1.000  H
  H1869    1.0000 0.81440  0.08460  0.43890  Biso   1.000  H
  C888     1.0000 0.92160  0.05120  0.42960  Biso   1.000  C
  H1870    1.0000 0.91150  0.08250  0.42020  Biso   1.000  H
  H1871    1.0000 0.94130  0.06140  0.44480  Biso   1.000  H
  H1872    1.0000 0.94550  0.02900  0.41940  Biso   1.000  H
  O181     1.0000 0.44070  0.94160  0.92430  Biso   1.000  O
  N265     1.0000 0.37460  0.99260  0.90822  Biso   1.000  N
  C889     1.0000 0.39280  0.95850  0.92477  Biso   1.000  C
  C890     1.0000 0.35380  0.94020  0.94493  Biso   1.000  C
  H1873    1.0000 0.37360  0.91820  0.95680  Biso   1.000  H
  H1874    1.0000 0.32340  0.92030  0.93750  Biso   1.000  H
  H1875    1.0000 0.33890  0.97070  0.95360  Biso   1.000  H
  C891     1.0000 0.41160  0.01450  0.88970  Biso   1.000  C
  H1876    1.0000 0.44650  0.99520  0.89020  Biso   1.000  H
  H1877    1.0000 0.41860  0.05150  0.89290  Biso   1.000  H
  H1878    1.0000 0.39480  0.01060  0.87320  Biso   1.000  H
  C892     1.0000 0.32060  0.01750  0.90872  Biso   1.000  C
  H1879    1.0000 0.29390  0.99420  0.91670  Biso   1.000  H
  H1880    1.0000 0.30870  0.02500  0.89170  Biso   1.000  H
  H1881    1.0000 0.32290  0.05010  0.91820  Biso   1.000  H
  O182     1.0000 0.44450  0.54850  0.42100  Biso   1.000  O
  N266     1.0000 0.35640  0.52310  0.41919  Biso   1.000  N
  C893     1.0000 0.40790  0.52190  0.41100  Biso   1.000  C
  C894     1.0000 0.42270  0.48500  0.39010  Biso   1.000  C
  H1882    1.0000 0.46240  0.47800  0.39000  Biso   1.000  H
  H1883    1.0000 0.40250  0.45230  0.39270  Biso   1.000  H
  H1884    1.0000 0.41190  0.50020  0.37410  Biso   1.000  H
  C895     1.0000 0.34170  0.55620  0.44010  Biso   1.000  C
  H1885    1.0000 0.37410  0.56010  0.45090  Biso   1.000  H
  H1886    1.0000 0.33030  0.59060  0.43400  Biso   1.000  H
  H1887    1.0000 0.31150  0.54060  0.44960  Biso   1.000  H
  C896     1.0000 0.30930  0.49700  0.40800  Biso   1.000  C
  H1888    1.0000 0.31970  0.48260  0.39180  Biso   1.000  H
  H1889    1.0000 0.29750  0.46870  0.41910  Biso   1.000  H
  H1890    1.0000 0.27900  0.52180  0.40590  Biso   1.000  H
  K43      1.0000 0.24230  0.68679  0.23842  Biso   1.000  K
  K44      1.0000 0.97431  0.92261  0.22610  Biso   1.000  K
  K45      1.0000 0.98605  0.66127  0.40638  Biso   1.000  K
  K46      1.0000 0.25912  0.87994  0.39057  Biso   1.000  K
  K47      1.0000 0.26056  0.87251  0.07245  Biso   1.000  K
  K48      1.0000 0.98700  0.64133  0.05930  Biso   1.000  K
  Zn22     1.0000 0.09941  0.76871  0.15014  Biso   1.000  Zn
  O183     1.0000 0.02082  0.66363  0.10206  Biso   1.000  O
  O184     1.0000 0.19771  0.87313  0.10988  Biso   1.000  O
  O185     1.0000 0.17423  0.67213  0.20294  Biso   1.000  O
  O186     1.0000 0.00264  0.88260  0.18544  Biso   1.000  O
  N267     1.0000 0.07070  0.72737  0.12181  Biso   1.000  N
  N268     1.0000 0.14339  0.80674  0.12471  Biso   1.000  N
  N269     1.0000 0.11838  0.72688  0.18009  Biso   1.000  N
  N270     1.0000 0.06045  0.81585  0.17354  Biso   1.000  N
  N271     1.0000 0.01032  0.67740  0.14399  Biso   1.000  N
  H1891    1.0000 0.01430  0.70060  0.15590  Biso   1.000  H
  N272     1.0000 0.20240  0.84940  0.15023  Biso   1.000  N
  H1892    1.0000 0.19300  0.82510  0.16090  Biso   1.000  H
  N273     1.0000 0.16121  0.65836  0.16134  Biso   1.000  N
  H1893    1.0000 0.14750  0.67140  0.14750  Biso   1.000  H
  N274     1.0000 0.03823  0.88008  0.14604  Biso   1.000  N
  H1894    1.0000 0.05310  0.85960  0.13480  Biso   1.000  H
  C897     1.0000 0.96630  0.63380  0.17752  Biso   1.000  C
  H1895    1.0000 0.94280  0.66420  0.18070  Biso   1.000  H
  H1896    1.0000 0.94710  0.60210  0.18280  Biso   1.000  H
  H1897    1.0000 0.00080  0.63740  0.18680  Biso   1.000  H
  C898     1.0000 0.97887  0.63035  0.14990  Biso   1.000  C
  C899     1.0000 0.01260  0.58150  0.14437  Biso   1.000  C
  H1898    1.0000 0.02210  0.58060  0.12670  Biso   1.000  H
  H1899    1.0000 0.04650  0.58200  0.15430  Biso   1.000  H
  H1900    1.0000 0.99100  0.55050  0.14860  Biso   1.000  H
  C900     1.0000 0.92500  0.62830  0.13522  Biso   1.000  C
  H1901    1.0000 0.90480  0.66090  0.13750  Biso   1.000  H
  H1902    1.0000 0.93320  0.62340  0.11750  Biso   1.000  H
  H1903    1.0000 0.90260  0.59910  0.14120  Biso   1.000  H
  C901     1.0000 0.03444  0.68860  0.12120  Biso   1.000  C
  C902     1.0000 0.09834  0.74205  0.09873  Biso   1.000  C
  H1904    1.0000 0.12920  0.71770  0.09550  Biso   1.000  H
  H1905    1.0000 0.07210  0.73930  0.08470  Biso   1.000  H
  C903     1.0000 0.12038  0.79732  0.10016  Biso   1.000  C
  H1906    1.0000 0.09020  0.82240  0.09690  Biso   1.000  H
  H1907    1.0000 0.14920  0.80240  0.08740  Biso   1.000  H
  C904     1.0000 0.18093  0.84460  0.12675  Biso   1.000  C
  C905     1.0000 0.23860  0.88960  0.15946  Biso   1.000  C
  C906     1.0000 0.24760  0.87950  0.18695  Biso   1.000  C
  H1908    1.0000 0.26490  0.84530  0.18920  Biso   1.000  H
  H1909    1.0000 0.27160  0.90660  0.19390  Biso   1.000  H
  H1910    1.0000 0.21200  0.88010  0.19560  Biso   1.000  H
  C907     1.0000 0.21170  0.94170  0.15625  Biso   1.000  C
  H1911    1.0000 0.20460  0.94790  0.13860  Biso   1.000  H
  H1912    1.0000 0.17680  0.94230  0.16540  Biso   1.000  H
  H1913    1.0000 0.23610  0.96900  0.16270  Biso   1.000  H
  C908     1.0000 0.29260  0.88940  0.14630  Biso   1.000  C
  H1914    1.0000 0.30870  0.85450  0.14720  Biso   1.000  H
  H1915    1.0000 0.28700  0.89920  0.12890  Biso   1.000  H
  H1916    1.0000 0.31740  0.91450  0.15420  Biso   1.000  H
  C909     1.0000 0.18620  0.59160  0.13233  Biso   1.000  C
  H1917    1.0000 0.20310  0.61760  0.12140  Biso   1.000  H
  H1918    1.0000 0.20490  0.55810  0.13010  Biso   1.000  H
  H1919    1.0000 0.14720  0.58790  0.12810  Biso   1.000  H
  C910     1.0000 0.19180  0.60900  0.15934  Biso   1.000  C
  C911     1.0000 0.25290  0.61770  0.16547  Biso   1.000  C
  H1920    1.0000 0.25650  0.62910  0.18280  Biso   1.000  H
  H1921    1.0000 0.27320  0.58500  0.16310  Biso   1.000  H
  H1922    1.0000 0.26810  0.64440  0.15440  Biso   1.000  H
  C912     1.0000 0.16840  0.56760  0.17643  Biso   1.000  C
  H1923    1.0000 0.17170  0.57910  0.19370  Biso   1.000  H
  H1924    1.0000 0.12950  0.56180  0.17240  Biso   1.000  H
  H1925    1.0000 0.18900  0.53510  0.17420  Biso   1.000  H
  C913     1.0000 0.15200  0.68620  0.18300  Biso   1.000  C
  C914     1.0000 0.10650  0.75750  0.20243  Biso   1.000  C
  H1926    1.0000 0.10000  0.73400  0.21670  Biso   1.000  H
  H1927    1.0000 0.13830  0.78020  0.20640  Biso   1.000  H
  C915     1.0000 0.05550  0.79060  0.19763  Biso   1.000  C
  H1928    1.0000 0.05170  0.81730  0.21080  Biso   1.000  H
  H1929    1.0000 0.02220  0.76830  0.19790  Biso   1.000  H
  C916     1.0000 0.03267  0.85980  0.16966  Biso   1.000  C
  C917     1.0000 0.02180  0.93240  0.13791  Biso   1.000  C
  C918     1.0000 0.04270  0.93830  0.11143  Biso   1.000  C
  H1930    1.0000 0.08280  0.93450  0.11120  Biso   1.000  H
  H1931    1.0000 0.02590  0.91140  0.10090  Biso   1.000  H
  H1932    1.0000 0.03260  0.97280  0.10510  Biso   1.000  H
  C919     1.0000 0.95870  0.93730  0.13808  Biso   1.000  C
  H1933    1.0000 0.94270  0.91080  0.12710  Biso   1.000  H
  H1934    1.0000 0.94500  0.93220  0.15500  Biso   1.000  H
  H1935    1.0000 0.94810  0.97200  0.13220  Biso   1.000  H
  C920     1.0000 0.04690  0.97460  0.15430  Biso   1.000  C
  H1936    1.0000 0.08710  0.97100  0.15440  Biso   1.000  H
  H1937    1.0000 0.03690  0.00890  0.14780  Biso   1.000  H
  H1938    1.0000 0.03280  0.97100  0.17130  Biso   1.000  H
  Zn23     1.0000 0.10421  0.81104  0.31920  Biso   1.000  Zn
  O187     1.0000 0.21168  0.70776  0.28283  Biso   1.000  O
  O188     1.0000 0.01759  0.89959  0.26633  Biso   1.000  O
  O189     1.0000 0.02010  0.71461  0.36983  Biso   1.000  O
  O190     1.0000 0.19737  0.92326  0.35662  Biso   1.000  O
  N275     1.0000 0.14522  0.76608  0.29545  Biso   1.000  N
  N276     1.0000 0.07108  0.84345  0.28946  Biso   1.000  N
  N277     1.0000 0.07361  0.77401  0.34849  Biso   1.000  N
  N278     1.0000 0.13616  0.85983  0.34405  Biso   1.000  N
  N279     1.0000 0.19170  0.71782  0.32400  Biso   1.000  N
  H1939    1.0000 0.17120  0.73460  0.33480  Biso   1.000  H
  N280     1.0000 0.99969  0.88743  0.30769  Biso   1.000  N
  H1940    1.0000 0.00220  0.86480  0.31990  Biso   1.000  H
  N281     1.0000 0.02935  0.70936  0.32730  Biso   1.000  N
  H1941    1.0000 0.03240  0.72870  0.31390  Biso   1.000  H
  N282     1.0000 0.15904  0.92585  0.31772  Biso   1.000  N
  H1942    1.0000 0.14120  0.90760  0.30650  Biso   1.000  H
  C921     1.0000 0.22150  0.68060  0.36226  Biso   1.000  C
  H1943    1.0000 0.22960  0.71540  0.36880  Biso   1.000  H
  H1944    1.0000 0.18310  0.67160  0.36590  Biso   1.000  H
  H1945    1.0000 0.24600  0.65510  0.37020  Biso   1.000  H
  C922     1.0000 0.23070  0.67990  0.33413  Biso   1.000  C
  C923     1.0000 0.28970  0.69640  0.32816  Biso   1.000  C
  H1946    1.0000 0.29410  0.69970  0.31010  Biso   1.000  H
  H1947    1.0000 0.29760  0.72990  0.33610  Biso   1.000  H
  H1948    1.0000 0.31540  0.67000  0.33440  Biso   1.000  H
  C924     1.0000 0.22030  0.62590  0.32436  Biso   1.000  C
  H1949    1.0000 0.22730  0.62510  0.30640  Biso   1.000  H
  H1950    1.0000 0.24500  0.60120  0.33270  Biso   1.000  H
  H1951    1.0000 0.18200  0.61610  0.32760  Biso   1.000  H
  C925     1.0000 0.18370  0.73000  0.29941  Biso   1.000  C
  C926     1.0000 0.13110  0.77910  0.27001  Biso   1.000  C
  H1952    1.0000 0.16490  0.77820  0.25970  Biso   1.000  H
  H1953    1.0000 0.10550  0.75240  0.26340  Biso   1.000  H
  C927     1.0000 0.10510  0.83130  0.26778  Biso   1.000  C
  H1954    1.0000 0.08200  0.83220  0.25260  Biso   1.000  H
  H1955    1.0000 0.13420  0.85800  0.26600  Biso   1.000  H
  C928     1.0000 0.02980  0.87710  0.28636  Biso   1.000  C
  C929     1.0000 0.96390  0.93300  0.31155  Biso   1.000  C
  C930     1.0000 0.95020  0.93380  0.33898  Biso   1.000  C
  H1956    1.0000 0.98420  0.93680  0.34870  Biso   1.000  H
  H1957    1.0000 0.92630  0.96370  0.34260  Biso   1.000  H
  H1958    1.0000 0.93110  0.90150  0.34350  Biso   1.000  H
  C931     1.0000 0.91070  0.92810  0.29636  Biso   1.000  C
  H1959    1.0000 0.89010  0.89740  0.30190  Biso   1.000  H
  H1960    1.0000 0.88810  0.95940  0.29880  Biso   1.000  H
  H1961    1.0000 0.91980  0.92450  0.27870  Biso   1.000  H
  C932     1.0000 0.99310  0.98270  0.30447  Biso   1.000  C
  H1962    1.0000 0.02770  0.98550  0.31380  Biso   1.000  H
  H1963    1.0000 0.00100  0.98250  0.28660  Biso   1.000  H
  H1964    1.0000 0.96950  0.01260  0.30840  Biso   1.000  H
  C933     1.0000 0.01390  0.64560  0.29628  Biso   1.000  C
  H1965    1.0000 0.98720  0.66870  0.28820  Biso   1.000  H
  H1966    1.0000 0.05090  0.65320  0.29000  Biso   1.000  H
  H1967    1.0000 0.00450  0.60930  0.29270  Biso   1.000  H
  C934     1.0000 0.01240  0.65450  0.32422  Biso   1.000  C
  C935     1.0000 0.95360  0.64570  0.33349  Biso   1.000  C
  H1968    1.0000 0.92830  0.66870  0.32450  Biso   1.000  H
  H1969    1.0000 0.94310  0.60930  0.33060  Biso   1.000  H
  H1970    1.0000 0.95170  0.65330  0.35130  Biso   1.000  H
  C936     1.0000 0.05160  0.61820  0.33747  Biso   1.000  C
  H1971    1.0000 0.04970  0.62450  0.35540  Biso   1.000  H
  H1972    1.0000 0.04120  0.58200  0.33400  Biso   1.000  H
  H1973    1.0000 0.08920  0.62440  0.33160  Biso   1.000  H
  C937     1.0000 0.04077  0.73250  0.35023  Biso   1.000  C
  C938     1.0000 0.08420  0.80350  0.37117  Biso   1.000  C
  H1974    1.0000 0.05330  0.82770  0.37440  Biso   1.000  H
  H1975    1.0000 0.08740  0.77950  0.38550  Biso   1.000  H
  C939     1.0000 0.13778  0.83435  0.36813  Biso   1.000  C
  H1976    1.0000 0.16980  0.81060  0.36910  Biso   1.000  H
  H1977    1.0000 0.14120  0.86060  0.38150  Biso   1.000  H
  C940     1.0000 0.16567  0.90323  0.34074  Biso   1.000  C
  C941     1.0000 0.17890  0.97750  0.31009  Biso   1.000  C
  C942     1.0000 0.15550  0.98620  0.28409  Biso   1.000  C
  H1978    1.0000 0.11520  0.98370  0.28470  Biso   1.000  H
  H1979    1.0000 0.16610  0.02080  0.27810  Biso   1.000  H
  H1980    1.0000 0.17000  0.95960  0.27280  Biso   1.000  H
  C943     1.0000 0.24150  0.97860  0.30917  Biso   1.000  C
  H1981    1.0000 0.25630  0.96820  0.32540  Biso   1.000  H
  H1982    1.0000 0.25450  0.95440  0.29640  Biso   1.000  H
  H1983    1.0000 0.25400  0.01390  0.30520  Biso   1.000  H
  C944     1.0000 0.15780  0.02000  0.32746  Biso   1.000  C
  H1984    1.0000 0.11780  0.01710  0.32910  Biso   1.000  H
  H1985    1.0000 0.17490  0.01590  0.34380  Biso   1.000  H
  H1986    1.0000 0.16730  0.05420  0.32060  Biso   1.000  H
  Zn24     1.0000 0.13460  0.76566  0.48446  Biso   1.000  Zn
  O191     1.0000 0.04054  0.65243  0.44718  Biso   1.000  O
  O192     1.0000 0.22199  0.85850  0.43385  Biso   1.000  O
  O193     1.0000 0.22718  0.82397  0.03449  Biso   1.000  O
  O194     1.0000 0.04557  0.61878  0.02173  Biso   1.000  O
  N283     1.0000 0.09767  0.71842  0.46052  Biso   1.000  N
  N284     1.0000 0.17106  0.79683  0.45500  Biso   1.000  N
  N285     1.0000 0.16878  0.76748  0.01391  Biso   1.000  N
  N286     1.0000 0.10509  0.68225  0.00852  Biso   1.000  N
  N287     1.0000 0.05013  0.66926  0.48869  Biso   1.000  N
  H1987    1.0000 0.07140  0.68410  0.49990  Biso   1.000  H
  N288     1.0000 0.23829  0.84211  0.47522  Biso   1.000  N
  H1988    1.0000 0.24290  0.81550  0.48530  Biso   1.000  H
  N289     1.0000 0.20126  0.84040  0.99424  Biso   1.000  N
  H1989    1.0000 0.19260  0.82500  0.98020  Biso   1.000  H
  N290     1.0000 0.06577  0.62782  0.98037  Biso   1.000  N
  H1990    1.0000 0.08080  0.64810  0.96910  Biso   1.000  H
  C945     1.0000 0.00770  0.64100  0.52629  Biso   1.000  C
  H1991    1.0000 0.00090  0.67730  0.53110  Biso   1.000  H
  H1992    1.0000 0.97940  0.61860  0.53370  Biso   1.000  H
  H1993    1.0000 0.04410  0.63030  0.53230  Biso   1.000  H
  C946     1.0000 0.00560  0.63620  0.49797  Biso   1.000  C
  C947     1.0000 0.01480  0.57980  0.49074  Biso   1.000  C
  H1994    1.0000 0.01780  0.57710  0.47260  Biso   1.000  H
  H1995    1.0000 0.04900  0.56710  0.49840  Biso   1.000  H
  H1996    1.0000 0.98380  0.55860  0.49650  Biso   1.000  H
  C948     1.0000 0.95000  0.65450  0.48841  Biso   1.000  C
  H1997    1.0000 0.94490  0.69140  0.49260  Biso   1.000  H
  H1998    1.0000 0.94860  0.65030  0.47030  Biso   1.000  H
  H1999    1.0000 0.92070  0.63380  0.49610  Biso   1.000  H
  C949     1.0000 0.06195  0.67950  0.46406  Biso   1.000  C
  C950     1.0000 0.11865  0.72684  0.43537  Biso   1.000  C
  H2000    1.0000 0.14820  0.70130  0.43180  Biso   1.000  H
  H2001    1.0000 0.08860  0.72120  0.42320  Biso   1.000  H
  C951     1.0000 0.14125  0.78192  0.43249  Biso   1.000  C
  H2002    1.0000 0.11060  0.80650  0.42960  Biso   1.000  H
  H2003    1.0000 0.16630  0.78340  0.41800  Biso   1.000  H
  C952     1.0000 0.20919  0.83376  0.45319  Biso   1.000  C
  C953     1.0000 0.26160  0.89241  0.48266  Biso   1.000  C
  C954     1.0000 0.27890  0.88620  0.50974  Biso   1.000  C
  H2004    1.0000 0.30610  0.85810  0.51110  Biso   1.000  H
  H2005    1.0000 0.29520  0.91880  0.51570  Biso   1.000  H
  H2006    1.0000 0.24660  0.87760  0.51980  Biso   1.000  H
  C955     1.0000 0.31170  0.90660  0.46718  Biso   1.000  C
  H2007    1.0000 0.33980  0.87950  0.46900  Biso   1.000  H
  H2008    1.0000 0.30100  0.90940  0.44970  Biso   1.000  H
  H2009    1.0000 0.32660  0.94000  0.47290  Biso   1.000  H
  C956     1.0000 0.21720  0.93470  0.48078  Biso   1.000  C
  H2010    1.0000 0.18520  0.92460  0.49070  Biso   1.000  H
  H2011    1.0000 0.23200  0.96770  0.48710  Biso   1.000  H
  H2012    1.0000 0.20620  0.93900  0.46340  Biso   1.000  H
  C957     1.0000 0.20220  0.91380  0.96702  Biso   1.000  C
  H2013    1.0000 0.22430  0.89390  0.95510  Biso   1.000  H
  H2014    1.0000 0.21060  0.95100  0.96540  Biso   1.000  H
  H2015    1.0000 0.16300  0.90800  0.96370  Biso   1.000  H
  C958     1.0000 0.21580  0.89590  0.99327  Biso   1.000  C
  C959     1.0000 0.27810  0.90240  0.99813  Biso   1.000  C
  H2016    1.0000 0.28680  0.89020  0.01490  Biso   1.000  H
  H2017    1.0000 0.28810  0.93920  0.99660  Biso   1.000  H
  H2018    1.0000 0.29880  0.88180  0.98600  Biso   1.000  H
  C960     1.0000 0.18280  0.92750  0.01229  Biso   1.000  C
  H2019    1.0000 0.19080  0.91470  0.02910  Biso   1.000  H
  H2020    1.0000 0.14340  0.92380  0.00890  Biso   1.000  H
  H2021    1.0000 0.19320  0.96430  0.01110  Biso   1.000  H
  C961     1.0000 0.20009  0.81040  0.01578  Biso   1.000  C
  C962     1.0000 0.16570  0.73250  0.03515  Biso   1.000  C
  H2022    1.0000 0.16720  0.75270  0.05080  Biso   1.000  H
  H2023    1.0000 0.19730  0.70800  0.03490  Biso   1.000  H
  C963     1.0000 0.11210  0.70240  0.03368  Biso   1.000  C
  H2024    1.0000 0.11260  0.67320  0.04570  Biso   1.000  H
  H2025    1.0000 0.08090  0.72560  0.03790  Biso   1.000  H
  C964     1.0000 0.07140  0.64250  0.00502  Biso   1.000  C
  C965     1.0000 0.03660  0.58100  0.97161  Biso   1.000  C
  C966     1.0000 0.04640  0.57950  0.94349  Biso   1.000  C
  H2026    1.0000 0.03130  0.61110  0.93590  Biso   1.000  H
  H2027    1.0000 0.02810  0.54880  0.93640  Biso   1.000  H
  H2028    1.0000 0.08600  0.57760  0.94020  Biso   1.000  H
  C967     1.0000 0.97450  0.58510  0.97661  Biso   1.000  C
  H2029    1.0000 0.96810  0.58810  0.99450  Biso   1.000  H
  H2030    1.0000 0.95590  0.55400  0.97030  Biso   1.000  H
  H2031    1.0000 0.95980  0.61610  0.96820  Biso   1.000  H
  C968     1.0000 0.05950  0.53180  0.98341  Biso   1.000  C
  H2032    1.0000 0.05540  0.53380  0.00150  Biso   1.000  H
  H2033    1.0000 0.09860  0.52830  0.97920  Biso   1.000  H
  H2034    1.0000 0.03930  0.50140  0.97720  Biso   1.000  H
  O195     1.0000 0.27880  0.59110  0.24040  Biso   1.000  O
  N291     1.0000 0.35390  0.54900  0.22790  Biso   1.000  N
  C969     1.0000 0.29970  0.55160  0.23090  Biso   1.000  C
  C970     1.0000 0.26520  0.50280  0.22790  Biso   1.000  C
  H2035    1.0000 0.26350  0.48420  0.24380  Biso   1.000  H
  H2036    1.0000 0.22780  0.51050  0.22210  Biso   1.000  H
  H2037    1.0000 0.28410  0.48110  0.21550  Biso   1.000  H
  C971     1.0000 0.38700  0.59540  0.23250  Biso   1.000  C
  H2038    1.0000 0.36680  0.61650  0.24460  Biso   1.000  H
  H2039    1.0000 0.42320  0.58620  0.23940  Biso   1.000  H
  H2040    1.0000 0.39200  0.61530  0.21710  Biso   1.000  H
  C972     1.0000 0.38490  0.50670  0.21670  Biso   1.000  C
  H2041    1.0000 0.39500  0.51470  0.19940  Biso   1.000  H
  H2042    1.0000 0.41840  0.50290  0.22670  Biso   1.000  H
  H2043    1.0000 0.36380  0.47410  0.21720  Biso   1.000  H
  O196     1.0000 0.29320  0.59770  0.23970  Biso   1.000  O
  N292     1.0000 0.33760  0.52870  0.22470  Biso   1.000  N
  C973     1.0000 0.33780  0.57550  0.23530  Biso   1.000  C
  C974     1.0000 0.38930  0.59340  0.24880  Biso   1.000  C
  H2044    1.0000 0.38980  0.58370  0.26640  Biso   1.000  H
  H2045    1.0000 0.41870  0.57480  0.24000  Biso   1.000  H
  H2046    1.0000 0.39520  0.63110  0.24720  Biso   1.000  H
  C975     1.0000 0.28520  0.50780  0.21600  Biso   1.000  C
  H2047    1.0000 0.25780  0.52990  0.22420  Biso   1.000  H
  H2048    1.0000 0.27970  0.50930  0.19790  Biso   1.000  H
  H2049    1.0000 0.28100  0.47170  0.22170  Biso   1.000  H
  C976     1.0000 0.38060  0.48940  0.22660  Biso   1.000  C
  H2050    1.0000 0.37280  0.46160  0.23860  Biso   1.000  H
  H2051    1.0000 0.38080  0.47480  0.20970  Biso   1.000  H
  H2052    1.0000 0.41660  0.50480  0.23030  Biso   1.000  H
  O197     1.0000 0.97630  0.02520  0.23730  Biso   1.000  O
  N293     1.0000 0.89270  0.06110  0.23598  Biso   1.000  N
  C977     1.0000 0.94300  0.05790  0.24535  Biso   1.000  C
  C978     1.0000 0.96030  0.09620  0.26520  Biso   1.000  C
  H2053    1.0000 0.96370  0.13110  0.25800  Biso   1.000  H
  H2054    1.0000 0.93300  0.09680  0.27860  Biso   1.000  H
  H2055    1.0000 0.99610  0.08530  0.27200  Biso   1.000  H
  C979     1.0000 0.87530  0.02450  0.21680  Biso   1.000  C
  H2056    1.0000 0.86170  0.99250  0.22470  Biso   1.000  H
  H2057    1.0000 0.84570  0.04040  0.20700  Biso   1.000  H
  H2058    1.0000 0.90640  0.01620  0.20590  Biso   1.000  H
  C980     1.0000 0.84800  0.09390  0.24490  Biso   1.000  C
  H2059    1.0000 0.85740  0.10720  0.26150  Biso   1.000  H
  H2060    1.0000 0.84430  0.12310  0.23330  Biso   1.000  H
  H2061    1.0000 0.81310  0.07470  0.24580  Biso   1.000  H
  O198     1.0000 0.96650  0.02180  0.23300  Biso   1.000  O
  N294     1.0000 0.90540  0.08020  0.24700  Biso   1.000  N
  C981     1.0000 0.92000  0.04190  0.23190  Biso   1.000  C
  C982     1.0000 0.88310  0.02960  0.20990  Biso   1.000  C
  H2062    1.0000 0.84710  0.01840  0.21620  Biso   1.000  H
  H2063    1.0000 0.87850  0.06020  0.19920  Biso   1.000  H
  H2064    1.0000 0.89980  0.00120  0.20030  Biso   1.000  H
  C983     1.0000 0.94370  0.09920  0.26580  Biso   1.000  C
  H2065    1.0000 0.94460  0.13740  0.26530  Biso   1.000  H
  H2066    1.0000 0.93200  0.08750  0.28230  Biso   1.000  H
  H2067    1.0000 0.98060  0.08550  0.26220  Biso   1.000  H
  C984     1.0000 0.85850  0.11480  0.24340  Biso   1.000  C
  H2068    1.0000 0.82600  0.09360  0.23970  Biso   1.000  H
  H2069    1.0000 0.85200  0.13490  0.25860  Biso   1.000  H
  H2070    1.0000 0.86540  0.13880  0.22950  Biso   1.000  H
  O199     1.0000 0.88820  0.68960  0.40240  Biso   1.000  O
  N295     1.0000 0.79780  0.70620  0.40213  Biso   1.000  N
  C985     1.0000 0.84790  0.71150  0.39277  Biso   1.000  C
  C986     1.0000 0.85510  0.74070  0.36850  Biso   1.000  C
  H2071    1.0000 0.83610  0.72050  0.35570  Biso   1.000  H
  H2072    1.0000 0.83870  0.77550  0.36960  Biso   1.000  H
  H2073    1.0000 0.89420  0.74390  0.36420  Biso   1.000  H
  C987     1.0000 0.78990  0.67690  0.42510  Biso   1.000  C
  H2074    1.0000 0.77720  0.70110  0.43790  Biso   1.000  H
  H2075    1.0000 0.76280  0.64890  0.42300  Biso   1.000  H
  H2076    1.0000 0.82540  0.66190  0.43000  Biso   1.000  H
  C988     1.0000 0.74890  0.73500  0.39460  Biso   1.000  C
  H2077    1.0000 0.72730  0.71330  0.38320  Biso   1.000  H
  H2078    1.0000 0.72670  0.74330  0.40930  Biso   1.000  H
  H2079    1.0000 0.75950  0.76740  0.38620  Biso   1.000  H
  O200     1.0000 0.88340  0.69130  0.40933  Biso   1.000  O
  N296     1.0000 0.81110  0.71780  0.38681  Biso   1.000  N
  C989     1.0000 0.83300  0.69860  0.40741  Biso   1.000  C
  C990     1.0000 0.79650  0.69130  0.43001  Biso   1.000  C
  H2080    1.0000 0.79280  0.72430  0.43900  Biso   1.000  H
  H2081    1.0000 0.76010  0.67960  0.42450  Biso   1.000  H
  H2082    1.0000 0.81270  0.66500  0.44100  Biso   1.000  H
  C991     1.0000 0.84650  0.73060  0.36581  Biso   1.000  C
  H2083    1.0000 0.88140  0.71170  0.36750  Biso   1.000  H
  H2084    1.0000 0.82880  0.72110  0.35010  Biso   1.000  H
  H2085    1.0000 0.85370  0.76820  0.36600  Biso   1.000  H
  C992     1.0000 0.75520  0.73750  0.38386  Biso   1.000  C
  H2086    1.0000 0.75240  0.77140  0.39220  Biso   1.000  H
  H2087    1.0000 0.74680  0.74150  0.36610  Biso   1.000  H
  H2088    1.0000 0.72900  0.71310  0.39140  Biso   1.000  H
  O201     1.0000 0.94186  0.57050  0.40313  Biso   1.000  O
  N297     1.0000 0.87260  0.52800  0.42166  Biso   1.000  N
  C993     1.0000 0.89310  0.55570  0.40311  Biso   1.000  C
  C994     1.0000 0.85630  0.56820  0.38120  Biso   1.000  C
  H2089    1.0000 0.87810  0.58520  0.36820  Biso   1.000  H
  H2090    1.0000 0.84150  0.53530  0.37480  Biso   1.000  H
  H2091    1.0000 0.82590  0.59100  0.38610  Biso   1.000  H
  C995     1.0000 0.90600  0.51640  0.44346  Biso   1.000  C
  H2092    1.0000 0.88580  0.52610  0.45850  Biso   1.000  H
  H2093    1.0000 0.91460  0.47910  0.44400  Biso   1.000  H
  H2094    1.0000 0.94020  0.53650  0.44250  Biso   1.000  H
  C996     1.0000 0.81840  0.50370  0.42210  Biso   1.000  C
  H2095    1.0000 0.81770  0.47290  0.41140  Biso   1.000  H
  H2096    1.0000 0.80980  0.49350  0.43920  Biso   1.000  H
  H2097    1.0000 0.79090  0.52890  0.41630  Biso   1.000  H
  O202     1.0000 0.94540  0.56620  0.41360  Biso   1.000  O
  N298     1.0000 0.85830  0.53950  0.40880  Biso   1.000  N
  C997     1.0000 0.90550  0.54040  0.42120  Biso   1.000  C
  C998     1.0000 0.91340  0.50290  0.44270  Biso   1.000  C
  H2098    1.0000 0.95180  0.50310  0.44830  Biso   1.000  H
  H2099    1.0000 0.88970  0.51670  0.45590  Biso   1.000  H
  H2100    1.0000 0.90230  0.46710  0.43880  Biso   1.000  H
  C999     1.0000 0.85330  0.56700  0.38530  Biso   1.000  C
  H2101    1.0000 0.88350  0.59230  0.38410  Biso   1.000  H
  H2102    1.0000 0.85440  0.54370  0.37080  Biso   1.000  H
  H2103    1.0000 0.81800  0.58560  0.38550  Biso   1.000  H
  C1000    1.0000 0.80890  0.51080  0.41560  Biso   1.000  C
  H2104    1.0000 0.79460  0.52210  0.43180  Biso   1.000  H
  H2105    1.0000 0.78050  0.51560  0.40290  Biso   1.000  H
  H2106    1.0000 0.81910  0.47390  0.41650  Biso   1.000  H
  O203     1.0000 0.35361  0.82860  0.08340  Biso   1.000  O
  N299     1.0000 0.42348  0.79710  0.06085  Biso   1.000  N
  C1001    1.0000 0.40280  0.81530  0.08189  Biso   1.000  C
  C1002    1.0000 0.44080  0.82380  0.10383  Biso   1.000  C
  H2107    1.0000 0.42020  0.83930  0.11760  Biso   1.000  H
  H2108    1.0000 0.47100  0.84720  0.09900  Biso   1.000  H
  H2109    1.0000 0.45610  0.79020  0.10900  Biso   1.000  H
  C1003    1.0000 0.38760  0.78860  0.03952  Biso   1.000  C
  H2110    1.0000 0.37830  0.75160  0.03810  Biso   1.000  H
  H2111    1.0000 0.40640  0.80010  0.02440  Biso   1.000  H
  H2112    1.0000 0.35380  0.80890  0.04180  Biso   1.000  H
  C1004    1.0000 0.47960  0.77920  0.05671  Biso   1.000  C
  H2113    1.0000 0.49640  0.79940  0.04320  Biso   1.000  H
  H2114    1.0000 0.47910  0.74220  0.05220  Biso   1.000  H
  H2115    1.0000 0.50120  0.78390  0.07200  Biso   1.000  H
  O204     1.0000 0.34670  0.68080  0.58310  Biso   1.000  O
  N300     1.0000 0.43590  0.69600  0.57540  Biso   1.000  N
  C1005    1.0000 0.38350  0.69490  0.56850  Biso   1.000  C
  C1006    1.0000 0.36830  0.71430  0.54280  Biso   1.000  C
  H2116    1.0000 0.37990  0.75080  0.54150  Biso   1.000  H
  H2117    1.0000 0.38720  0.69370  0.53010  Biso   1.000  H
  H2118    1.0000 0.32840  0.71190  0.54040  Biso   1.000  H
  C1007    1.0000 0.45140  0.67900  0.60030  Biso   1.000  C
  H2119    1.0000 0.42120  0.65790  0.60700  Biso   1.000  H
  H2120    1.0000 0.48470  0.65760  0.59910  Biso   1.000  H
  H2121    1.0000 0.45840  0.70860  0.61140  Biso   1.000  H
  C1008    1.0000 0.48030  0.72280  0.56250  Biso   1.000  C
  H2122    1.0000 0.46640  0.73820  0.54700  Biso   1.000  H
  H2123    1.0000 0.49490  0.75040  0.57330  Biso   1.000  H
  H2124    1.0000 0.50980  0.69790  0.55860  Biso   1.000  H
  O205     1.0000 0.30650  0.96280  0.06758  Biso   1.000  O
  N301     1.0000 0.38480  0.00410  0.07756  Biso   1.000  N
  C1009    1.0000 0.33920  0.99930  0.06427  Biso   1.000  C
  C1010    1.0000 0.32990  0.03670  0.04288  Biso   1.000  C
  H2125    1.0000 0.30210  0.02240  0.03160  Biso   1.000  H
  H2126    1.0000 0.36470  0.04130  0.03390  Biso   1.000  H
  H2127    1.0000 0.31730  0.07040  0.04920  Biso   1.000  H
  C1011    1.0000 0.39460  0.96990  0.09869  Biso   1.000  C
  H2128    1.0000 0.36360  0.94570  0.10040  Biso   1.000  H
  H2129    1.0000 0.39810  0.99070  0.11390  Biso   1.000  H
  H2130    1.0000 0.42860  0.95010  0.09600  Biso   1.000  H
  C1012    1.0000 0.42460  0.04630  0.07560  Biso   1.000  C
  H2131    1.0000 0.42360  0.05830  0.05830  Biso   1.000  H
  H2132    1.0000 0.46090  0.03120  0.07910  Biso   1.000  H
  H2133    1.0000 0.41790  0.07570  0.08680  Biso   1.000  H
  O206     1.0000 0.30370  0.53370  0.57440  Biso   1.000  O
  N302     1.0000 0.36850  0.47400  0.56670  Biso   1.000  N
  C1013    1.0000 0.35060  0.51620  0.57840  Biso   1.000  C
  C1014    1.0000 0.39060  0.54700  0.59420  Biso   1.000  C
  H2134    1.0000 0.38970  0.53370  0.61130  Biso   1.000  H
  H2135    1.0000 0.42790  0.54320  0.58750  Biso   1.000  H
  H2136    1.0000 0.38020  0.58390  0.59420  Biso   1.000  H
  C1015    1.0000 0.33080  0.44380  0.55140  Biso   1.000  C
  H2137    1.0000 0.30170  0.46700  0.54540  Biso   1.000  H
  H2138    1.0000 0.35090  0.42920  0.53720  Biso   1.000  H
  H2139    1.0000 0.31440  0.41540  0.56110  Biso   1.000  H
  C1016    1.0000 0.42160  0.44880  0.57040  Biso   1.000  C
  H2140    1.0000 0.41150  0.41750  0.57980  Biso   1.000  H
  H2141    1.0000 0.44130  0.43860  0.55520  Biso   1.000  H
  H2142    1.0000 0.44550  0.47100  0.58060  Biso   1.000  H
  O207     1.0000 0.94070  0.55840  0.07570  Biso   1.000  O
  N303     1.0000 0.87460  0.50740  0.09178  Biso   1.000  N
  C1017    1.0000 0.89280  0.54150  0.07523  Biso   1.000  C
  C1018    1.0000 0.85380  0.55980  0.05507  Biso   1.000  C
  H2143    1.0000 0.87360  0.58180  0.04320  Biso   1.000  H
  H2144    1.0000 0.82340  0.57970  0.06250  Biso   1.000  H
  H2145    1.0000 0.83890  0.52930  0.04640  Biso   1.000  H
  C1019    1.0000 0.91160  0.48550  0.11030  Biso   1.000  C
  H2146    1.0000 0.94650  0.50480  0.10980  Biso   1.000  H
  H2147    1.0000 0.91860  0.44850  0.10710  Biso   1.000  H
  H2148    1.0000 0.89480  0.48940  0.12680  Biso   1.000  H
  C1020    1.0000 0.82060  0.48250  0.09128  Biso   1.000  C
  H2149    1.0000 0.79390  0.50580  0.08330  Biso   1.000  H
  H2150    1.0000 0.80870  0.47500  0.10830  Biso   1.000  H
  H2151    1.0000 0.82290  0.44990  0.08180  Biso   1.000  H
  O208     1.0000 0.94450  0.95150  0.57900  Biso   1.000  O
  N304     1.0000 0.85640  0.97690  0.58081  Biso   1.000  N
  C1021    1.0000 0.90790  0.97810  0.58900  Biso   1.000  C
  C1022    1.0000 0.92270  0.01500  0.60990  Biso   1.000  C
  H2152    1.0000 0.96240  0.02200  0.61000  Biso   1.000  H
  H2153    1.0000 0.90250  0.04770  0.60730  Biso   1.000  H
  H2154    1.0000 0.91190  0.99980  0.62590  Biso   1.000  H
  C1023    1.0000 0.84170  0.94380  0.55990  Biso   1.000  C
  H2155    1.0000 0.87410  0.93990  0.54910  Biso   1.000  H
  H2156    1.0000 0.83030  0.90940  0.56600  Biso   1.000  H
  H2157    1.0000 0.81150  0.95940  0.55040  Biso   1.000  H
  C1024    1.0000 0.80930  0.00300  0.59200  Biso   1.000  C
  H2158    1.0000 0.81970  0.01740  0.60820  Biso   1.000  H
  H2159    1.0000 0.79750  0.03130  0.58090  Biso   1.000  H
  H2160    1.0000 0.77900  0.97820  0.59410  Biso   1.000  H
