data_image0
_cell_length_a       41.9716
_cell_length_b       41.9716
_cell_length_c       41.9716
_cell_angle_alpha    90
_cell_angle_beta     90
_cell_angle_gamma    90

_symmetry_space_group_name_H-M    "P 1"
_symmetry_int_tables_number       1

loop_
  _symmetry_equiv_pos_as_xyz
  'x, y, z'

loop_
  _atom_site_label
  _atom_site_occupancy
  _atom_site_fract_x
  _atom_site_fract_y
  _atom_site_fract_z
  _atom_site_thermal_displace_type
  _atom_site_B_iso_or_equiv
  _atom_site_type_symbol
  C1       1.0000 0.63010  0.87530  0.07980  Biso   1.000  C
  N1       1.0000 0.63310  0.87580  0.05320  Biso   1.000  N
  C2       1.0000 0.68780  0.91260  0.02400  Biso   1.000  C
  C3       1.0000 0.70900  0.93740  0.02960  Biso   1.000  C
  C4       1.0000 0.70760  0.96480  0.01110  Biso   1.000  C
  C5       1.0000 0.71740  0.93500  0.01300  Biso   1.000  C
  C6       1.0000 0.66380  0.94260  0.98150  Biso   1.000  C
  C7       1.0000 0.64460  0.83010  0.99380  Biso   1.000  C
  C8       1.0000 0.66480  0.82210  0.96870  Biso   1.000  C
  C9       1.0000 0.67600  0.79110  0.96580  Biso   1.000  C
  C10      1.0000 0.66710  0.76810  0.98790  Biso   1.000  C
  C11      1.0000 0.64690  0.77620  0.01290  Biso   1.000  C
  C12      1.0000 0.63570  0.80720  0.01580  Biso   1.000  C
  C13      1.0000 0.63870  0.83040  0.99750  Biso   1.000  C
  C14      1.0000 0.65950  0.81870  0.97450  Biso   1.000  C
  C15      1.0000 0.66500  0.78610  0.97230  Biso   1.000  C
  C16      1.0000 0.64970  0.76530  0.99310  Biso   1.000  C
  C17      1.0000 0.62900  0.77710  0.01610  Biso   1.000  C
  C18      1.0000 0.62350  0.80970  0.01830  Biso   1.000  C
  C19      1.0000 0.63010  0.37530  0.57980  Biso   1.000  C
  N2       1.0000 0.63310  0.37580  0.55320  Biso   1.000  N
  C20      1.0000 0.68780  0.41260  0.52400  Biso   1.000  C
  C21      1.0000 0.70900  0.43740  0.52960  Biso   1.000  C
  C22      1.0000 0.70760  0.46480  0.51110  Biso   1.000  C
  C23      1.0000 0.71740  0.43500  0.51300  Biso   1.000  C
  C24      1.0000 0.66380  0.44260  0.48150  Biso   1.000  C
  C25      1.0000 0.64460  0.33010  0.49380  Biso   1.000  C
  C26      1.0000 0.66480  0.32210  0.46870  Biso   1.000  C
  C27      1.0000 0.67600  0.29110  0.46580  Biso   1.000  C
  C28      1.0000 0.66710  0.26810  0.48790  Biso   1.000  C
  C29      1.0000 0.64690  0.27620  0.51290  Biso   1.000  C
  C30      1.0000 0.63570  0.30720  0.51580  Biso   1.000  C
  C31      1.0000 0.63870  0.33040  0.49750  Biso   1.000  C
  C32      1.0000 0.65950  0.31870  0.47450  Biso   1.000  C
  C33      1.0000 0.66500  0.28610  0.47230  Biso   1.000  C
  C34      1.0000 0.64970  0.26530  0.49310  Biso   1.000  C
  C35      1.0000 0.62900  0.27710  0.51610  Biso   1.000  C
  C36      1.0000 0.62350  0.30970  0.51830  Biso   1.000  C
  C37      1.0000 0.13010  0.87530  0.57980  Biso   1.000  C
  N3       1.0000 0.13310  0.87580  0.55320  Biso   1.000  N
  C38      1.0000 0.18780  0.91260  0.52400  Biso   1.000  C
  C39      1.0000 0.20900  0.93740  0.52960  Biso   1.000  C
  C40      1.0000 0.20760  0.96480  0.51110  Biso   1.000  C
  C41      1.0000 0.21740  0.93500  0.51300  Biso   1.000  C
  C42      1.0000 0.16380  0.94260  0.48150  Biso   1.000  C
  C43      1.0000 0.14460  0.83010  0.49380  Biso   1.000  C
  C44      1.0000 0.16480  0.82210  0.46870  Biso   1.000  C
  C45      1.0000 0.17600  0.79110  0.46580  Biso   1.000  C
  C46      1.0000 0.16710  0.76810  0.48790  Biso   1.000  C
  C47      1.0000 0.14690  0.77620  0.51290  Biso   1.000  C
  C48      1.0000 0.13570  0.80720  0.51580  Biso   1.000  C
  C49      1.0000 0.13870  0.83040  0.49750  Biso   1.000  C
  C50      1.0000 0.15950  0.81870  0.47450  Biso   1.000  C
  C51      1.0000 0.16500  0.78610  0.47230  Biso   1.000  C
  C52      1.0000 0.14970  0.76530  0.49310  Biso   1.000  C
  C53      1.0000 0.12900  0.77710  0.51610  Biso   1.000  C
  C54      1.0000 0.12350  0.80970  0.51830  Biso   1.000  C
  C55      1.0000 0.13010  0.37530  0.07980  Biso   1.000  C
  N4       1.0000 0.13310  0.37580  0.05320  Biso   1.000  N
  C56      1.0000 0.18780  0.41260  0.02400  Biso   1.000  C
  C57      1.0000 0.20900  0.43740  0.02960  Biso   1.000  C
  C58      1.0000 0.20760  0.46480  0.01110  Biso   1.000  C
  C59      1.0000 0.21740  0.43500  0.01300  Biso   1.000  C
  C60      1.0000 0.16380  0.44260  0.98150  Biso   1.000  C
  C61      1.0000 0.14460  0.33010  0.99380  Biso   1.000  C
  C62      1.0000 0.16480  0.32210  0.96870  Biso   1.000  C
  C63      1.0000 0.17600  0.29110  0.96580  Biso   1.000  C
  C64      1.0000 0.16710  0.26810  0.98790  Biso   1.000  C
  C65      1.0000 0.14690  0.27620  0.01290  Biso   1.000  C
  C66      1.0000 0.13570  0.30720  0.01580  Biso   1.000  C
  C67      1.0000 0.13870  0.33040  0.99750  Biso   1.000  C
  C68      1.0000 0.15950  0.31870  0.97450  Biso   1.000  C
  C69      1.0000 0.16500  0.28610  0.97230  Biso   1.000  C
  C70      1.0000 0.14970  0.26530  0.99310  Biso   1.000  C
  C71      1.0000 0.12900  0.27710  0.01610  Biso   1.000  C
  C72      1.0000 0.12350  0.30970  0.01830  Biso   1.000  C
  C73      1.0000 0.61990  0.87470  0.57980  Biso   1.000  C
  N5       1.0000 0.61690  0.87420  0.55320  Biso   1.000  N
  C74      1.0000 0.56220  0.83740  0.52400  Biso   1.000  C
  C75      1.0000 0.54100  0.81260  0.52960  Biso   1.000  C
  C76      1.0000 0.54240  0.78520  0.51110  Biso   1.000  C
  C77      1.0000 0.53260  0.81500  0.51300  Biso   1.000  C
  C78      1.0000 0.58620  0.80740  0.48150  Biso   1.000  C
  C79      1.0000 0.60540  0.91990  0.49380  Biso   1.000  C
  C80      1.0000 0.58520  0.92790  0.46870  Biso   1.000  C
  C81      1.0000 0.57400  0.95890  0.46580  Biso   1.000  C
  C82      1.0000 0.58290  0.98190  0.48790  Biso   1.000  C
  C83      1.0000 0.60310  0.97380  0.51290  Biso   1.000  C
  C84      1.0000 0.61430  0.94280  0.51580  Biso   1.000  C
  C85      1.0000 0.61130  0.91960  0.49750  Biso   1.000  C
  C86      1.0000 0.59050  0.93130  0.47450  Biso   1.000  C
  C87      1.0000 0.58500  0.96390  0.47230  Biso   1.000  C
  C88      1.0000 0.60030  0.98470  0.49310  Biso   1.000  C
  C89      1.0000 0.62100  0.97290  0.51610  Biso   1.000  C
  C90      1.0000 0.62650  0.94030  0.51830  Biso   1.000  C
  C91      1.0000 0.61990  0.37470  0.07980  Biso   1.000  C
  N6       1.0000 0.61690  0.37420  0.05320  Biso   1.000  N
  C92      1.0000 0.56220  0.33740  0.02400  Biso   1.000  C
  C93      1.0000 0.54100  0.31260  0.02960  Biso   1.000  C
  C94      1.0000 0.54240  0.28520  0.01110  Biso   1.000  C
  C95      1.0000 0.53260  0.31500  0.01300  Biso   1.000  C
  C96      1.0000 0.58620  0.30740  0.98150  Biso   1.000  C
  C97      1.0000 0.60540  0.41990  0.99380  Biso   1.000  C
  C98      1.0000 0.58520  0.42790  0.96870  Biso   1.000  C
  C99      1.0000 0.57400  0.45890  0.96580  Biso   1.000  C
  C100     1.0000 0.58290  0.48190  0.98790  Biso   1.000  C
  C101     1.0000 0.60310  0.47380  0.01290  Biso   1.000  C
  C102     1.0000 0.61430  0.44280  0.01580  Biso   1.000  C
  C103     1.0000 0.61130  0.41960  0.99750  Biso   1.000  C
  C104     1.0000 0.59050  0.43130  0.97450  Biso   1.000  C
  C105     1.0000 0.58500  0.46390  0.97230  Biso   1.000  C
  C106     1.0000 0.60030  0.48470  0.99310  Biso   1.000  C
  C107     1.0000 0.62100  0.47290  0.01610  Biso   1.000  C
  C108     1.0000 0.62650  0.44030  0.01830  Biso   1.000  C
  C109     1.0000 0.11990  0.87470  0.07980  Biso   1.000  C
  N7       1.0000 0.11690  0.87420  0.05320  Biso   1.000  N
  C110     1.0000 0.06220  0.83740  0.02400  Biso   1.000  C
  C111     1.0000 0.04100  0.81260  0.02960  Biso   1.000  C
  C112     1.0000 0.04240  0.78520  0.01110  Biso   1.000  C
  C113     1.0000 0.03260  0.81500  0.01300  Biso   1.000  C
  C114     1.0000 0.08620  0.80740  0.98150  Biso   1.000  C
  C115     1.0000 0.10540  0.91990  0.99380  Biso   1.000  C
  C116     1.0000 0.08520  0.92790  0.96870  Biso   1.000  C
  C117     1.0000 0.07400  0.95890  0.96580  Biso   1.000  C
  C118     1.0000 0.08290  0.98190  0.98790  Biso   1.000  C
  C119     1.0000 0.10310  0.97380  0.01290  Biso   1.000  C
  C120     1.0000 0.11430  0.94280  0.01580  Biso   1.000  C
  C121     1.0000 0.11130  0.91960  0.99750  Biso   1.000  C
  C122     1.0000 0.09050  0.93130  0.97450  Biso   1.000  C
  C123     1.0000 0.08500  0.96390  0.97230  Biso   1.000  C
  C124     1.0000 0.10030  0.98470  0.99310  Biso   1.000  C
  C125     1.0000 0.12100  0.97290  0.01610  Biso   1.000  C
  C126     1.0000 0.12650  0.94030  0.01830  Biso   1.000  C
  C127     1.0000 0.11990  0.37470  0.57980  Biso   1.000  C
  N8       1.0000 0.11690  0.37420  0.55320  Biso   1.000  N
  C128     1.0000 0.06220  0.33740  0.52400  Biso   1.000  C
  C129     1.0000 0.04100  0.31260  0.52960  Biso   1.000  C
  C130     1.0000 0.04240  0.28520  0.51110  Biso   1.000  C
  C131     1.0000 0.03260  0.31500  0.51300  Biso   1.000  C
  C132     1.0000 0.08620  0.30740  0.48150  Biso   1.000  C
  C133     1.0000 0.10540  0.41990  0.49380  Biso   1.000  C
  C134     1.0000 0.08520  0.42790  0.46870  Biso   1.000  C
  C135     1.0000 0.07400  0.45890  0.46580  Biso   1.000  C
  C136     1.0000 0.08290  0.48190  0.48790  Biso   1.000  C
  C137     1.0000 0.10310  0.47380  0.51290  Biso   1.000  C
  C138     1.0000 0.11430  0.44280  0.51580  Biso   1.000  C
  C139     1.0000 0.11130  0.41960  0.49750  Biso   1.000  C
  C140     1.0000 0.09050  0.43130  0.47450  Biso   1.000  C
  C141     1.0000 0.08500  0.46390  0.47230  Biso   1.000  C
  C142     1.0000 0.10030  0.48470  0.49310  Biso   1.000  C
  C143     1.0000 0.12100  0.47290  0.51610  Biso   1.000  C
  C144     1.0000 0.12650  0.44030  0.51830  Biso   1.000  C
  C145     1.0000 0.11990  0.37530  0.17020  Biso   1.000  C
  N9       1.0000 0.11690  0.37580  0.19680  Biso   1.000  N
  C146     1.0000 0.06220  0.41260  0.22600  Biso   1.000  C
  C147     1.0000 0.04100  0.43740  0.22040  Biso   1.000  C
  C148     1.0000 0.04240  0.46480  0.23890  Biso   1.000  C
  C149     1.0000 0.03260  0.43500  0.23700  Biso   1.000  C
  C150     1.0000 0.08620  0.44260  0.26850  Biso   1.000  C
  C151     1.0000 0.10540  0.33010  0.25620  Biso   1.000  C
  C152     1.0000 0.08520  0.32210  0.28130  Biso   1.000  C
  C153     1.0000 0.07400  0.29110  0.28420  Biso   1.000  C
  C154     1.0000 0.08290  0.26810  0.26210  Biso   1.000  C
  C155     1.0000 0.10310  0.27620  0.23710  Biso   1.000  C
  C156     1.0000 0.11430  0.30720  0.23420  Biso   1.000  C
  C157     1.0000 0.11130  0.33040  0.25250  Biso   1.000  C
  C158     1.0000 0.09050  0.31870  0.27550  Biso   1.000  C
  C159     1.0000 0.08500  0.28610  0.27770  Biso   1.000  C
  C160     1.0000 0.10030  0.26530  0.25690  Biso   1.000  C
  C161     1.0000 0.12100  0.27710  0.23390  Biso   1.000  C
  C162     1.0000 0.12650  0.30970  0.23170  Biso   1.000  C
  C163     1.0000 0.11990  0.87530  0.67020  Biso   1.000  C
  N10      1.0000 0.11690  0.87580  0.69680  Biso   1.000  N
  C164     1.0000 0.06220  0.91260  0.72600  Biso   1.000  C
  C165     1.0000 0.04100  0.93740  0.72040  Biso   1.000  C
  C166     1.0000 0.04240  0.96480  0.73890  Biso   1.000  C
  C167     1.0000 0.03260  0.93500  0.73700  Biso   1.000  C
  C168     1.0000 0.08620  0.94260  0.76850  Biso   1.000  C
  C169     1.0000 0.10540  0.83010  0.75620  Biso   1.000  C
  C170     1.0000 0.08520  0.82210  0.78130  Biso   1.000  C
  C171     1.0000 0.07400  0.79110  0.78420  Biso   1.000  C
  C172     1.0000 0.08290  0.76810  0.76210  Biso   1.000  C
  C173     1.0000 0.10310  0.77620  0.73710  Biso   1.000  C
  C174     1.0000 0.11430  0.80720  0.73420  Biso   1.000  C
  C175     1.0000 0.11130  0.83040  0.75250  Biso   1.000  C
  C176     1.0000 0.09050  0.81870  0.77550  Biso   1.000  C
  C177     1.0000 0.08500  0.78610  0.77770  Biso   1.000  C
  C178     1.0000 0.10030  0.76530  0.75690  Biso   1.000  C
  C179     1.0000 0.12100  0.77710  0.73390  Biso   1.000  C
  C180     1.0000 0.12650  0.80970  0.73170  Biso   1.000  C
  C181     1.0000 0.61990  0.37530  0.67020  Biso   1.000  C
  N11      1.0000 0.61690  0.37580  0.69680  Biso   1.000  N
  C182     1.0000 0.56220  0.41260  0.72600  Biso   1.000  C
  C183     1.0000 0.54100  0.43740  0.72040  Biso   1.000  C
  C184     1.0000 0.54240  0.46480  0.73890  Biso   1.000  C
  C185     1.0000 0.53260  0.43500  0.73700  Biso   1.000  C
  C186     1.0000 0.58620  0.44260  0.76850  Biso   1.000  C
  C187     1.0000 0.60540  0.33010  0.75620  Biso   1.000  C
  C188     1.0000 0.58520  0.32210  0.78130  Biso   1.000  C
  C189     1.0000 0.57400  0.29110  0.78420  Biso   1.000  C
  C190     1.0000 0.58290  0.26810  0.76210  Biso   1.000  C
  C191     1.0000 0.60310  0.27620  0.73710  Biso   1.000  C
  C192     1.0000 0.61430  0.30720  0.73420  Biso   1.000  C
  C193     1.0000 0.61130  0.33040  0.75250  Biso   1.000  C
  C194     1.0000 0.59050  0.31870  0.77550  Biso   1.000  C
  C195     1.0000 0.58500  0.28610  0.77770  Biso   1.000  C
  C196     1.0000 0.60030  0.26530  0.75690  Biso   1.000  C
  C197     1.0000 0.62100  0.27710  0.73390  Biso   1.000  C
  C198     1.0000 0.62650  0.30970  0.73170  Biso   1.000  C
  C199     1.0000 0.61990  0.87530  0.17020  Biso   1.000  C
  N12      1.0000 0.61690  0.87580  0.19680  Biso   1.000  N
  C200     1.0000 0.56220  0.91260  0.22600  Biso   1.000  C
  C201     1.0000 0.54100  0.93740  0.22040  Biso   1.000  C
  C202     1.0000 0.54240  0.96480  0.23890  Biso   1.000  C
  C203     1.0000 0.53260  0.93500  0.23700  Biso   1.000  C
  C204     1.0000 0.58620  0.94260  0.26850  Biso   1.000  C
  C205     1.0000 0.60540  0.83010  0.25620  Biso   1.000  C
  C206     1.0000 0.58520  0.82210  0.28130  Biso   1.000  C
  C207     1.0000 0.57400  0.79110  0.28420  Biso   1.000  C
  C208     1.0000 0.58290  0.76810  0.26210  Biso   1.000  C
  C209     1.0000 0.60310  0.77620  0.23710  Biso   1.000  C
  C210     1.0000 0.61430  0.80720  0.23420  Biso   1.000  C
  C211     1.0000 0.61130  0.83040  0.25250  Biso   1.000  C
  C212     1.0000 0.59050  0.81870  0.27550  Biso   1.000  C
  C213     1.0000 0.58500  0.78610  0.27770  Biso   1.000  C
  C214     1.0000 0.60030  0.76530  0.25690  Biso   1.000  C
  C215     1.0000 0.62100  0.77710  0.23390  Biso   1.000  C
  C216     1.0000 0.62650  0.80970  0.23170  Biso   1.000  C
  C217     1.0000 0.13010  0.37470  0.67020  Biso   1.000  C
  N13      1.0000 0.13310  0.37420  0.69680  Biso   1.000  N
  C218     1.0000 0.18780  0.33740  0.72600  Biso   1.000  C
  C219     1.0000 0.20900  0.31260  0.72040  Biso   1.000  C
  C220     1.0000 0.20760  0.28520  0.73890  Biso   1.000  C
  C221     1.0000 0.21740  0.31500  0.73700  Biso   1.000  C
  C222     1.0000 0.16380  0.30740  0.76850  Biso   1.000  C
  C223     1.0000 0.14460  0.41990  0.75620  Biso   1.000  C
  C224     1.0000 0.16480  0.42790  0.78130  Biso   1.000  C
  C225     1.0000 0.17600  0.45890  0.78420  Biso   1.000  C
  C226     1.0000 0.16710  0.48190  0.76210  Biso   1.000  C
  C227     1.0000 0.14690  0.47380  0.73710  Biso   1.000  C
  C228     1.0000 0.13570  0.44280  0.73420  Biso   1.000  C
  C229     1.0000 0.13870  0.41960  0.75250  Biso   1.000  C
  C230     1.0000 0.15950  0.43130  0.77550  Biso   1.000  C
  C231     1.0000 0.16500  0.46390  0.77770  Biso   1.000  C
  C232     1.0000 0.14970  0.48470  0.75690  Biso   1.000  C
  C233     1.0000 0.12900  0.47290  0.73390  Biso   1.000  C
  C234     1.0000 0.12350  0.44030  0.73170  Biso   1.000  C
  C235     1.0000 0.13010  0.87470  0.17020  Biso   1.000  C
  N14      1.0000 0.13310  0.87420  0.19680  Biso   1.000  N
  C236     1.0000 0.18780  0.83740  0.22600  Biso   1.000  C
  C237     1.0000 0.20900  0.81260  0.22040  Biso   1.000  C
  C238     1.0000 0.20760  0.78520  0.23890  Biso   1.000  C
  C239     1.0000 0.21740  0.81500  0.23700  Biso   1.000  C
  C240     1.0000 0.16380  0.80740  0.26850  Biso   1.000  C
  C241     1.0000 0.14460  0.91990  0.25620  Biso   1.000  C
  C242     1.0000 0.16480  0.92790  0.28130  Biso   1.000  C
  C243     1.0000 0.17600  0.95890  0.28420  Biso   1.000  C
  C244     1.0000 0.16710  0.98190  0.26210  Biso   1.000  C
  C245     1.0000 0.14690  0.97380  0.23710  Biso   1.000  C
  C246     1.0000 0.13570  0.94280  0.23420  Biso   1.000  C
  C247     1.0000 0.13870  0.91960  0.25250  Biso   1.000  C
  C248     1.0000 0.15950  0.93130  0.27550  Biso   1.000  C
  C249     1.0000 0.16500  0.96390  0.27770  Biso   1.000  C
  C250     1.0000 0.14970  0.98470  0.25690  Biso   1.000  C
  C251     1.0000 0.12900  0.97290  0.23390  Biso   1.000  C
  C252     1.0000 0.12350  0.94030  0.23170  Biso   1.000  C
  C253     1.0000 0.63010  0.37470  0.17020  Biso   1.000  C
  N15      1.0000 0.63310  0.37420  0.19680  Biso   1.000  N
  C254     1.0000 0.68780  0.33740  0.22600  Biso   1.000  C
  C255     1.0000 0.70900  0.31260  0.22040  Biso   1.000  C
  C256     1.0000 0.70760  0.28520  0.23890  Biso   1.000  C
  C257     1.0000 0.71740  0.31500  0.23700  Biso   1.000  C
  C258     1.0000 0.66380  0.30740  0.26850  Biso   1.000  C
  C259     1.0000 0.64460  0.41990  0.25620  Biso   1.000  C
  C260     1.0000 0.66480  0.42790  0.28130  Biso   1.000  C
  C261     1.0000 0.67600  0.45890  0.28420  Biso   1.000  C
  C262     1.0000 0.66710  0.48190  0.26210  Biso   1.000  C
  C263     1.0000 0.64690  0.47380  0.23710  Biso   1.000  C
  C264     1.0000 0.63570  0.44280  0.23420  Biso   1.000  C
  C265     1.0000 0.63870  0.41960  0.25250  Biso   1.000  C
  C266     1.0000 0.65950  0.43130  0.27550  Biso   1.000  C
  C267     1.0000 0.66500  0.46390  0.27770  Biso   1.000  C
  C268     1.0000 0.64970  0.48470  0.25690  Biso   1.000  C
  C269     1.0000 0.62900  0.47290  0.23390  Biso   1.000  C
  C270     1.0000 0.62350  0.44030  0.23170  Biso   1.000  C
  C271     1.0000 0.63010  0.87470  0.67020  Biso   1.000  C
  N16      1.0000 0.63310  0.87420  0.69680  Biso   1.000  N
  C272     1.0000 0.68780  0.83740  0.72600  Biso   1.000  C
  C273     1.0000 0.70900  0.81260  0.72040  Biso   1.000  C
  C274     1.0000 0.70760  0.78520  0.73890  Biso   1.000  C
  C275     1.0000 0.71740  0.81500  0.73700  Biso   1.000  C
  C276     1.0000 0.66380  0.80740  0.76850  Biso   1.000  C
  C277     1.0000 0.64460  0.91990  0.75620  Biso   1.000  C
  C278     1.0000 0.66480  0.92790  0.78130  Biso   1.000  C
  C279     1.0000 0.67600  0.95890  0.78420  Biso   1.000  C
  C280     1.0000 0.66710  0.98190  0.76210  Biso   1.000  C
  C281     1.0000 0.64690  0.97380  0.73710  Biso   1.000  C
  C282     1.0000 0.63570  0.94280  0.73420  Biso   1.000  C
  C283     1.0000 0.63870  0.91960  0.75250  Biso   1.000  C
  C284     1.0000 0.65950  0.93130  0.77550  Biso   1.000  C
  C285     1.0000 0.66500  0.96390  0.77770  Biso   1.000  C
  C286     1.0000 0.64970  0.98470  0.75690  Biso   1.000  C
  C287     1.0000 0.62900  0.97290  0.73390  Biso   1.000  C
  C288     1.0000 0.62350  0.94030  0.73170  Biso   1.000  C
  C289     1.0000 0.07980  0.63010  0.87530  Biso   1.000  C
  N17      1.0000 0.05320  0.63310  0.87580  Biso   1.000  N
  C290     1.0000 0.02400  0.68780  0.91260  Biso   1.000  C
  C291     1.0000 0.02960  0.70900  0.93740  Biso   1.000  C
  C292     1.0000 0.01110  0.70760  0.96480  Biso   1.000  C
  C293     1.0000 0.01300  0.71740  0.93500  Biso   1.000  C
  C294     1.0000 0.98150  0.66380  0.94260  Biso   1.000  C
  C295     1.0000 0.99380  0.64460  0.83010  Biso   1.000  C
  C296     1.0000 0.96870  0.66480  0.82210  Biso   1.000  C
  C297     1.0000 0.96580  0.67600  0.79110  Biso   1.000  C
  C298     1.0000 0.98790  0.66710  0.76810  Biso   1.000  C
  C299     1.0000 0.01290  0.64690  0.77620  Biso   1.000  C
  C300     1.0000 0.01580  0.63570  0.80720  Biso   1.000  C
  C301     1.0000 0.99750  0.63870  0.83040  Biso   1.000  C
  C302     1.0000 0.97450  0.65950  0.81870  Biso   1.000  C
  C303     1.0000 0.97230  0.66500  0.78610  Biso   1.000  C
  C304     1.0000 0.99310  0.64970  0.76530  Biso   1.000  C
  C305     1.0000 0.01610  0.62900  0.77710  Biso   1.000  C
  C306     1.0000 0.01830  0.62350  0.80970  Biso   1.000  C
  C307     1.0000 0.07980  0.13010  0.37530  Biso   1.000  C
  N18      1.0000 0.05320  0.13310  0.37580  Biso   1.000  N
  C308     1.0000 0.02400  0.18780  0.41260  Biso   1.000  C
  C309     1.0000 0.02960  0.20900  0.43740  Biso   1.000  C
  C310     1.0000 0.01110  0.20760  0.46480  Biso   1.000  C
  C311     1.0000 0.01300  0.21740  0.43500  Biso   1.000  C
  C312     1.0000 0.98150  0.16380  0.44260  Biso   1.000  C
  C313     1.0000 0.99380  0.14460  0.33010  Biso   1.000  C
  C314     1.0000 0.96870  0.16480  0.32210  Biso   1.000  C
  C315     1.0000 0.96580  0.17600  0.29110  Biso   1.000  C
  C316     1.0000 0.98790  0.16710  0.26810  Biso   1.000  C
  C317     1.0000 0.01290  0.14690  0.27620  Biso   1.000  C
  C318     1.0000 0.01580  0.13570  0.30720  Biso   1.000  C
  C319     1.0000 0.99750  0.13870  0.33040  Biso   1.000  C
  C320     1.0000 0.97450  0.15950  0.31870  Biso   1.000  C
  C321     1.0000 0.97230  0.16500  0.28610  Biso   1.000  C
  C322     1.0000 0.99310  0.14970  0.26530  Biso   1.000  C
  C323     1.0000 0.01610  0.12900  0.27710  Biso   1.000  C
  C324     1.0000 0.01830  0.12350  0.30970  Biso   1.000  C
  C325     1.0000 0.57980  0.63010  0.37530  Biso   1.000  C
  N19      1.0000 0.55320  0.63310  0.37580  Biso   1.000  N
  C326     1.0000 0.52400  0.68780  0.41260  Biso   1.000  C
  C327     1.0000 0.52960  0.70900  0.43740  Biso   1.000  C
  C328     1.0000 0.51110  0.70760  0.46480  Biso   1.000  C
  C329     1.0000 0.51300  0.71740  0.43500  Biso   1.000  C
  C330     1.0000 0.48150  0.66380  0.44260  Biso   1.000  C
  C331     1.0000 0.49380  0.64460  0.33010  Biso   1.000  C
  C332     1.0000 0.46870  0.66480  0.32210  Biso   1.000  C
  C333     1.0000 0.46580  0.67600  0.29110  Biso   1.000  C
  C334     1.0000 0.48790  0.66710  0.26810  Biso   1.000  C
  C335     1.0000 0.51290  0.64690  0.27620  Biso   1.000  C
  C336     1.0000 0.51580  0.63570  0.30720  Biso   1.000  C
  C337     1.0000 0.49750  0.63870  0.33040  Biso   1.000  C
  C338     1.0000 0.47450  0.65950  0.31870  Biso   1.000  C
  C339     1.0000 0.47230  0.66500  0.28610  Biso   1.000  C
  C340     1.0000 0.49310  0.64970  0.26530  Biso   1.000  C
  C341     1.0000 0.51610  0.62900  0.27710  Biso   1.000  C
  C342     1.0000 0.51830  0.62350  0.30970  Biso   1.000  C
  C343     1.0000 0.57980  0.13010  0.87530  Biso   1.000  C
  N20      1.0000 0.55320  0.13310  0.87580  Biso   1.000  N
  C344     1.0000 0.52400  0.18780  0.91260  Biso   1.000  C
  C345     1.0000 0.52960  0.20900  0.93740  Biso   1.000  C
  C346     1.0000 0.51110  0.20760  0.96480  Biso   1.000  C
  C347     1.0000 0.51300  0.21740  0.93500  Biso   1.000  C
  C348     1.0000 0.48150  0.16380  0.94260  Biso   1.000  C
  C349     1.0000 0.49380  0.14460  0.83010  Biso   1.000  C
  C350     1.0000 0.46870  0.16480  0.82210  Biso   1.000  C
  C351     1.0000 0.46580  0.17600  0.79110  Biso   1.000  C
  C352     1.0000 0.48790  0.16710  0.76810  Biso   1.000  C
  C353     1.0000 0.51290  0.14690  0.77620  Biso   1.000  C
  C354     1.0000 0.51580  0.13570  0.80720  Biso   1.000  C
  C355     1.0000 0.49750  0.13870  0.83040  Biso   1.000  C
  C356     1.0000 0.47450  0.15950  0.81870  Biso   1.000  C
  C357     1.0000 0.47230  0.16500  0.78610  Biso   1.000  C
  C358     1.0000 0.49310  0.14970  0.76530  Biso   1.000  C
  C359     1.0000 0.51610  0.12900  0.77710  Biso   1.000  C
  C360     1.0000 0.51830  0.12350  0.80970  Biso   1.000  C
  C361     1.0000 0.57980  0.61990  0.87470  Biso   1.000  C
  N21      1.0000 0.55320  0.61690  0.87420  Biso   1.000  N
  C362     1.0000 0.52400  0.56220  0.83740  Biso   1.000  C
  C363     1.0000 0.52960  0.54100  0.81260  Biso   1.000  C
  C364     1.0000 0.51110  0.54240  0.78520  Biso   1.000  C
  C365     1.0000 0.51300  0.53260  0.81500  Biso   1.000  C
  C366     1.0000 0.48150  0.58620  0.80740  Biso   1.000  C
  C367     1.0000 0.49380  0.60540  0.91990  Biso   1.000  C
  C368     1.0000 0.46870  0.58520  0.92790  Biso   1.000  C
  C369     1.0000 0.46580  0.57400  0.95890  Biso   1.000  C
  C370     1.0000 0.48790  0.58290  0.98190  Biso   1.000  C
  C371     1.0000 0.51290  0.60310  0.97380  Biso   1.000  C
  C372     1.0000 0.51580  0.61430  0.94280  Biso   1.000  C
  C373     1.0000 0.49750  0.61130  0.91960  Biso   1.000  C
  C374     1.0000 0.47450  0.59050  0.93130  Biso   1.000  C
  C375     1.0000 0.47230  0.58500  0.96390  Biso   1.000  C
  C376     1.0000 0.49310  0.60030  0.98470  Biso   1.000  C
  C377     1.0000 0.51610  0.62100  0.97290  Biso   1.000  C
  C378     1.0000 0.51830  0.62650  0.94030  Biso   1.000  C
  C379     1.0000 0.57980  0.11990  0.37470  Biso   1.000  C
  N22      1.0000 0.55320  0.11690  0.37420  Biso   1.000  N
  C380     1.0000 0.52400  0.06220  0.33740  Biso   1.000  C
  C381     1.0000 0.52960  0.04100  0.31260  Biso   1.000  C
  C382     1.0000 0.51110  0.04240  0.28520  Biso   1.000  C
  C383     1.0000 0.51300  0.03260  0.31500  Biso   1.000  C
  C384     1.0000 0.48150  0.08620  0.30740  Biso   1.000  C
  C385     1.0000 0.49380  0.10540  0.41990  Biso   1.000  C
  C386     1.0000 0.46870  0.08520  0.42790  Biso   1.000  C
  C387     1.0000 0.46580  0.07400  0.45890  Biso   1.000  C
  C388     1.0000 0.48790  0.08290  0.48190  Biso   1.000  C
  C389     1.0000 0.51290  0.10310  0.47380  Biso   1.000  C
  C390     1.0000 0.51580  0.11430  0.44280  Biso   1.000  C
  C391     1.0000 0.49750  0.11130  0.41960  Biso   1.000  C
  C392     1.0000 0.47450  0.09050  0.43130  Biso   1.000  C
  C393     1.0000 0.47230  0.08500  0.46390  Biso   1.000  C
  C394     1.0000 0.49310  0.10030  0.48470  Biso   1.000  C
  C395     1.0000 0.51610  0.12100  0.47290  Biso   1.000  C
  C396     1.0000 0.51830  0.12650  0.44030  Biso   1.000  C
  C397     1.0000 0.07980  0.61990  0.37470  Biso   1.000  C
  N23      1.0000 0.05320  0.61690  0.37420  Biso   1.000  N
  C398     1.0000 0.02400  0.56220  0.33740  Biso   1.000  C
  C399     1.0000 0.02960  0.54100  0.31260  Biso   1.000  C
  C400     1.0000 0.01110  0.54240  0.28520  Biso   1.000  C
  C401     1.0000 0.01300  0.53260  0.31500  Biso   1.000  C
  C402     1.0000 0.98150  0.58620  0.30740  Biso   1.000  C
  C403     1.0000 0.99380  0.60540  0.41990  Biso   1.000  C
  C404     1.0000 0.96870  0.58520  0.42790  Biso   1.000  C
  C405     1.0000 0.96580  0.57400  0.45890  Biso   1.000  C
  C406     1.0000 0.98790  0.58290  0.48190  Biso   1.000  C
  C407     1.0000 0.01290  0.60310  0.47380  Biso   1.000  C
  C408     1.0000 0.01580  0.61430  0.44280  Biso   1.000  C
  C409     1.0000 0.99750  0.61130  0.41960  Biso   1.000  C
  C410     1.0000 0.97450  0.59050  0.43130  Biso   1.000  C
  C411     1.0000 0.97230  0.58500  0.46390  Biso   1.000  C
  C412     1.0000 0.99310  0.60030  0.48470  Biso   1.000  C
  C413     1.0000 0.01610  0.62100  0.47290  Biso   1.000  C
  C414     1.0000 0.01830  0.62650  0.44030  Biso   1.000  C
  C415     1.0000 0.07980  0.11990  0.87470  Biso   1.000  C
  N24      1.0000 0.05320  0.11690  0.87420  Biso   1.000  N
  C416     1.0000 0.02400  0.06220  0.83740  Biso   1.000  C
  C417     1.0000 0.02960  0.04100  0.81260  Biso   1.000  C
  C418     1.0000 0.01110  0.04240  0.78520  Biso   1.000  C
  C419     1.0000 0.01300  0.03260  0.81500  Biso   1.000  C
  C420     1.0000 0.98150  0.08620  0.80740  Biso   1.000  C
  C421     1.0000 0.99380  0.10540  0.91990  Biso   1.000  C
  C422     1.0000 0.96870  0.08520  0.92790  Biso   1.000  C
  C423     1.0000 0.96580  0.07400  0.95890  Biso   1.000  C
  C424     1.0000 0.98790  0.08290  0.98190  Biso   1.000  C
  C425     1.0000 0.01290  0.10310  0.97380  Biso   1.000  C
  C426     1.0000 0.01580  0.11430  0.94280  Biso   1.000  C
  C427     1.0000 0.99750  0.11130  0.91960  Biso   1.000  C
  C428     1.0000 0.97450  0.09050  0.93130  Biso   1.000  C
  C429     1.0000 0.97230  0.08500  0.96390  Biso   1.000  C
  C430     1.0000 0.99310  0.10030  0.98470  Biso   1.000  C
  C431     1.0000 0.01610  0.12100  0.97290  Biso   1.000  C
  C432     1.0000 0.01830  0.12650  0.94030  Biso   1.000  C
  C433     1.0000 0.17020  0.11990  0.37530  Biso   1.000  C
  N25      1.0000 0.19680  0.11690  0.37580  Biso   1.000  N
  C434     1.0000 0.22600  0.06220  0.41260  Biso   1.000  C
  C435     1.0000 0.22040  0.04100  0.43740  Biso   1.000  C
  C436     1.0000 0.23890  0.04240  0.46480  Biso   1.000  C
  C437     1.0000 0.23700  0.03260  0.43500  Biso   1.000  C
  C438     1.0000 0.26850  0.08620  0.44260  Biso   1.000  C
  C439     1.0000 0.25620  0.10540  0.33010  Biso   1.000  C
  C440     1.0000 0.28130  0.08520  0.32210  Biso   1.000  C
  C441     1.0000 0.28420  0.07400  0.29110  Biso   1.000  C
  C442     1.0000 0.26210  0.08290  0.26810  Biso   1.000  C
  C443     1.0000 0.23710  0.10310  0.27620  Biso   1.000  C
  C444     1.0000 0.23420  0.11430  0.30720  Biso   1.000  C
  C445     1.0000 0.25250  0.11130  0.33040  Biso   1.000  C
  C446     1.0000 0.27550  0.09050  0.31870  Biso   1.000  C
  C447     1.0000 0.27770  0.08500  0.28610  Biso   1.000  C
  C448     1.0000 0.25690  0.10030  0.26530  Biso   1.000  C
  C449     1.0000 0.23390  0.12100  0.27710  Biso   1.000  C
  C450     1.0000 0.23170  0.12650  0.30970  Biso   1.000  C
  C451     1.0000 0.17020  0.61990  0.87530  Biso   1.000  C
  N26      1.0000 0.19680  0.61690  0.87580  Biso   1.000  N
  C452     1.0000 0.22600  0.56220  0.91260  Biso   1.000  C
  C453     1.0000 0.22040  0.54100  0.93740  Biso   1.000  C
  C454     1.0000 0.23890  0.54240  0.96480  Biso   1.000  C
  C455     1.0000 0.23700  0.53260  0.93500  Biso   1.000  C
  C456     1.0000 0.26850  0.58620  0.94260  Biso   1.000  C
  C457     1.0000 0.25620  0.60540  0.83010  Biso   1.000  C
  C458     1.0000 0.28130  0.58520  0.82210  Biso   1.000  C
  C459     1.0000 0.28420  0.57400  0.79110  Biso   1.000  C
  C460     1.0000 0.26210  0.58290  0.76810  Biso   1.000  C
  C461     1.0000 0.23710  0.60310  0.77620  Biso   1.000  C
  C462     1.0000 0.23420  0.61430  0.80720  Biso   1.000  C
  C463     1.0000 0.25250  0.61130  0.83040  Biso   1.000  C
  C464     1.0000 0.27550  0.59050  0.81870  Biso   1.000  C
  C465     1.0000 0.27770  0.58500  0.78610  Biso   1.000  C
  C466     1.0000 0.25690  0.60030  0.76530  Biso   1.000  C
  C467     1.0000 0.23390  0.62100  0.77710  Biso   1.000  C
  C468     1.0000 0.23170  0.62650  0.80970  Biso   1.000  C
  C469     1.0000 0.67020  0.11990  0.87530  Biso   1.000  C
  N27      1.0000 0.69680  0.11690  0.87580  Biso   1.000  N
  C470     1.0000 0.72600  0.06220  0.91260  Biso   1.000  C
  C471     1.0000 0.72040  0.04100  0.93740  Biso   1.000  C
  C472     1.0000 0.73890  0.04240  0.96480  Biso   1.000  C
  C473     1.0000 0.73700  0.03260  0.93500  Biso   1.000  C
  C474     1.0000 0.76850  0.08620  0.94260  Biso   1.000  C
  C475     1.0000 0.75620  0.10540  0.83010  Biso   1.000  C
  C476     1.0000 0.78130  0.08520  0.82210  Biso   1.000  C
  C477     1.0000 0.78420  0.07400  0.79110  Biso   1.000  C
  C478     1.0000 0.76210  0.08290  0.76810  Biso   1.000  C
  C479     1.0000 0.73710  0.10310  0.77620  Biso   1.000  C
  C480     1.0000 0.73420  0.11430  0.80720  Biso   1.000  C
  C481     1.0000 0.75250  0.11130  0.83040  Biso   1.000  C
  C482     1.0000 0.77550  0.09050  0.81870  Biso   1.000  C
  C483     1.0000 0.77770  0.08500  0.78610  Biso   1.000  C
  C484     1.0000 0.75690  0.10030  0.76530  Biso   1.000  C
  C485     1.0000 0.73390  0.12100  0.77710  Biso   1.000  C
  C486     1.0000 0.73170  0.12650  0.80970  Biso   1.000  C
  C487     1.0000 0.67020  0.61990  0.37530  Biso   1.000  C
  N28      1.0000 0.69680  0.61690  0.37580  Biso   1.000  N
  C488     1.0000 0.72600  0.56220  0.41260  Biso   1.000  C
  C489     1.0000 0.72040  0.54100  0.43740  Biso   1.000  C
  C490     1.0000 0.73890  0.54240  0.46480  Biso   1.000  C
  C491     1.0000 0.73700  0.53260  0.43500  Biso   1.000  C
  C492     1.0000 0.76850  0.58620  0.44260  Biso   1.000  C
  C493     1.0000 0.75620  0.60540  0.33010  Biso   1.000  C
  C494     1.0000 0.78130  0.58520  0.32210  Biso   1.000  C
  C495     1.0000 0.78420  0.57400  0.29110  Biso   1.000  C
  C496     1.0000 0.76210  0.58290  0.26810  Biso   1.000  C
  C497     1.0000 0.73710  0.60310  0.27620  Biso   1.000  C
  C498     1.0000 0.73420  0.61430  0.30720  Biso   1.000  C
  C499     1.0000 0.75250  0.61130  0.33040  Biso   1.000  C
  C500     1.0000 0.77550  0.59050  0.31870  Biso   1.000  C
  C501     1.0000 0.77770  0.58500  0.28610  Biso   1.000  C
  C502     1.0000 0.75690  0.60030  0.26530  Biso   1.000  C
  C503     1.0000 0.73390  0.62100  0.27710  Biso   1.000  C
  C504     1.0000 0.73170  0.62650  0.30970  Biso   1.000  C
  C505     1.0000 0.67020  0.13010  0.37470  Biso   1.000  C
  N29      1.0000 0.69680  0.13310  0.37420  Biso   1.000  N
  C506     1.0000 0.72600  0.18780  0.33740  Biso   1.000  C
  C507     1.0000 0.72040  0.20900  0.31260  Biso   1.000  C
  C508     1.0000 0.73890  0.20760  0.28520  Biso   1.000  C
  C509     1.0000 0.73700  0.21740  0.31500  Biso   1.000  C
  C510     1.0000 0.76850  0.16380  0.30740  Biso   1.000  C
  C511     1.0000 0.75620  0.14460  0.41990  Biso   1.000  C
  C512     1.0000 0.78130  0.16480  0.42790  Biso   1.000  C
  C513     1.0000 0.78420  0.17600  0.45890  Biso   1.000  C
  C514     1.0000 0.76210  0.16710  0.48190  Biso   1.000  C
  C515     1.0000 0.73710  0.14690  0.47380  Biso   1.000  C
  C516     1.0000 0.73420  0.13570  0.44280  Biso   1.000  C
  C517     1.0000 0.75250  0.13870  0.41960  Biso   1.000  C
  C518     1.0000 0.77550  0.15950  0.43130  Biso   1.000  C
  C519     1.0000 0.77770  0.16500  0.46390  Biso   1.000  C
  C520     1.0000 0.75690  0.14970  0.48470  Biso   1.000  C
  C521     1.0000 0.73390  0.12900  0.47290  Biso   1.000  C
  C522     1.0000 0.73170  0.12350  0.44030  Biso   1.000  C
  C523     1.0000 0.67020  0.63010  0.87470  Biso   1.000  C
  N30      1.0000 0.69680  0.63310  0.87420  Biso   1.000  N
  C524     1.0000 0.72600  0.68780  0.83740  Biso   1.000  C
  C525     1.0000 0.72040  0.70900  0.81260  Biso   1.000  C
  C526     1.0000 0.73890  0.70760  0.78520  Biso   1.000  C
  C527     1.0000 0.73700  0.71740  0.81500  Biso   1.000  C
  C528     1.0000 0.76850  0.66380  0.80740  Biso   1.000  C
  C529     1.0000 0.75620  0.64460  0.91990  Biso   1.000  C
  C530     1.0000 0.78130  0.66480  0.92790  Biso   1.000  C
  C531     1.0000 0.78420  0.67600  0.95890  Biso   1.000  C
  C532     1.0000 0.76210  0.66710  0.98190  Biso   1.000  C
  C533     1.0000 0.73710  0.64690  0.97380  Biso   1.000  C
  C534     1.0000 0.73420  0.63570  0.94280  Biso   1.000  C
  C535     1.0000 0.75250  0.63870  0.91960  Biso   1.000  C
  C536     1.0000 0.77550  0.65950  0.93130  Biso   1.000  C
  C537     1.0000 0.77770  0.66500  0.96390  Biso   1.000  C
  C538     1.0000 0.75690  0.64970  0.98470  Biso   1.000  C
  C539     1.0000 0.73390  0.62900  0.97290  Biso   1.000  C
  C540     1.0000 0.73170  0.62350  0.94030  Biso   1.000  C
  C541     1.0000 0.17020  0.13010  0.87470  Biso   1.000  C
  N31      1.0000 0.19680  0.13310  0.87420  Biso   1.000  N
  C542     1.0000 0.22600  0.18780  0.83740  Biso   1.000  C
  C543     1.0000 0.22040  0.20900  0.81260  Biso   1.000  C
  C544     1.0000 0.23890  0.20760  0.78520  Biso   1.000  C
  C545     1.0000 0.23700  0.21740  0.81500  Biso   1.000  C
  C546     1.0000 0.26850  0.16380  0.80740  Biso   1.000  C
  C547     1.0000 0.25620  0.14460  0.91990  Biso   1.000  C
  C548     1.0000 0.28130  0.16480  0.92790  Biso   1.000  C
  C549     1.0000 0.28420  0.17600  0.95890  Biso   1.000  C
  C550     1.0000 0.26210  0.16710  0.98190  Biso   1.000  C
  C551     1.0000 0.23710  0.14690  0.97380  Biso   1.000  C
  C552     1.0000 0.23420  0.13570  0.94280  Biso   1.000  C
  C553     1.0000 0.25250  0.13870  0.91960  Biso   1.000  C
  C554     1.0000 0.27550  0.15950  0.93130  Biso   1.000  C
  C555     1.0000 0.27770  0.16500  0.96390  Biso   1.000  C
  C556     1.0000 0.25690  0.14970  0.98470  Biso   1.000  C
  C557     1.0000 0.23390  0.12900  0.97290  Biso   1.000  C
  C558     1.0000 0.23170  0.12350  0.94030  Biso   1.000  C
  C559     1.0000 0.17020  0.63010  0.37470  Biso   1.000  C
  N32      1.0000 0.19680  0.63310  0.37420  Biso   1.000  N
  C560     1.0000 0.22600  0.68780  0.33740  Biso   1.000  C
  C561     1.0000 0.22040  0.70900  0.31260  Biso   1.000  C
  C562     1.0000 0.23890  0.70760  0.28520  Biso   1.000  C
  C563     1.0000 0.23700  0.71740  0.31500  Biso   1.000  C
  C564     1.0000 0.26850  0.66380  0.30740  Biso   1.000  C
  C565     1.0000 0.25620  0.64460  0.41990  Biso   1.000  C
  C566     1.0000 0.28130  0.66480  0.42790  Biso   1.000  C
  C567     1.0000 0.28420  0.67600  0.45890  Biso   1.000  C
  C568     1.0000 0.26210  0.66710  0.48190  Biso   1.000  C
  C569     1.0000 0.23710  0.64690  0.47380  Biso   1.000  C
  C570     1.0000 0.23420  0.63570  0.44280  Biso   1.000  C
  C571     1.0000 0.25250  0.63870  0.41960  Biso   1.000  C
  C572     1.0000 0.27550  0.65950  0.43130  Biso   1.000  C
  C573     1.0000 0.27770  0.66500  0.46390  Biso   1.000  C
  C574     1.0000 0.25690  0.64970  0.48470  Biso   1.000  C
  C575     1.0000 0.23390  0.62900  0.47290  Biso   1.000  C
  C576     1.0000 0.23170  0.62350  0.44030  Biso   1.000  C
  C577     1.0000 0.87530  0.07980  0.63010  Biso   1.000  C
  N33      1.0000 0.87580  0.05320  0.63310  Biso   1.000  N
  C578     1.0000 0.91260  0.02400  0.68780  Biso   1.000  C
  C579     1.0000 0.93740  0.02960  0.70900  Biso   1.000  C
  C580     1.0000 0.96480  0.01110  0.70760  Biso   1.000  C
  C581     1.0000 0.93500  0.01300  0.71740  Biso   1.000  C
  C582     1.0000 0.94260  0.98150  0.66380  Biso   1.000  C
  C583     1.0000 0.83010  0.99380  0.64460  Biso   1.000  C
  C584     1.0000 0.82210  0.96870  0.66480  Biso   1.000  C
  C585     1.0000 0.79110  0.96580  0.67600  Biso   1.000  C
  C586     1.0000 0.76810  0.98790  0.66710  Biso   1.000  C
  C587     1.0000 0.77620  0.01290  0.64690  Biso   1.000  C
  C588     1.0000 0.80720  0.01580  0.63570  Biso   1.000  C
  C589     1.0000 0.83040  0.99750  0.63870  Biso   1.000  C
  C590     1.0000 0.81870  0.97450  0.65950  Biso   1.000  C
  C591     1.0000 0.78610  0.97230  0.66500  Biso   1.000  C
  C592     1.0000 0.76530  0.99310  0.64970  Biso   1.000  C
  C593     1.0000 0.77710  0.01610  0.62900  Biso   1.000  C
  C594     1.0000 0.80970  0.01830  0.62350  Biso   1.000  C
  C595     1.0000 0.87530  0.57980  0.13010  Biso   1.000  C
  N34      1.0000 0.87580  0.55320  0.13310  Biso   1.000  N
  C596     1.0000 0.91260  0.52400  0.18780  Biso   1.000  C
  C597     1.0000 0.93740  0.52960  0.20900  Biso   1.000  C
  C598     1.0000 0.96480  0.51110  0.20760  Biso   1.000  C
  C599     1.0000 0.93500  0.51300  0.21740  Biso   1.000  C
  C600     1.0000 0.94260  0.48150  0.16380  Biso   1.000  C
  C601     1.0000 0.83010  0.49380  0.14460  Biso   1.000  C
  C602     1.0000 0.82210  0.46870  0.16480  Biso   1.000  C
  C603     1.0000 0.79110  0.46580  0.17600  Biso   1.000  C
  C604     1.0000 0.76810  0.48790  0.16710  Biso   1.000  C
  C605     1.0000 0.77620  0.51290  0.14690  Biso   1.000  C
  C606     1.0000 0.80720  0.51580  0.13570  Biso   1.000  C
  C607     1.0000 0.83040  0.49750  0.13870  Biso   1.000  C
  C608     1.0000 0.81870  0.47450  0.15950  Biso   1.000  C
  C609     1.0000 0.78610  0.47230  0.16500  Biso   1.000  C
  C610     1.0000 0.76530  0.49310  0.14970  Biso   1.000  C
  C611     1.0000 0.77710  0.51610  0.12900  Biso   1.000  C
  C612     1.0000 0.80970  0.51830  0.12350  Biso   1.000  C
  C613     1.0000 0.37530  0.07980  0.13010  Biso   1.000  C
  N35      1.0000 0.37580  0.05320  0.13310  Biso   1.000  N
  C614     1.0000 0.41260  0.02400  0.18780  Biso   1.000  C
  C615     1.0000 0.43740  0.02960  0.20900  Biso   1.000  C
  C616     1.0000 0.46480  0.01110  0.20760  Biso   1.000  C
  C617     1.0000 0.43500  0.01300  0.21740  Biso   1.000  C
  C618     1.0000 0.44260  0.98150  0.16380  Biso   1.000  C
  C619     1.0000 0.33010  0.99380  0.14460  Biso   1.000  C
  C620     1.0000 0.32210  0.96870  0.16480  Biso   1.000  C
  C621     1.0000 0.29110  0.96580  0.17600  Biso   1.000  C
  C622     1.0000 0.26810  0.98790  0.16710  Biso   1.000  C
  C623     1.0000 0.27620  0.01290  0.14690  Biso   1.000  C
  C624     1.0000 0.30720  0.01580  0.13570  Biso   1.000  C
  C625     1.0000 0.33040  0.99750  0.13870  Biso   1.000  C
  C626     1.0000 0.31870  0.97450  0.15950  Biso   1.000  C
  C627     1.0000 0.28610  0.97230  0.16500  Biso   1.000  C
  C628     1.0000 0.26530  0.99310  0.14970  Biso   1.000  C
  C629     1.0000 0.27710  0.01610  0.12900  Biso   1.000  C
  C630     1.0000 0.30970  0.01830  0.12350  Biso   1.000  C
  C631     1.0000 0.37530  0.57980  0.63010  Biso   1.000  C
  N36      1.0000 0.37580  0.55320  0.63310  Biso   1.000  N
  C632     1.0000 0.41260  0.52400  0.68780  Biso   1.000  C
  C633     1.0000 0.43740  0.52960  0.70900  Biso   1.000  C
  C634     1.0000 0.46480  0.51110  0.70760  Biso   1.000  C
  C635     1.0000 0.43500  0.51300  0.71740  Biso   1.000  C
  C636     1.0000 0.44260  0.48150  0.66380  Biso   1.000  C
  C637     1.0000 0.33010  0.49380  0.64460  Biso   1.000  C
  C638     1.0000 0.32210  0.46870  0.66480  Biso   1.000  C
  C639     1.0000 0.29110  0.46580  0.67600  Biso   1.000  C
  C640     1.0000 0.26810  0.48790  0.66710  Biso   1.000  C
  C641     1.0000 0.27620  0.51290  0.64690  Biso   1.000  C
  C642     1.0000 0.30720  0.51580  0.63570  Biso   1.000  C
  C643     1.0000 0.33040  0.49750  0.63870  Biso   1.000  C
  C644     1.0000 0.31870  0.47450  0.65950  Biso   1.000  C
  C645     1.0000 0.28610  0.47230  0.66500  Biso   1.000  C
  C646     1.0000 0.26530  0.49310  0.64970  Biso   1.000  C
  C647     1.0000 0.27710  0.51610  0.62900  Biso   1.000  C
  C648     1.0000 0.30970  0.51830  0.62350  Biso   1.000  C
  C649     1.0000 0.87470  0.57980  0.61990  Biso   1.000  C
  N37      1.0000 0.87420  0.55320  0.61690  Biso   1.000  N
  C650     1.0000 0.83740  0.52400  0.56220  Biso   1.000  C
  C651     1.0000 0.81260  0.52960  0.54100  Biso   1.000  C
  C652     1.0000 0.78520  0.51110  0.54240  Biso   1.000  C
  C653     1.0000 0.81500  0.51300  0.53260  Biso   1.000  C
  C654     1.0000 0.80740  0.48150  0.58620  Biso   1.000  C
  C655     1.0000 0.91990  0.49380  0.60540  Biso   1.000  C
  C656     1.0000 0.92790  0.46870  0.58520  Biso   1.000  C
  C657     1.0000 0.95890  0.46580  0.57400  Biso   1.000  C
  C658     1.0000 0.98190  0.48790  0.58290  Biso   1.000  C
  C659     1.0000 0.97380  0.51290  0.60310  Biso   1.000  C
  C660     1.0000 0.94280  0.51580  0.61430  Biso   1.000  C
  C661     1.0000 0.91960  0.49750  0.61130  Biso   1.000  C
  C662     1.0000 0.93130  0.47450  0.59050  Biso   1.000  C
  C663     1.0000 0.96390  0.47230  0.58500  Biso   1.000  C
  C664     1.0000 0.98470  0.49310  0.60030  Biso   1.000  C
  C665     1.0000 0.97290  0.51610  0.62100  Biso   1.000  C
  C666     1.0000 0.94030  0.51830  0.62650  Biso   1.000  C
  C667     1.0000 0.87470  0.07980  0.11990  Biso   1.000  C
  N38      1.0000 0.87420  0.05320  0.11690  Biso   1.000  N
  C668     1.0000 0.83740  0.02400  0.06220  Biso   1.000  C
  C669     1.0000 0.81260  0.02960  0.04100  Biso   1.000  C
  C670     1.0000 0.78520  0.01110  0.04240  Biso   1.000  C
  C671     1.0000 0.81500  0.01300  0.03260  Biso   1.000  C
  C672     1.0000 0.80740  0.98150  0.08620  Biso   1.000  C
  C673     1.0000 0.91990  0.99380  0.10540  Biso   1.000  C
  C674     1.0000 0.92790  0.96870  0.08520  Biso   1.000  C
  C675     1.0000 0.95890  0.96580  0.07400  Biso   1.000  C
  C676     1.0000 0.98190  0.98790  0.08290  Biso   1.000  C
  C677     1.0000 0.97380  0.01290  0.10310  Biso   1.000  C
  C678     1.0000 0.94280  0.01580  0.11430  Biso   1.000  C
  C679     1.0000 0.91960  0.99750  0.11130  Biso   1.000  C
  C680     1.0000 0.93130  0.97450  0.09050  Biso   1.000  C
  C681     1.0000 0.96390  0.97230  0.08500  Biso   1.000  C
  C682     1.0000 0.98470  0.99310  0.10030  Biso   1.000  C
  C683     1.0000 0.97290  0.01610  0.12100  Biso   1.000  C
  C684     1.0000 0.94030  0.01830  0.12650  Biso   1.000  C
  C685     1.0000 0.37470  0.57980  0.11990  Biso   1.000  C
  N39      1.0000 0.37420  0.55320  0.11690  Biso   1.000  N
  C686     1.0000 0.33740  0.52400  0.06220  Biso   1.000  C
  C687     1.0000 0.31260  0.52960  0.04100  Biso   1.000  C
  C688     1.0000 0.28520  0.51110  0.04240  Biso   1.000  C
  C689     1.0000 0.31500  0.51300  0.03260  Biso   1.000  C
  C690     1.0000 0.30740  0.48150  0.08620  Biso   1.000  C
  C691     1.0000 0.41990  0.49380  0.10540  Biso   1.000  C
  C692     1.0000 0.42790  0.46870  0.08520  Biso   1.000  C
  C693     1.0000 0.45890  0.46580  0.07400  Biso   1.000  C
  C694     1.0000 0.48190  0.48790  0.08290  Biso   1.000  C
  C695     1.0000 0.47380  0.51290  0.10310  Biso   1.000  C
  C696     1.0000 0.44280  0.51580  0.11430  Biso   1.000  C
  C697     1.0000 0.41960  0.49750  0.11130  Biso   1.000  C
  C698     1.0000 0.43130  0.47450  0.09050  Biso   1.000  C
  C699     1.0000 0.46390  0.47230  0.08500  Biso   1.000  C
  C700     1.0000 0.48470  0.49310  0.10030  Biso   1.000  C
  C701     1.0000 0.47290  0.51610  0.12100  Biso   1.000  C
  C702     1.0000 0.44030  0.51830  0.12650  Biso   1.000  C
  C703     1.0000 0.37470  0.07980  0.61990  Biso   1.000  C
  N40      1.0000 0.37420  0.05320  0.61690  Biso   1.000  N
  C704     1.0000 0.33740  0.02400  0.56220  Biso   1.000  C
  C705     1.0000 0.31260  0.02960  0.54100  Biso   1.000  C
  C706     1.0000 0.28520  0.01110  0.54240  Biso   1.000  C
  C707     1.0000 0.31500  0.01300  0.53260  Biso   1.000  C
  C708     1.0000 0.30740  0.98150  0.58620  Biso   1.000  C
  C709     1.0000 0.41990  0.99380  0.60540  Biso   1.000  C
  C710     1.0000 0.42790  0.96870  0.58520  Biso   1.000  C
  C711     1.0000 0.45890  0.96580  0.57400  Biso   1.000  C
  C712     1.0000 0.48190  0.98790  0.58290  Biso   1.000  C
  C713     1.0000 0.47380  0.01290  0.60310  Biso   1.000  C
  C714     1.0000 0.44280  0.01580  0.61430  Biso   1.000  C
  C715     1.0000 0.41960  0.99750  0.61130  Biso   1.000  C
  C716     1.0000 0.43130  0.97450  0.59050  Biso   1.000  C
  C717     1.0000 0.46390  0.97230  0.58500  Biso   1.000  C
  C718     1.0000 0.48470  0.99310  0.60030  Biso   1.000  C
  C719     1.0000 0.47290  0.01610  0.62100  Biso   1.000  C
  C720     1.0000 0.44030  0.01830  0.62650  Biso   1.000  C
  C721     1.0000 0.37530  0.17020  0.11990  Biso   1.000  C
  N41      1.0000 0.37580  0.19680  0.11690  Biso   1.000  N
  C722     1.0000 0.41260  0.22600  0.06220  Biso   1.000  C
  C723     1.0000 0.43740  0.22040  0.04100  Biso   1.000  C
  C724     1.0000 0.46480  0.23890  0.04240  Biso   1.000  C
  C725     1.0000 0.43500  0.23700  0.03260  Biso   1.000  C
  C726     1.0000 0.44260  0.26850  0.08620  Biso   1.000  C
  C727     1.0000 0.33010  0.25620  0.10540  Biso   1.000  C
  C728     1.0000 0.32210  0.28130  0.08520  Biso   1.000  C
  C729     1.0000 0.29110  0.28420  0.07400  Biso   1.000  C
  C730     1.0000 0.26810  0.26210  0.08290  Biso   1.000  C
  C731     1.0000 0.27620  0.23710  0.10310  Biso   1.000  C
  C732     1.0000 0.30720  0.23420  0.11430  Biso   1.000  C
  C733     1.0000 0.33040  0.25250  0.11130  Biso   1.000  C
  C734     1.0000 0.31870  0.27550  0.09050  Biso   1.000  C
  C735     1.0000 0.28610  0.27770  0.08500  Biso   1.000  C
  C736     1.0000 0.26530  0.25690  0.10030  Biso   1.000  C
  C737     1.0000 0.27710  0.23390  0.12100  Biso   1.000  C
  C738     1.0000 0.30970  0.23170  0.12650  Biso   1.000  C
  C739     1.0000 0.37530  0.67020  0.61990  Biso   1.000  C
  N42      1.0000 0.37580  0.69680  0.61690  Biso   1.000  N
  C740     1.0000 0.41260  0.72600  0.56220  Biso   1.000  C
  C741     1.0000 0.43740  0.72040  0.54100  Biso   1.000  C
  C742     1.0000 0.46480  0.73890  0.54240  Biso   1.000  C
  C743     1.0000 0.43500  0.73700  0.53260  Biso   1.000  C
  C744     1.0000 0.44260  0.76850  0.58620  Biso   1.000  C
  C745     1.0000 0.33010  0.75620  0.60540  Biso   1.000  C
  C746     1.0000 0.32210  0.78130  0.58520  Biso   1.000  C
  C747     1.0000 0.29110  0.78420  0.57400  Biso   1.000  C
  C748     1.0000 0.26810  0.76210  0.58290  Biso   1.000  C
  C749     1.0000 0.27620  0.73710  0.60310  Biso   1.000  C
  C750     1.0000 0.30720  0.73420  0.61430  Biso   1.000  C
  C751     1.0000 0.33040  0.75250  0.61130  Biso   1.000  C
  C752     1.0000 0.31870  0.77550  0.59050  Biso   1.000  C
  C753     1.0000 0.28610  0.77770  0.58500  Biso   1.000  C
  C754     1.0000 0.26530  0.75690  0.60030  Biso   1.000  C
  C755     1.0000 0.27710  0.73390  0.62100  Biso   1.000  C
  C756     1.0000 0.30970  0.73170  0.62650  Biso   1.000  C
  C757     1.0000 0.87530  0.17020  0.61990  Biso   1.000  C
  N43      1.0000 0.87580  0.19680  0.61690  Biso   1.000  N
  C758     1.0000 0.91260  0.22600  0.56220  Biso   1.000  C
  C759     1.0000 0.93740  0.22040  0.54100  Biso   1.000  C
  C760     1.0000 0.96480  0.23890  0.54240  Biso   1.000  C
  C761     1.0000 0.93500  0.23700  0.53260  Biso   1.000  C
  C762     1.0000 0.94260  0.26850  0.58620  Biso   1.000  C
  C763     1.0000 0.83010  0.25620  0.60540  Biso   1.000  C
  C764     1.0000 0.82210  0.28130  0.58520  Biso   1.000  C
  C765     1.0000 0.79110  0.28420  0.57400  Biso   1.000  C
  C766     1.0000 0.76810  0.26210  0.58290  Biso   1.000  C
  C767     1.0000 0.77620  0.23710  0.60310  Biso   1.000  C
  C768     1.0000 0.80720  0.23420  0.61430  Biso   1.000  C
  C769     1.0000 0.83040  0.25250  0.61130  Biso   1.000  C
  C770     1.0000 0.81870  0.27550  0.59050  Biso   1.000  C
  C771     1.0000 0.78610  0.27770  0.58500  Biso   1.000  C
  C772     1.0000 0.76530  0.25690  0.60030  Biso   1.000  C
  C773     1.0000 0.77710  0.23390  0.62100  Biso   1.000  C
  C774     1.0000 0.80970  0.23170  0.62650  Biso   1.000  C
  C775     1.0000 0.87530  0.67020  0.11990  Biso   1.000  C
  N44      1.0000 0.87580  0.69680  0.11690  Biso   1.000  N
  C776     1.0000 0.91260  0.72600  0.06220  Biso   1.000  C
  C777     1.0000 0.93740  0.72040  0.04100  Biso   1.000  C
  C778     1.0000 0.96480  0.73890  0.04240  Biso   1.000  C
  C779     1.0000 0.93500  0.73700  0.03260  Biso   1.000  C
  C780     1.0000 0.94260  0.76850  0.08620  Biso   1.000  C
  C781     1.0000 0.83010  0.75620  0.10540  Biso   1.000  C
  C782     1.0000 0.82210  0.78130  0.08520  Biso   1.000  C
  C783     1.0000 0.79110  0.78420  0.07400  Biso   1.000  C
  C784     1.0000 0.76810  0.76210  0.08290  Biso   1.000  C
  C785     1.0000 0.77620  0.73710  0.10310  Biso   1.000  C
  C786     1.0000 0.80720  0.73420  0.11430  Biso   1.000  C
  C787     1.0000 0.83040  0.75250  0.11130  Biso   1.000  C
  C788     1.0000 0.81870  0.77550  0.09050  Biso   1.000  C
  C789     1.0000 0.78610  0.77770  0.08500  Biso   1.000  C
  C790     1.0000 0.76530  0.75690  0.10030  Biso   1.000  C
  C791     1.0000 0.77710  0.73390  0.12100  Biso   1.000  C
  C792     1.0000 0.80970  0.73170  0.12650  Biso   1.000  C
  C793     1.0000 0.37470  0.67020  0.13010  Biso   1.000  C
  N45      1.0000 0.37420  0.69680  0.13310  Biso   1.000  N
  C794     1.0000 0.33740  0.72600  0.18780  Biso   1.000  C
  C795     1.0000 0.31260  0.72040  0.20900  Biso   1.000  C
  C796     1.0000 0.28520  0.73890  0.20760  Biso   1.000  C
  C797     1.0000 0.31500  0.73700  0.21740  Biso   1.000  C
  C798     1.0000 0.30740  0.76850  0.16380  Biso   1.000  C
  C799     1.0000 0.41990  0.75620  0.14460  Biso   1.000  C
  C800     1.0000 0.42790  0.78130  0.16480  Biso   1.000  C
  C801     1.0000 0.45890  0.78420  0.17600  Biso   1.000  C
  C802     1.0000 0.48190  0.76210  0.16710  Biso   1.000  C
  C803     1.0000 0.47380  0.73710  0.14690  Biso   1.000  C
  C804     1.0000 0.44280  0.73420  0.13570  Biso   1.000  C
  C805     1.0000 0.41960  0.75250  0.13870  Biso   1.000  C
  C806     1.0000 0.43130  0.77550  0.15950  Biso   1.000  C
  C807     1.0000 0.46390  0.77770  0.16500  Biso   1.000  C
  C808     1.0000 0.48470  0.75690  0.14970  Biso   1.000  C
  C809     1.0000 0.47290  0.73390  0.12900  Biso   1.000  C
  C810     1.0000 0.44030  0.73170  0.12350  Biso   1.000  C
  C811     1.0000 0.37470  0.17020  0.63010  Biso   1.000  C
  N46      1.0000 0.37420  0.19680  0.63310  Biso   1.000  N
  C812     1.0000 0.33740  0.22600  0.68780  Biso   1.000  C
  C813     1.0000 0.31260  0.22040  0.70900  Biso   1.000  C
  C814     1.0000 0.28520  0.23890  0.70760  Biso   1.000  C
  C815     1.0000 0.31500  0.23700  0.71740  Biso   1.000  C
  C816     1.0000 0.30740  0.26850  0.66380  Biso   1.000  C
  C817     1.0000 0.41990  0.25620  0.64460  Biso   1.000  C
  C818     1.0000 0.42790  0.28130  0.66480  Biso   1.000  C
  C819     1.0000 0.45890  0.28420  0.67600  Biso   1.000  C
  C820     1.0000 0.48190  0.26210  0.66710  Biso   1.000  C
  C821     1.0000 0.47380  0.23710  0.64690  Biso   1.000  C
  C822     1.0000 0.44280  0.23420  0.63570  Biso   1.000  C
  C823     1.0000 0.41960  0.25250  0.63870  Biso   1.000  C
  C824     1.0000 0.43130  0.27550  0.65950  Biso   1.000  C
  C825     1.0000 0.46390  0.27770  0.66500  Biso   1.000  C
  C826     1.0000 0.48470  0.25690  0.64970  Biso   1.000  C
  C827     1.0000 0.47290  0.23390  0.62900  Biso   1.000  C
  C828     1.0000 0.44030  0.23170  0.62350  Biso   1.000  C
  C829     1.0000 0.87470  0.67020  0.63010  Biso   1.000  C
  N47      1.0000 0.87420  0.69680  0.63310  Biso   1.000  N
  C830     1.0000 0.83740  0.72600  0.68780  Biso   1.000  C
  C831     1.0000 0.81260  0.72040  0.70900  Biso   1.000  C
  C832     1.0000 0.78520  0.73890  0.70760  Biso   1.000  C
  C833     1.0000 0.81500  0.73700  0.71740  Biso   1.000  C
  C834     1.0000 0.80740  0.76850  0.66380  Biso   1.000  C
  C835     1.0000 0.91990  0.75620  0.64460  Biso   1.000  C
  C836     1.0000 0.92790  0.78130  0.66480  Biso   1.000  C
  C837     1.0000 0.95890  0.78420  0.67600  Biso   1.000  C
  C838     1.0000 0.98190  0.76210  0.66710  Biso   1.000  C
  C839     1.0000 0.97380  0.73710  0.64690  Biso   1.000  C
  C840     1.0000 0.94280  0.73420  0.63570  Biso   1.000  C
  C841     1.0000 0.91960  0.75250  0.63870  Biso   1.000  C
  C842     1.0000 0.93130  0.77550  0.65950  Biso   1.000  C
  C843     1.0000 0.96390  0.77770  0.66500  Biso   1.000  C
  C844     1.0000 0.98470  0.75690  0.64970  Biso   1.000  C
  C845     1.0000 0.97290  0.73390  0.62900  Biso   1.000  C
  C846     1.0000 0.94030  0.73170  0.62350  Biso   1.000  C
  C847     1.0000 0.87470  0.17020  0.13010  Biso   1.000  C
  N48      1.0000 0.87420  0.19680  0.13310  Biso   1.000  N
  C848     1.0000 0.83740  0.22600  0.18780  Biso   1.000  C
  C849     1.0000 0.81260  0.22040  0.20900  Biso   1.000  C
  C850     1.0000 0.78520  0.23890  0.20760  Biso   1.000  C
  C851     1.0000 0.81500  0.23700  0.21740  Biso   1.000  C
  C852     1.0000 0.80740  0.26850  0.16380  Biso   1.000  C
  C853     1.0000 0.91990  0.25620  0.14460  Biso   1.000  C
  C854     1.0000 0.92790  0.28130  0.16480  Biso   1.000  C
  C855     1.0000 0.95890  0.28420  0.17600  Biso   1.000  C
  C856     1.0000 0.98190  0.26210  0.16710  Biso   1.000  C
  C857     1.0000 0.97380  0.23710  0.14690  Biso   1.000  C
  C858     1.0000 0.94280  0.23420  0.13570  Biso   1.000  C
  C859     1.0000 0.91960  0.25250  0.13870  Biso   1.000  C
  C860     1.0000 0.93130  0.27550  0.15950  Biso   1.000  C
  C861     1.0000 0.96390  0.27770  0.16500  Biso   1.000  C
  C862     1.0000 0.98470  0.25690  0.14970  Biso   1.000  C
  C863     1.0000 0.97290  0.23390  0.12900  Biso   1.000  C
  C864     1.0000 0.94030  0.23170  0.12350  Biso   1.000  C
  C865     1.0000 0.62530  0.88010  0.92020  Biso   1.000  C
  N49      1.0000 0.62580  0.88310  0.94680  Biso   1.000  N
  C866     1.0000 0.66260  0.93780  0.97600  Biso   1.000  C
  C867     1.0000 0.68740  0.95900  0.97040  Biso   1.000  C
  C868     1.0000 0.71480  0.95760  0.98890  Biso   1.000  C
  C869     1.0000 0.68500  0.96740  0.98700  Biso   1.000  C
  C870     1.0000 0.69260  0.91380  0.01850  Biso   1.000  C
  C871     1.0000 0.58010  0.89460  0.00620  Biso   1.000  C
  C872     1.0000 0.57210  0.91480  0.03130  Biso   1.000  C
  C873     1.0000 0.54110  0.92600  0.03420  Biso   1.000  C
  C874     1.0000 0.51810  0.91710  0.01210  Biso   1.000  C
  C875     1.0000 0.52620  0.89690  0.98710  Biso   1.000  C
  C876     1.0000 0.55720  0.88570  0.98420  Biso   1.000  C
  C877     1.0000 0.58040  0.88870  0.00250  Biso   1.000  C
  C878     1.0000 0.56870  0.90950  0.02550  Biso   1.000  C
  C879     1.0000 0.53610  0.91500  0.02770  Biso   1.000  C
  C880     1.0000 0.51530  0.89970  0.00690  Biso   1.000  C
  C881     1.0000 0.52710  0.87900  0.98390  Biso   1.000  C
  C882     1.0000 0.55970  0.87350  0.98170  Biso   1.000  C
  C883     1.0000 0.62530  0.38010  0.42020  Biso   1.000  C
  N50      1.0000 0.62580  0.38310  0.44680  Biso   1.000  N
  C884     1.0000 0.66260  0.43780  0.47600  Biso   1.000  C
  C885     1.0000 0.68740  0.45900  0.47040  Biso   1.000  C
  C886     1.0000 0.71480  0.45760  0.48890  Biso   1.000  C
  C887     1.0000 0.68500  0.46740  0.48700  Biso   1.000  C
  C888     1.0000 0.69260  0.41380  0.51850  Biso   1.000  C
  C889     1.0000 0.58010  0.39460  0.50620  Biso   1.000  C
  C890     1.0000 0.57210  0.41480  0.53130  Biso   1.000  C
  C891     1.0000 0.54110  0.42600  0.53420  Biso   1.000  C
  C892     1.0000 0.51810  0.41710  0.51210  Biso   1.000  C
  C893     1.0000 0.52620  0.39690  0.48710  Biso   1.000  C
  C894     1.0000 0.55720  0.38570  0.48420  Biso   1.000  C
  C895     1.0000 0.58040  0.38870  0.50250  Biso   1.000  C
  C896     1.0000 0.56870  0.40950  0.52550  Biso   1.000  C
  C897     1.0000 0.53610  0.41500  0.52770  Biso   1.000  C
  C898     1.0000 0.51530  0.39970  0.50690  Biso   1.000  C
  C899     1.0000 0.52710  0.37900  0.48390  Biso   1.000  C
  C900     1.0000 0.55970  0.37350  0.48170  Biso   1.000  C
  C901     1.0000 0.12530  0.88010  0.42020  Biso   1.000  C
  N51      1.0000 0.12580  0.88310  0.44680  Biso   1.000  N
  C902     1.0000 0.16260  0.93780  0.47600  Biso   1.000  C
  C903     1.0000 0.18740  0.95900  0.47040  Biso   1.000  C
  C904     1.0000 0.21480  0.95760  0.48890  Biso   1.000  C
  C905     1.0000 0.18500  0.96740  0.48700  Biso   1.000  C
  C906     1.0000 0.19260  0.91380  0.51850  Biso   1.000  C
  C907     1.0000 0.08010  0.89460  0.50620  Biso   1.000  C
  C908     1.0000 0.07210  0.91480  0.53130  Biso   1.000  C
  C909     1.0000 0.04110  0.92600  0.53420  Biso   1.000  C
  C910     1.0000 0.01810  0.91710  0.51210  Biso   1.000  C
  C911     1.0000 0.02620  0.89690  0.48710  Biso   1.000  C
  C912     1.0000 0.05720  0.88570  0.48420  Biso   1.000  C
  C913     1.0000 0.08040  0.88870  0.50250  Biso   1.000  C
  C914     1.0000 0.06870  0.90950  0.52550  Biso   1.000  C
  C915     1.0000 0.03610  0.91500  0.52770  Biso   1.000  C
  C916     1.0000 0.01530  0.89970  0.50690  Biso   1.000  C
  C917     1.0000 0.02710  0.87900  0.48390  Biso   1.000  C
  C918     1.0000 0.05970  0.87350  0.48170  Biso   1.000  C
  C919     1.0000 0.12530  0.38010  0.92020  Biso   1.000  C
  N52      1.0000 0.12580  0.38310  0.94680  Biso   1.000  N
  C920     1.0000 0.16260  0.43780  0.97600  Biso   1.000  C
  C921     1.0000 0.18740  0.45900  0.97040  Biso   1.000  C
  C922     1.0000 0.21480  0.45760  0.98890  Biso   1.000  C
  C923     1.0000 0.18500  0.46740  0.98700  Biso   1.000  C
  C924     1.0000 0.19260  0.41380  0.01850  Biso   1.000  C
  C925     1.0000 0.08010  0.39460  0.00620  Biso   1.000  C
  C926     1.0000 0.07210  0.41480  0.03130  Biso   1.000  C
  C927     1.0000 0.04110  0.42600  0.03420  Biso   1.000  C
  C928     1.0000 0.01810  0.41710  0.01210  Biso   1.000  C
  C929     1.0000 0.02620  0.39690  0.98710  Biso   1.000  C
  C930     1.0000 0.05720  0.38570  0.98420  Biso   1.000  C
  C931     1.0000 0.08040  0.38870  0.00250  Biso   1.000  C
  C932     1.0000 0.06870  0.40950  0.02550  Biso   1.000  C
  C933     1.0000 0.03610  0.41500  0.02770  Biso   1.000  C
  C934     1.0000 0.01530  0.39970  0.00690  Biso   1.000  C
  C935     1.0000 0.02710  0.37900  0.98390  Biso   1.000  C
  C936     1.0000 0.05970  0.37350  0.98170  Biso   1.000  C
  C937     1.0000 0.62470  0.86990  0.42020  Biso   1.000  C
  N53      1.0000 0.62420  0.86690  0.44680  Biso   1.000  N
  C938     1.0000 0.58740  0.81220  0.47600  Biso   1.000  C
  C939     1.0000 0.56260  0.79100  0.47040  Biso   1.000  C
  C940     1.0000 0.53520  0.79240  0.48890  Biso   1.000  C
  C941     1.0000 0.56500  0.78260  0.48700  Biso   1.000  C
  C942     1.0000 0.55740  0.83620  0.51850  Biso   1.000  C
  C943     1.0000 0.66990  0.85540  0.50620  Biso   1.000  C
  C944     1.0000 0.67790  0.83520  0.53130  Biso   1.000  C
  C945     1.0000 0.70890  0.82400  0.53420  Biso   1.000  C
  C946     1.0000 0.73190  0.83290  0.51210  Biso   1.000  C
  C947     1.0000 0.72380  0.85310  0.48710  Biso   1.000  C
  C948     1.0000 0.69280  0.86430  0.48420  Biso   1.000  C
  C949     1.0000 0.66960  0.86130  0.50250  Biso   1.000  C
  C950     1.0000 0.68130  0.84050  0.52550  Biso   1.000  C
  C951     1.0000 0.71390  0.83500  0.52770  Biso   1.000  C
  C952     1.0000 0.73470  0.85030  0.50690  Biso   1.000  C
  C953     1.0000 0.72290  0.87100  0.48390  Biso   1.000  C
  C954     1.0000 0.69030  0.87650  0.48170  Biso   1.000  C
  C955     1.0000 0.62470  0.36990  0.92020  Biso   1.000  C
  N54      1.0000 0.62420  0.36690  0.94680  Biso   1.000  N
  C956     1.0000 0.58740  0.31220  0.97600  Biso   1.000  C
  C957     1.0000 0.56260  0.29100  0.97040  Biso   1.000  C
  C958     1.0000 0.53520  0.29240  0.98890  Biso   1.000  C
  C959     1.0000 0.56500  0.28260  0.98700  Biso   1.000  C
  C960     1.0000 0.55740  0.33620  0.01850  Biso   1.000  C
  C961     1.0000 0.66990  0.35540  0.00620  Biso   1.000  C
  C962     1.0000 0.67790  0.33520  0.03130  Biso   1.000  C
  C963     1.0000 0.70890  0.32400  0.03420  Biso   1.000  C
  C964     1.0000 0.73190  0.33290  0.01210  Biso   1.000  C
  C965     1.0000 0.72380  0.35310  0.98710  Biso   1.000  C
  C966     1.0000 0.69280  0.36430  0.98420  Biso   1.000  C
  C967     1.0000 0.66960  0.36130  0.00250  Biso   1.000  C
  C968     1.0000 0.68130  0.34050  0.02550  Biso   1.000  C
  C969     1.0000 0.71390  0.33500  0.02770  Biso   1.000  C
  C970     1.0000 0.73470  0.35030  0.00690  Biso   1.000  C
  C971     1.0000 0.72290  0.37100  0.98390  Biso   1.000  C
  C972     1.0000 0.69030  0.37650  0.98170  Biso   1.000  C
  C973     1.0000 0.12470  0.86990  0.92020  Biso   1.000  C
  N55      1.0000 0.12420  0.86690  0.94680  Biso   1.000  N
  C974     1.0000 0.08740  0.81220  0.97600  Biso   1.000  C
  C975     1.0000 0.06260  0.79100  0.97040  Biso   1.000  C
  C976     1.0000 0.03520  0.79240  0.98890  Biso   1.000  C
  C977     1.0000 0.06500  0.78260  0.98700  Biso   1.000  C
  C978     1.0000 0.05740  0.83620  0.01850  Biso   1.000  C
  C979     1.0000 0.16990  0.85540  0.00620  Biso   1.000  C
  C980     1.0000 0.17790  0.83520  0.03130  Biso   1.000  C
  C981     1.0000 0.20890  0.82400  0.03420  Biso   1.000  C
  C982     1.0000 0.23190  0.83290  0.01210  Biso   1.000  C
  C983     1.0000 0.22380  0.85310  0.98710  Biso   1.000  C
  C984     1.0000 0.19280  0.86430  0.98420  Biso   1.000  C
  C985     1.0000 0.16960  0.86130  0.00250  Biso   1.000  C
  C986     1.0000 0.18130  0.84050  0.02550  Biso   1.000  C
  C987     1.0000 0.21390  0.83500  0.02770  Biso   1.000  C
  C988     1.0000 0.23470  0.85030  0.00690  Biso   1.000  C
  C989     1.0000 0.22290  0.87100  0.98390  Biso   1.000  C
  C990     1.0000 0.19030  0.87650  0.98170  Biso   1.000  C
  C991     1.0000 0.12470  0.36990  0.42020  Biso   1.000  C
  N56      1.0000 0.12420  0.36690  0.44680  Biso   1.000  N
  C992     1.0000 0.08740  0.31220  0.47600  Biso   1.000  C
  C993     1.0000 0.06260  0.29100  0.47040  Biso   1.000  C
  C994     1.0000 0.03520  0.29240  0.48890  Biso   1.000  C
  C995     1.0000 0.06500  0.28260  0.48700  Biso   1.000  C
  C996     1.0000 0.05740  0.33620  0.51850  Biso   1.000  C
  C997     1.0000 0.16990  0.35540  0.50620  Biso   1.000  C
  C998     1.0000 0.17790  0.33520  0.53130  Biso   1.000  C
  C999     1.0000 0.20890  0.32400  0.53420  Biso   1.000  C
  C1000    1.0000 0.23190  0.33290  0.51210  Biso   1.000  C
  C1001    1.0000 0.22380  0.35310  0.48710  Biso   1.000  C
  C1002    1.0000 0.19280  0.36430  0.48420  Biso   1.000  C
  C1003    1.0000 0.16960  0.36130  0.50250  Biso   1.000  C
  C1004    1.0000 0.18130  0.34050  0.52550  Biso   1.000  C
  C1005    1.0000 0.21390  0.33500  0.52770  Biso   1.000  C
  C1006    1.0000 0.23470  0.35030  0.50690  Biso   1.000  C
  C1007    1.0000 0.22290  0.37100  0.48390  Biso   1.000  C
  C1008    1.0000 0.19030  0.37650  0.48170  Biso   1.000  C
  C1009    1.0000 0.12530  0.36990  0.82980  Biso   1.000  C
  N57      1.0000 0.12580  0.36690  0.80320  Biso   1.000  N
  C1010    1.0000 0.16260  0.31220  0.77400  Biso   1.000  C
  C1011    1.0000 0.18740  0.29100  0.77960  Biso   1.000  C
  C1012    1.0000 0.21480  0.29240  0.76110  Biso   1.000  C
  C1013    1.0000 0.18500  0.28260  0.76300  Biso   1.000  C
  C1014    1.0000 0.19260  0.33620  0.73150  Biso   1.000  C
  C1015    1.0000 0.08010  0.35540  0.74380  Biso   1.000  C
  C1016    1.0000 0.07210  0.33520  0.71870  Biso   1.000  C
  C1017    1.0000 0.04110  0.32400  0.71580  Biso   1.000  C
  C1018    1.0000 0.01810  0.33290  0.73790  Biso   1.000  C
  C1019    1.0000 0.02620  0.35310  0.76290  Biso   1.000  C
  C1020    1.0000 0.05720  0.36430  0.76580  Biso   1.000  C
  C1021    1.0000 0.08040  0.36130  0.74750  Biso   1.000  C
  C1022    1.0000 0.06870  0.34050  0.72450  Biso   1.000  C
  C1023    1.0000 0.03610  0.33500  0.72230  Biso   1.000  C
  C1024    1.0000 0.01530  0.35030  0.74310  Biso   1.000  C
  C1025    1.0000 0.02710  0.37100  0.76610  Biso   1.000  C
  C1026    1.0000 0.05970  0.37650  0.76830  Biso   1.000  C
  C1027    1.0000 0.12530  0.86990  0.32980  Biso   1.000  C
  N58      1.0000 0.12580  0.86690  0.30320  Biso   1.000  N
  C1028    1.0000 0.16260  0.81220  0.27400  Biso   1.000  C
  C1029    1.0000 0.18740  0.79100  0.27960  Biso   1.000  C
  C1030    1.0000 0.21480  0.79240  0.26110  Biso   1.000  C
  C1031    1.0000 0.18500  0.78260  0.26300  Biso   1.000  C
  C1032    1.0000 0.19260  0.83620  0.23150  Biso   1.000  C
  C1033    1.0000 0.08010  0.85540  0.24380  Biso   1.000  C
  C1034    1.0000 0.07210  0.83520  0.21870  Biso   1.000  C
  C1035    1.0000 0.04110  0.82400  0.21580  Biso   1.000  C
  C1036    1.0000 0.01810  0.83290  0.23790  Biso   1.000  C
  C1037    1.0000 0.02620  0.85310  0.26290  Biso   1.000  C
  C1038    1.0000 0.05720  0.86430  0.26580  Biso   1.000  C
  C1039    1.0000 0.08040  0.86130  0.24750  Biso   1.000  C
  C1040    1.0000 0.06870  0.84050  0.22450  Biso   1.000  C
  C1041    1.0000 0.03610  0.83500  0.22230  Biso   1.000  C
  C1042    1.0000 0.01530  0.85030  0.24310  Biso   1.000  C
  C1043    1.0000 0.02710  0.87100  0.26610  Biso   1.000  C
  C1044    1.0000 0.05970  0.87650  0.26830  Biso   1.000  C
  C1045    1.0000 0.62530  0.36990  0.32980  Biso   1.000  C
  N59      1.0000 0.62580  0.36690  0.30320  Biso   1.000  N
  C1046    1.0000 0.66260  0.31220  0.27400  Biso   1.000  C
  C1047    1.0000 0.68740  0.29100  0.27960  Biso   1.000  C
  C1048    1.0000 0.71480  0.29240  0.26110  Biso   1.000  C
  C1049    1.0000 0.68500  0.28260  0.26300  Biso   1.000  C
  C1050    1.0000 0.69260  0.33620  0.23150  Biso   1.000  C
  C1051    1.0000 0.58010  0.35540  0.24380  Biso   1.000  C
  C1052    1.0000 0.57210  0.33520  0.21870  Biso   1.000  C
  C1053    1.0000 0.54110  0.32400  0.21580  Biso   1.000  C
  C1054    1.0000 0.51810  0.33290  0.23790  Biso   1.000  C
  C1055    1.0000 0.52620  0.35310  0.26290  Biso   1.000  C
  C1056    1.0000 0.55720  0.36430  0.26580  Biso   1.000  C
  C1057    1.0000 0.58040  0.36130  0.24750  Biso   1.000  C
  C1058    1.0000 0.56870  0.34050  0.22450  Biso   1.000  C
  C1059    1.0000 0.53610  0.33500  0.22230  Biso   1.000  C
  C1060    1.0000 0.51530  0.35030  0.24310  Biso   1.000  C
  C1061    1.0000 0.52710  0.37100  0.26610  Biso   1.000  C
  C1062    1.0000 0.55970  0.37650  0.26830  Biso   1.000  C
  C1063    1.0000 0.62530  0.86990  0.82980  Biso   1.000  C
  N60      1.0000 0.62580  0.86690  0.80320  Biso   1.000  N
  C1064    1.0000 0.66260  0.81220  0.77400  Biso   1.000  C
  C1065    1.0000 0.68740  0.79100  0.77960  Biso   1.000  C
  C1066    1.0000 0.71480  0.79240  0.76110  Biso   1.000  C
  C1067    1.0000 0.68500  0.78260  0.76300  Biso   1.000  C
  C1068    1.0000 0.69260  0.83620  0.73150  Biso   1.000  C
  C1069    1.0000 0.58010  0.85540  0.74380  Biso   1.000  C
  C1070    1.0000 0.57210  0.83520  0.71870  Biso   1.000  C
  C1071    1.0000 0.54110  0.82400  0.71580  Biso   1.000  C
  C1072    1.0000 0.51810  0.83290  0.73790  Biso   1.000  C
  C1073    1.0000 0.52620  0.85310  0.76290  Biso   1.000  C
  C1074    1.0000 0.55720  0.86430  0.76580  Biso   1.000  C
  C1075    1.0000 0.58040  0.86130  0.74750  Biso   1.000  C
  C1076    1.0000 0.56870  0.84050  0.72450  Biso   1.000  C
  C1077    1.0000 0.53610  0.83500  0.72230  Biso   1.000  C
  C1078    1.0000 0.51530  0.85030  0.74310  Biso   1.000  C
  C1079    1.0000 0.52710  0.87100  0.76610  Biso   1.000  C
  C1080    1.0000 0.55970  0.87650  0.76830  Biso   1.000  C
  C1081    1.0000 0.12470  0.38010  0.32980  Biso   1.000  C
  N61      1.0000 0.12420  0.38310  0.30320  Biso   1.000  N
  C1082    1.0000 0.08740  0.43780  0.27400  Biso   1.000  C
  C1083    1.0000 0.06260  0.45900  0.27960  Biso   1.000  C
  C1084    1.0000 0.03520  0.45760  0.26110  Biso   1.000  C
  C1085    1.0000 0.06500  0.46740  0.26300  Biso   1.000  C
  C1086    1.0000 0.05740  0.41380  0.23150  Biso   1.000  C
  C1087    1.0000 0.16990  0.39460  0.24380  Biso   1.000  C
  C1088    1.0000 0.17790  0.41480  0.21870  Biso   1.000  C
  C1089    1.0000 0.20890  0.42600  0.21580  Biso   1.000  C
  C1090    1.0000 0.23190  0.41710  0.23790  Biso   1.000  C
  C1091    1.0000 0.22380  0.39690  0.26290  Biso   1.000  C
  C1092    1.0000 0.19280  0.38570  0.26580  Biso   1.000  C
  C1093    1.0000 0.16960  0.38870  0.24750  Biso   1.000  C
  C1094    1.0000 0.18130  0.40950  0.22450  Biso   1.000  C
  C1095    1.0000 0.21390  0.41500  0.22230  Biso   1.000  C
  C1096    1.0000 0.23470  0.39970  0.24310  Biso   1.000  C
  C1097    1.0000 0.22290  0.37900  0.26610  Biso   1.000  C
  C1098    1.0000 0.19030  0.37350  0.26830  Biso   1.000  C
  C1099    1.0000 0.12470  0.88010  0.82980  Biso   1.000  C
  N62      1.0000 0.12420  0.88310  0.80320  Biso   1.000  N
  C1100    1.0000 0.08740  0.93780  0.77400  Biso   1.000  C
  C1101    1.0000 0.06260  0.95900  0.77960  Biso   1.000  C
  C1102    1.0000 0.03520  0.95760  0.76110  Biso   1.000  C
  C1103    1.0000 0.06500  0.96740  0.76300  Biso   1.000  C
  C1104    1.0000 0.05740  0.91380  0.73150  Biso   1.000  C
  C1105    1.0000 0.16990  0.89460  0.74380  Biso   1.000  C
  C1106    1.0000 0.17790  0.91480  0.71870  Biso   1.000  C
  C1107    1.0000 0.20890  0.92600  0.71580  Biso   1.000  C
  C1108    1.0000 0.23190  0.91710  0.73790  Biso   1.000  C
  C1109    1.0000 0.22380  0.89690  0.76290  Biso   1.000  C
  C1110    1.0000 0.19280  0.88570  0.76580  Biso   1.000  C
  C1111    1.0000 0.16960  0.88870  0.74750  Biso   1.000  C
  C1112    1.0000 0.18130  0.90950  0.72450  Biso   1.000  C
  C1113    1.0000 0.21390  0.91500  0.72230  Biso   1.000  C
  C1114    1.0000 0.23470  0.89970  0.74310  Biso   1.000  C
  C1115    1.0000 0.22290  0.87900  0.76610  Biso   1.000  C
  C1116    1.0000 0.19030  0.87350  0.76830  Biso   1.000  C
  C1117    1.0000 0.62470  0.38010  0.82980  Biso   1.000  C
  N63      1.0000 0.62420  0.38310  0.80320  Biso   1.000  N
  C1118    1.0000 0.58740  0.43780  0.77400  Biso   1.000  C
  C1119    1.0000 0.56260  0.45900  0.77960  Biso   1.000  C
  C1120    1.0000 0.53520  0.45760  0.76110  Biso   1.000  C
  C1121    1.0000 0.56500  0.46740  0.76300  Biso   1.000  C
  C1122    1.0000 0.55740  0.41380  0.73150  Biso   1.000  C
  C1123    1.0000 0.66990  0.39460  0.74380  Biso   1.000  C
  C1124    1.0000 0.67790  0.41480  0.71870  Biso   1.000  C
  C1125    1.0000 0.70890  0.42600  0.71580  Biso   1.000  C
  C1126    1.0000 0.73190  0.41710  0.73790  Biso   1.000  C
  C1127    1.0000 0.72380  0.39690  0.76290  Biso   1.000  C
  C1128    1.0000 0.69280  0.38570  0.76580  Biso   1.000  C
  C1129    1.0000 0.66960  0.38870  0.74750  Biso   1.000  C
  C1130    1.0000 0.68130  0.40950  0.72450  Biso   1.000  C
  C1131    1.0000 0.71390  0.41500  0.72230  Biso   1.000  C
  C1132    1.0000 0.73470  0.39970  0.74310  Biso   1.000  C
  C1133    1.0000 0.72290  0.37900  0.76610  Biso   1.000  C
  C1134    1.0000 0.69030  0.37350  0.76830  Biso   1.000  C
  C1135    1.0000 0.62470  0.88010  0.32980  Biso   1.000  C
  N64      1.0000 0.62420  0.88310  0.30320  Biso   1.000  N
  C1136    1.0000 0.58740  0.93780  0.27400  Biso   1.000  C
  C1137    1.0000 0.56260  0.95900  0.27960  Biso   1.000  C
  C1138    1.0000 0.53520  0.95760  0.26110  Biso   1.000  C
  C1139    1.0000 0.56500  0.96740  0.26300  Biso   1.000  C
  C1140    1.0000 0.55740  0.91380  0.23150  Biso   1.000  C
  C1141    1.0000 0.66990  0.89460  0.24380  Biso   1.000  C
  C1142    1.0000 0.67790  0.91480  0.21870  Biso   1.000  C
  C1143    1.0000 0.70890  0.92600  0.21580  Biso   1.000  C
  C1144    1.0000 0.73190  0.91710  0.23790  Biso   1.000  C
  C1145    1.0000 0.72380  0.89690  0.26290  Biso   1.000  C
  C1146    1.0000 0.69280  0.88570  0.26580  Biso   1.000  C
  C1147    1.0000 0.66960  0.88870  0.24750  Biso   1.000  C
  C1148    1.0000 0.68130  0.90950  0.22450  Biso   1.000  C
  C1149    1.0000 0.71390  0.91500  0.22230  Biso   1.000  C
  C1150    1.0000 0.73470  0.89970  0.24310  Biso   1.000  C
  C1151    1.0000 0.72290  0.87900  0.26610  Biso   1.000  C
  C1152    1.0000 0.69030  0.87350  0.26830  Biso   1.000  C
  C1153    1.0000 0.38010  0.32980  0.12470  Biso   1.000  C
  N65      1.0000 0.38310  0.30320  0.12420  Biso   1.000  N
  C1154    1.0000 0.43780  0.27400  0.08740  Biso   1.000  C
  C1155    1.0000 0.45900  0.27960  0.06260  Biso   1.000  C
  C1156    1.0000 0.45760  0.26110  0.03520  Biso   1.000  C
  C1157    1.0000 0.46740  0.26300  0.06500  Biso   1.000  C
  C1158    1.0000 0.41380  0.23150  0.05740  Biso   1.000  C
  C1159    1.0000 0.39460  0.24380  0.16990  Biso   1.000  C
  C1160    1.0000 0.41480  0.21870  0.17790  Biso   1.000  C
  C1161    1.0000 0.42600  0.21580  0.20890  Biso   1.000  C
  C1162    1.0000 0.41710  0.23790  0.23190  Biso   1.000  C
  C1163    1.0000 0.39690  0.26290  0.22380  Biso   1.000  C
  C1164    1.0000 0.38570  0.26580  0.19280  Biso   1.000  C
  C1165    1.0000 0.38870  0.24750  0.16960  Biso   1.000  C
  C1166    1.0000 0.40950  0.22450  0.18130  Biso   1.000  C
  C1167    1.0000 0.41500  0.22230  0.21390  Biso   1.000  C
  C1168    1.0000 0.39970  0.24310  0.23470  Biso   1.000  C
  C1169    1.0000 0.37900  0.26610  0.22290  Biso   1.000  C
  C1170    1.0000 0.37350  0.26830  0.19030  Biso   1.000  C
  C1171    1.0000 0.38010  0.82980  0.62470  Biso   1.000  C
  N66      1.0000 0.38310  0.80320  0.62420  Biso   1.000  N
  C1172    1.0000 0.43780  0.77400  0.58740  Biso   1.000  C
  C1173    1.0000 0.45900  0.77960  0.56260  Biso   1.000  C
  C1174    1.0000 0.45760  0.76110  0.53520  Biso   1.000  C
  C1175    1.0000 0.46740  0.76300  0.56500  Biso   1.000  C
  C1176    1.0000 0.41380  0.73150  0.55740  Biso   1.000  C
  C1177    1.0000 0.39460  0.74380  0.66990  Biso   1.000  C
  C1178    1.0000 0.41480  0.71870  0.67790  Biso   1.000  C
  C1179    1.0000 0.42600  0.71580  0.70890  Biso   1.000  C
  C1180    1.0000 0.41710  0.73790  0.73190  Biso   1.000  C
  C1181    1.0000 0.39690  0.76290  0.72380  Biso   1.000  C
  C1182    1.0000 0.38570  0.76580  0.69280  Biso   1.000  C
  C1183    1.0000 0.38870  0.74750  0.66960  Biso   1.000  C
  C1184    1.0000 0.40950  0.72450  0.68130  Biso   1.000  C
  C1185    1.0000 0.41500  0.72230  0.71390  Biso   1.000  C
  C1186    1.0000 0.39970  0.74310  0.73470  Biso   1.000  C
  C1187    1.0000 0.37900  0.76610  0.72290  Biso   1.000  C
  C1188    1.0000 0.37350  0.76830  0.69030  Biso   1.000  C
  C1189    1.0000 0.88010  0.32980  0.62470  Biso   1.000  C
  N67      1.0000 0.88310  0.30320  0.62420  Biso   1.000  N
  C1190    1.0000 0.93780  0.27400  0.58740  Biso   1.000  C
  C1191    1.0000 0.95900  0.27960  0.56260  Biso   1.000  C
  C1192    1.0000 0.95760  0.26110  0.53520  Biso   1.000  C
  C1193    1.0000 0.96740  0.26300  0.56500  Biso   1.000  C
  C1194    1.0000 0.91380  0.23150  0.55740  Biso   1.000  C
  C1195    1.0000 0.89460  0.24380  0.66990  Biso   1.000  C
  C1196    1.0000 0.91480  0.21870  0.67790  Biso   1.000  C
  C1197    1.0000 0.92600  0.21580  0.70890  Biso   1.000  C
  C1198    1.0000 0.91710  0.23790  0.73190  Biso   1.000  C
  C1199    1.0000 0.89690  0.26290  0.72380  Biso   1.000  C
  C1200    1.0000 0.88570  0.26580  0.69280  Biso   1.000  C
  C1201    1.0000 0.88870  0.24750  0.66960  Biso   1.000  C
  C1202    1.0000 0.90950  0.22450  0.68130  Biso   1.000  C
  C1203    1.0000 0.91500  0.22230  0.71390  Biso   1.000  C
  C1204    1.0000 0.89970  0.24310  0.73470  Biso   1.000  C
  C1205    1.0000 0.87900  0.26610  0.72290  Biso   1.000  C
  C1206    1.0000 0.87350  0.26830  0.69030  Biso   1.000  C
  C1207    1.0000 0.88010  0.82980  0.12470  Biso   1.000  C
  N68      1.0000 0.88310  0.80320  0.12420  Biso   1.000  N
  C1208    1.0000 0.93780  0.77400  0.08740  Biso   1.000  C
  C1209    1.0000 0.95900  0.77960  0.06260  Biso   1.000  C
  C1210    1.0000 0.95760  0.76110  0.03520  Biso   1.000  C
  C1211    1.0000 0.96740  0.76300  0.06500  Biso   1.000  C
  C1212    1.0000 0.91380  0.73150  0.05740  Biso   1.000  C
  C1213    1.0000 0.89460  0.74380  0.16990  Biso   1.000  C
  C1214    1.0000 0.91480  0.71870  0.17790  Biso   1.000  C
  C1215    1.0000 0.92600  0.71580  0.20890  Biso   1.000  C
  C1216    1.0000 0.91710  0.73790  0.23190  Biso   1.000  C
  C1217    1.0000 0.89690  0.76290  0.22380  Biso   1.000  C
  C1218    1.0000 0.88570  0.76580  0.19280  Biso   1.000  C
  C1219    1.0000 0.88870  0.74750  0.16960  Biso   1.000  C
  C1220    1.0000 0.90950  0.72450  0.18130  Biso   1.000  C
  C1221    1.0000 0.91500  0.72230  0.21390  Biso   1.000  C
  C1222    1.0000 0.89970  0.74310  0.23470  Biso   1.000  C
  C1223    1.0000 0.87900  0.76610  0.22290  Biso   1.000  C
  C1224    1.0000 0.87350  0.76830  0.19030  Biso   1.000  C
  C1225    1.0000 0.36990  0.82980  0.12530  Biso   1.000  C
  N69      1.0000 0.36690  0.80320  0.12580  Biso   1.000  N
  C1226    1.0000 0.31220  0.77400  0.16260  Biso   1.000  C
  C1227    1.0000 0.29100  0.77960  0.18740  Biso   1.000  C
  C1228    1.0000 0.29240  0.76110  0.21480  Biso   1.000  C
  C1229    1.0000 0.28260  0.76300  0.18500  Biso   1.000  C
  C1230    1.0000 0.33620  0.73150  0.19260  Biso   1.000  C
  C1231    1.0000 0.35540  0.74380  0.08010  Biso   1.000  C
  C1232    1.0000 0.33520  0.71870  0.07210  Biso   1.000  C
  C1233    1.0000 0.32400  0.71580  0.04110  Biso   1.000  C
  C1234    1.0000 0.33290  0.73790  0.01810  Biso   1.000  C
  C1235    1.0000 0.35310  0.76290  0.02620  Biso   1.000  C
  C1236    1.0000 0.36430  0.76580  0.05720  Biso   1.000  C
  C1237    1.0000 0.36130  0.74750  0.08040  Biso   1.000  C
  C1238    1.0000 0.34050  0.72450  0.06870  Biso   1.000  C
  C1239    1.0000 0.33500  0.72230  0.03610  Biso   1.000  C
  C1240    1.0000 0.35030  0.74310  0.01530  Biso   1.000  C
  C1241    1.0000 0.37100  0.76610  0.02710  Biso   1.000  C
  C1242    1.0000 0.37650  0.76830  0.05970  Biso   1.000  C
  C1243    1.0000 0.36990  0.32980  0.62530  Biso   1.000  C
  N70      1.0000 0.36690  0.30320  0.62580  Biso   1.000  N
  C1244    1.0000 0.31220  0.27400  0.66260  Biso   1.000  C
  C1245    1.0000 0.29100  0.27960  0.68740  Biso   1.000  C
  C1246    1.0000 0.29240  0.26110  0.71480  Biso   1.000  C
  C1247    1.0000 0.28260  0.26300  0.68500  Biso   1.000  C
  C1248    1.0000 0.33620  0.23150  0.69260  Biso   1.000  C
  C1249    1.0000 0.35540  0.24380  0.58010  Biso   1.000  C
  C1250    1.0000 0.33520  0.21870  0.57210  Biso   1.000  C
  C1251    1.0000 0.32400  0.21580  0.54110  Biso   1.000  C
  C1252    1.0000 0.33290  0.23790  0.51810  Biso   1.000  C
  C1253    1.0000 0.35310  0.26290  0.52620  Biso   1.000  C
  C1254    1.0000 0.36430  0.26580  0.55720  Biso   1.000  C
  C1255    1.0000 0.36130  0.24750  0.58040  Biso   1.000  C
  C1256    1.0000 0.34050  0.22450  0.56870  Biso   1.000  C
  C1257    1.0000 0.33500  0.22230  0.53610  Biso   1.000  C
  C1258    1.0000 0.35030  0.24310  0.51530  Biso   1.000  C
  C1259    1.0000 0.37100  0.26610  0.52710  Biso   1.000  C
  C1260    1.0000 0.37650  0.26830  0.55970  Biso   1.000  C
  C1261    1.0000 0.86990  0.82980  0.62530  Biso   1.000  C
  N71      1.0000 0.86690  0.80320  0.62580  Biso   1.000  N
  C1262    1.0000 0.81220  0.77400  0.66260  Biso   1.000  C
  C1263    1.0000 0.79100  0.77960  0.68740  Biso   1.000  C
  C1264    1.0000 0.79240  0.76110  0.71480  Biso   1.000  C
  C1265    1.0000 0.78260  0.76300  0.68500  Biso   1.000  C
  C1266    1.0000 0.83620  0.73150  0.69260  Biso   1.000  C
  C1267    1.0000 0.85540  0.74380  0.58010  Biso   1.000  C
  C1268    1.0000 0.83520  0.71870  0.57210  Biso   1.000  C
  C1269    1.0000 0.82400  0.71580  0.54110  Biso   1.000  C
  C1270    1.0000 0.83290  0.73790  0.51810  Biso   1.000  C
  C1271    1.0000 0.85310  0.76290  0.52620  Biso   1.000  C
  C1272    1.0000 0.86430  0.76580  0.55720  Biso   1.000  C
  C1273    1.0000 0.86130  0.74750  0.58040  Biso   1.000  C
  C1274    1.0000 0.84050  0.72450  0.56870  Biso   1.000  C
  C1275    1.0000 0.83500  0.72230  0.53610  Biso   1.000  C
  C1276    1.0000 0.85030  0.74310  0.51530  Biso   1.000  C
  C1277    1.0000 0.87100  0.76610  0.52710  Biso   1.000  C
  C1278    1.0000 0.87650  0.76830  0.55970  Biso   1.000  C
  C1279    1.0000 0.86990  0.32980  0.12530  Biso   1.000  C
  N72      1.0000 0.86690  0.30320  0.12580  Biso   1.000  N
  C1280    1.0000 0.81220  0.27400  0.16260  Biso   1.000  C
  C1281    1.0000 0.79100  0.27960  0.18740  Biso   1.000  C
  C1282    1.0000 0.79240  0.26110  0.21480  Biso   1.000  C
  C1283    1.0000 0.78260  0.26300  0.18500  Biso   1.000  C
  C1284    1.0000 0.83620  0.23150  0.19260  Biso   1.000  C
  C1285    1.0000 0.85540  0.24380  0.08010  Biso   1.000  C
  C1286    1.0000 0.83520  0.21870  0.07210  Biso   1.000  C
  C1287    1.0000 0.82400  0.21580  0.04110  Biso   1.000  C
  C1288    1.0000 0.83290  0.23790  0.01810  Biso   1.000  C
  C1289    1.0000 0.85310  0.26290  0.02620  Biso   1.000  C
  C1290    1.0000 0.86430  0.26580  0.05720  Biso   1.000  C
  C1291    1.0000 0.86130  0.24750  0.08040  Biso   1.000  C
  C1292    1.0000 0.84050  0.22450  0.06870  Biso   1.000  C
  C1293    1.0000 0.83500  0.22230  0.03610  Biso   1.000  C
  C1294    1.0000 0.85030  0.24310  0.01530  Biso   1.000  C
  C1295    1.0000 0.87100  0.26610  0.02710  Biso   1.000  C
  C1296    1.0000 0.87650  0.26830  0.05970  Biso   1.000  C
  C1297    1.0000 0.86990  0.42020  0.62470  Biso   1.000  C
  N73      1.0000 0.86690  0.44680  0.62420  Biso   1.000  N
  C1298    1.0000 0.81220  0.47600  0.58740  Biso   1.000  C
  C1299    1.0000 0.79100  0.47040  0.56260  Biso   1.000  C
  C1300    1.0000 0.79240  0.48890  0.53520  Biso   1.000  C
  C1301    1.0000 0.78260  0.48700  0.56500  Biso   1.000  C
  C1302    1.0000 0.83620  0.51850  0.55740  Biso   1.000  C
  C1303    1.0000 0.85540  0.50620  0.66990  Biso   1.000  C
  C1304    1.0000 0.83520  0.53130  0.67790  Biso   1.000  C
  C1305    1.0000 0.82400  0.53420  0.70890  Biso   1.000  C
  C1306    1.0000 0.83290  0.51210  0.73190  Biso   1.000  C
  C1307    1.0000 0.85310  0.48710  0.72380  Biso   1.000  C
  C1308    1.0000 0.86430  0.48420  0.69280  Biso   1.000  C
  C1309    1.0000 0.86130  0.50250  0.66960  Biso   1.000  C
  C1310    1.0000 0.84050  0.52550  0.68130  Biso   1.000  C
  C1311    1.0000 0.83500  0.52770  0.71390  Biso   1.000  C
  C1312    1.0000 0.85030  0.50690  0.73470  Biso   1.000  C
  C1313    1.0000 0.87100  0.48390  0.72290  Biso   1.000  C
  C1314    1.0000 0.87650  0.48170  0.69030  Biso   1.000  C
  C1315    1.0000 0.86990  0.92020  0.12470  Biso   1.000  C
  N74      1.0000 0.86690  0.94680  0.12420  Biso   1.000  N
  C1316    1.0000 0.81220  0.97600  0.08740  Biso   1.000  C
  C1317    1.0000 0.79100  0.97040  0.06260  Biso   1.000  C
  C1318    1.0000 0.79240  0.98890  0.03520  Biso   1.000  C
  C1319    1.0000 0.78260  0.98700  0.06500  Biso   1.000  C
  C1320    1.0000 0.83620  0.01850  0.05740  Biso   1.000  C
  C1321    1.0000 0.85540  0.00620  0.16990  Biso   1.000  C
  C1322    1.0000 0.83520  0.03130  0.17790  Biso   1.000  C
  C1323    1.0000 0.82400  0.03420  0.20890  Biso   1.000  C
  C1324    1.0000 0.83290  0.01210  0.23190  Biso   1.000  C
  C1325    1.0000 0.85310  0.98710  0.22380  Biso   1.000  C
  C1326    1.0000 0.86430  0.98420  0.19280  Biso   1.000  C
  C1327    1.0000 0.86130  0.00250  0.16960  Biso   1.000  C
  C1328    1.0000 0.84050  0.02550  0.18130  Biso   1.000  C
  C1329    1.0000 0.83500  0.02770  0.21390  Biso   1.000  C
  C1330    1.0000 0.85030  0.00690  0.23470  Biso   1.000  C
  C1331    1.0000 0.87100  0.98390  0.22290  Biso   1.000  C
  C1332    1.0000 0.87650  0.98170  0.19030  Biso   1.000  C
  C1333    1.0000 0.36990  0.42020  0.12470  Biso   1.000  C
  N75      1.0000 0.36690  0.44680  0.12420  Biso   1.000  N
  C1334    1.0000 0.31220  0.47600  0.08740  Biso   1.000  C
  C1335    1.0000 0.29100  0.47040  0.06260  Biso   1.000  C
  C1336    1.0000 0.29240  0.48890  0.03520  Biso   1.000  C
  C1337    1.0000 0.28260  0.48700  0.06500  Biso   1.000  C
  C1338    1.0000 0.33620  0.51850  0.05740  Biso   1.000  C
  C1339    1.0000 0.35540  0.50620  0.16990  Biso   1.000  C
  C1340    1.0000 0.33520  0.53130  0.17790  Biso   1.000  C
  C1341    1.0000 0.32400  0.53420  0.20890  Biso   1.000  C
  C1342    1.0000 0.33290  0.51210  0.23190  Biso   1.000  C
  C1343    1.0000 0.35310  0.48710  0.22380  Biso   1.000  C
  C1344    1.0000 0.36430  0.48420  0.19280  Biso   1.000  C
  C1345    1.0000 0.36130  0.50250  0.16960  Biso   1.000  C
  C1346    1.0000 0.34050  0.52550  0.18130  Biso   1.000  C
  C1347    1.0000 0.33500  0.52770  0.21390  Biso   1.000  C
  C1348    1.0000 0.35030  0.50690  0.23470  Biso   1.000  C
  C1349    1.0000 0.37100  0.48390  0.22290  Biso   1.000  C
  C1350    1.0000 0.37650  0.48170  0.19030  Biso   1.000  C
  C1351    1.0000 0.36990  0.92020  0.62470  Biso   1.000  C
  N76      1.0000 0.36690  0.94680  0.62420  Biso   1.000  N
  C1352    1.0000 0.31220  0.97600  0.58740  Biso   1.000  C
  C1353    1.0000 0.29100  0.97040  0.56260  Biso   1.000  C
  C1354    1.0000 0.29240  0.98890  0.53520  Biso   1.000  C
  C1355    1.0000 0.28260  0.98700  0.56500  Biso   1.000  C
  C1356    1.0000 0.33620  0.01850  0.55740  Biso   1.000  C
  C1357    1.0000 0.35540  0.00620  0.66990  Biso   1.000  C
  C1358    1.0000 0.33520  0.03130  0.67790  Biso   1.000  C
  C1359    1.0000 0.32400  0.03420  0.70890  Biso   1.000  C
  C1360    1.0000 0.33290  0.01210  0.73190  Biso   1.000  C
  C1361    1.0000 0.35310  0.98710  0.72380  Biso   1.000  C
  C1362    1.0000 0.36430  0.98420  0.69280  Biso   1.000  C
  C1363    1.0000 0.36130  0.00250  0.66960  Biso   1.000  C
  C1364    1.0000 0.34050  0.02550  0.68130  Biso   1.000  C
  C1365    1.0000 0.33500  0.02770  0.71390  Biso   1.000  C
  C1366    1.0000 0.35030  0.00690  0.73470  Biso   1.000  C
  C1367    1.0000 0.37100  0.98390  0.72290  Biso   1.000  C
  C1368    1.0000 0.37650  0.98170  0.69030  Biso   1.000  C
  C1369    1.0000 0.88010  0.92020  0.62530  Biso   1.000  C
  N77      1.0000 0.88310  0.94680  0.62580  Biso   1.000  N
  C1370    1.0000 0.93780  0.97600  0.66260  Biso   1.000  C
  C1371    1.0000 0.95900  0.97040  0.68740  Biso   1.000  C
  C1372    1.0000 0.95760  0.98890  0.71480  Biso   1.000  C
  C1373    1.0000 0.96740  0.98700  0.68500  Biso   1.000  C
  C1374    1.0000 0.91380  0.01850  0.69260  Biso   1.000  C
  C1375    1.0000 0.89460  0.00620  0.58010  Biso   1.000  C
  C1376    1.0000 0.91480  0.03130  0.57210  Biso   1.000  C
  C1377    1.0000 0.92600  0.03420  0.54110  Biso   1.000  C
  C1378    1.0000 0.91710  0.01210  0.51810  Biso   1.000  C
  C1379    1.0000 0.89690  0.98710  0.52620  Biso   1.000  C
  C1380    1.0000 0.88570  0.98420  0.55720  Biso   1.000  C
  C1381    1.0000 0.88870  0.00250  0.58040  Biso   1.000  C
  C1382    1.0000 0.90950  0.02550  0.56870  Biso   1.000  C
  C1383    1.0000 0.91500  0.02770  0.53610  Biso   1.000  C
  C1384    1.0000 0.89970  0.00690  0.51530  Biso   1.000  C
  C1385    1.0000 0.87900  0.98390  0.52710  Biso   1.000  C
  C1386    1.0000 0.87350  0.98170  0.55970  Biso   1.000  C
  C1387    1.0000 0.88010  0.42020  0.12530  Biso   1.000  C
  N78      1.0000 0.88310  0.44680  0.12580  Biso   1.000  N
  C1388    1.0000 0.93780  0.47600  0.16260  Biso   1.000  C
  C1389    1.0000 0.95900  0.47040  0.18740  Biso   1.000  C
  C1390    1.0000 0.95760  0.48890  0.21480  Biso   1.000  C
  C1391    1.0000 0.96740  0.48700  0.18500  Biso   1.000  C
  C1392    1.0000 0.91380  0.51850  0.19260  Biso   1.000  C
  C1393    1.0000 0.89460  0.50620  0.08010  Biso   1.000  C
  C1394    1.0000 0.91480  0.53130  0.07210  Biso   1.000  C
  C1395    1.0000 0.92600  0.53420  0.04110  Biso   1.000  C
  C1396    1.0000 0.91710  0.51210  0.01810  Biso   1.000  C
  C1397    1.0000 0.89690  0.48710  0.02620  Biso   1.000  C
  C1398    1.0000 0.88570  0.48420  0.05720  Biso   1.000  C
  C1399    1.0000 0.88870  0.50250  0.08040  Biso   1.000  C
  C1400    1.0000 0.90950  0.52550  0.06870  Biso   1.000  C
  C1401    1.0000 0.91500  0.52770  0.03610  Biso   1.000  C
  C1402    1.0000 0.89970  0.50690  0.01530  Biso   1.000  C
  C1403    1.0000 0.87900  0.48390  0.02710  Biso   1.000  C
  C1404    1.0000 0.87350  0.48170  0.05970  Biso   1.000  C
  C1405    1.0000 0.38010  0.92020  0.12530  Biso   1.000  C
  N79      1.0000 0.38310  0.94680  0.12580  Biso   1.000  N
  C1406    1.0000 0.43780  0.97600  0.16260  Biso   1.000  C
  C1407    1.0000 0.45900  0.97040  0.18740  Biso   1.000  C
  C1408    1.0000 0.45760  0.98890  0.21480  Biso   1.000  C
  C1409    1.0000 0.46740  0.98700  0.18500  Biso   1.000  C
  C1410    1.0000 0.41380  0.01850  0.19260  Biso   1.000  C
  C1411    1.0000 0.39460  0.00620  0.08010  Biso   1.000  C
  C1412    1.0000 0.41480  0.03130  0.07210  Biso   1.000  C
  C1413    1.0000 0.42600  0.03420  0.04110  Biso   1.000  C
  C1414    1.0000 0.41710  0.01210  0.01810  Biso   1.000  C
  C1415    1.0000 0.39690  0.98710  0.02620  Biso   1.000  C
  C1416    1.0000 0.38570  0.98420  0.05720  Biso   1.000  C
  C1417    1.0000 0.38870  0.00250  0.08040  Biso   1.000  C
  C1418    1.0000 0.40950  0.02550  0.06870  Biso   1.000  C
  C1419    1.0000 0.41500  0.02770  0.03610  Biso   1.000  C
  C1420    1.0000 0.39970  0.00690  0.01530  Biso   1.000  C
  C1421    1.0000 0.37900  0.98390  0.02710  Biso   1.000  C
  C1422    1.0000 0.37350  0.98170  0.05970  Biso   1.000  C
  C1423    1.0000 0.38010  0.42020  0.62530  Biso   1.000  C
  N80      1.0000 0.38310  0.44680  0.62580  Biso   1.000  N
  C1424    1.0000 0.43780  0.47600  0.66260  Biso   1.000  C
  C1425    1.0000 0.45900  0.47040  0.68740  Biso   1.000  C
  C1426    1.0000 0.45760  0.48890  0.71480  Biso   1.000  C
  C1427    1.0000 0.46740  0.48700  0.68500  Biso   1.000  C
  C1428    1.0000 0.41380  0.51850  0.69260  Biso   1.000  C
  C1429    1.0000 0.39460  0.50620  0.58010  Biso   1.000  C
  C1430    1.0000 0.41480  0.53130  0.57210  Biso   1.000  C
  C1431    1.0000 0.42600  0.53420  0.54110  Biso   1.000  C
  C1432    1.0000 0.41710  0.51210  0.51810  Biso   1.000  C
  C1433    1.0000 0.39690  0.48710  0.52620  Biso   1.000  C
  C1434    1.0000 0.38570  0.48420  0.55720  Biso   1.000  C
  C1435    1.0000 0.38870  0.50250  0.58040  Biso   1.000  C
  C1436    1.0000 0.40950  0.52550  0.56870  Biso   1.000  C
  C1437    1.0000 0.41500  0.52770  0.53610  Biso   1.000  C
  C1438    1.0000 0.39970  0.50690  0.51530  Biso   1.000  C
  C1439    1.0000 0.37900  0.48390  0.52710  Biso   1.000  C
  C1440    1.0000 0.37350  0.48170  0.55970  Biso   1.000  C
  C1441    1.0000 0.82980  0.12530  0.36990  Biso   1.000  C
  N81      1.0000 0.80320  0.12580  0.36690  Biso   1.000  N
  C1442    1.0000 0.77400  0.16260  0.31220  Biso   1.000  C
  C1443    1.0000 0.77960  0.18740  0.29100  Biso   1.000  C
  C1444    1.0000 0.76110  0.21480  0.29240  Biso   1.000  C
  C1445    1.0000 0.76300  0.18500  0.28260  Biso   1.000  C
  C1446    1.0000 0.73150  0.19260  0.33620  Biso   1.000  C
  C1447    1.0000 0.74380  0.08010  0.35540  Biso   1.000  C
  C1448    1.0000 0.71870  0.07210  0.33520  Biso   1.000  C
  C1449    1.0000 0.71580  0.04110  0.32400  Biso   1.000  C
  C1450    1.0000 0.73790  0.01810  0.33290  Biso   1.000  C
  C1451    1.0000 0.76290  0.02620  0.35310  Biso   1.000  C
  C1452    1.0000 0.76580  0.05720  0.36430  Biso   1.000  C
  C1453    1.0000 0.74750  0.08040  0.36130  Biso   1.000  C
  C1454    1.0000 0.72450  0.06870  0.34050  Biso   1.000  C
  C1455    1.0000 0.72230  0.03610  0.33500  Biso   1.000  C
  C1456    1.0000 0.74310  0.01530  0.35030  Biso   1.000  C
  C1457    1.0000 0.76610  0.02710  0.37100  Biso   1.000  C
  C1458    1.0000 0.76830  0.05970  0.37650  Biso   1.000  C
  C1459    1.0000 0.82980  0.62530  0.86990  Biso   1.000  C
  N82      1.0000 0.80320  0.62580  0.86690  Biso   1.000  N
  C1460    1.0000 0.77400  0.66260  0.81220  Biso   1.000  C
  C1461    1.0000 0.77960  0.68740  0.79100  Biso   1.000  C
  C1462    1.0000 0.76110  0.71480  0.79240  Biso   1.000  C
  C1463    1.0000 0.76300  0.68500  0.78260  Biso   1.000  C
  C1464    1.0000 0.73150  0.69260  0.83620  Biso   1.000  C
  C1465    1.0000 0.74380  0.58010  0.85540  Biso   1.000  C
  C1466    1.0000 0.71870  0.57210  0.83520  Biso   1.000  C
  C1467    1.0000 0.71580  0.54110  0.82400  Biso   1.000  C
  C1468    1.0000 0.73790  0.51810  0.83290  Biso   1.000  C
  C1469    1.0000 0.76290  0.52620  0.85310  Biso   1.000  C
  C1470    1.0000 0.76580  0.55720  0.86430  Biso   1.000  C
  C1471    1.0000 0.74750  0.58040  0.86130  Biso   1.000  C
  C1472    1.0000 0.72450  0.56870  0.84050  Biso   1.000  C
  C1473    1.0000 0.72230  0.53610  0.83500  Biso   1.000  C
  C1474    1.0000 0.74310  0.51530  0.85030  Biso   1.000  C
  C1475    1.0000 0.76610  0.52710  0.87100  Biso   1.000  C
  C1476    1.0000 0.76830  0.55970  0.87650  Biso   1.000  C
  C1477    1.0000 0.32980  0.12530  0.86990  Biso   1.000  C
  N83      1.0000 0.30320  0.12580  0.86690  Biso   1.000  N
  C1478    1.0000 0.27400  0.16260  0.81220  Biso   1.000  C
  C1479    1.0000 0.27960  0.18740  0.79100  Biso   1.000  C
  C1480    1.0000 0.26110  0.21480  0.79240  Biso   1.000  C
  C1481    1.0000 0.26300  0.18500  0.78260  Biso   1.000  C
  C1482    1.0000 0.23150  0.19260  0.83620  Biso   1.000  C
  C1483    1.0000 0.24380  0.08010  0.85540  Biso   1.000  C
  C1484    1.0000 0.21870  0.07210  0.83520  Biso   1.000  C
  C1485    1.0000 0.21580  0.04110  0.82400  Biso   1.000  C
  C1486    1.0000 0.23790  0.01810  0.83290  Biso   1.000  C
  C1487    1.0000 0.26290  0.02620  0.85310  Biso   1.000  C
  C1488    1.0000 0.26580  0.05720  0.86430  Biso   1.000  C
  C1489    1.0000 0.24750  0.08040  0.86130  Biso   1.000  C
  C1490    1.0000 0.22450  0.06870  0.84050  Biso   1.000  C
  C1491    1.0000 0.22230  0.03610  0.83500  Biso   1.000  C
  C1492    1.0000 0.24310  0.01530  0.85030  Biso   1.000  C
  C1493    1.0000 0.26610  0.02710  0.87100  Biso   1.000  C
  C1494    1.0000 0.26830  0.05970  0.87650  Biso   1.000  C
  C1495    1.0000 0.32980  0.62530  0.36990  Biso   1.000  C
  N84      1.0000 0.30320  0.62580  0.36690  Biso   1.000  N
  C1496    1.0000 0.27400  0.66260  0.31220  Biso   1.000  C
  C1497    1.0000 0.27960  0.68740  0.29100  Biso   1.000  C
  C1498    1.0000 0.26110  0.71480  0.29240  Biso   1.000  C
  C1499    1.0000 0.26300  0.68500  0.28260  Biso   1.000  C
  C1500    1.0000 0.23150  0.69260  0.33620  Biso   1.000  C
  C1501    1.0000 0.24380  0.58010  0.35540  Biso   1.000  C
  C1502    1.0000 0.21870  0.57210  0.33520  Biso   1.000  C
  C1503    1.0000 0.21580  0.54110  0.32400  Biso   1.000  C
  C1504    1.0000 0.23790  0.51810  0.33290  Biso   1.000  C
  C1505    1.0000 0.26290  0.52620  0.35310  Biso   1.000  C
  C1506    1.0000 0.26580  0.55720  0.36430  Biso   1.000  C
  C1507    1.0000 0.24750  0.58040  0.36130  Biso   1.000  C
  C1508    1.0000 0.22450  0.56870  0.34050  Biso   1.000  C
  C1509    1.0000 0.22230  0.53610  0.33500  Biso   1.000  C
  C1510    1.0000 0.24310  0.51530  0.35030  Biso   1.000  C
  C1511    1.0000 0.26610  0.52710  0.37100  Biso   1.000  C
  C1512    1.0000 0.26830  0.55970  0.37650  Biso   1.000  C
  C1513    1.0000 0.32980  0.12470  0.38010  Biso   1.000  C
  N85      1.0000 0.30320  0.12420  0.38310  Biso   1.000  N
  C1514    1.0000 0.27400  0.08740  0.43780  Biso   1.000  C
  C1515    1.0000 0.27960  0.06260  0.45900  Biso   1.000  C
  C1516    1.0000 0.26110  0.03520  0.45760  Biso   1.000  C
  C1517    1.0000 0.26300  0.06500  0.46740  Biso   1.000  C
  C1518    1.0000 0.23150  0.05740  0.41380  Biso   1.000  C
  C1519    1.0000 0.24380  0.16990  0.39460  Biso   1.000  C
  C1520    1.0000 0.21870  0.17790  0.41480  Biso   1.000  C
  C1521    1.0000 0.21580  0.20890  0.42600  Biso   1.000  C
  C1522    1.0000 0.23790  0.23190  0.41710  Biso   1.000  C
  C1523    1.0000 0.26290  0.22380  0.39690  Biso   1.000  C
  C1524    1.0000 0.26580  0.19280  0.38570  Biso   1.000  C
  C1525    1.0000 0.24750  0.16960  0.38870  Biso   1.000  C
  C1526    1.0000 0.22450  0.18130  0.40950  Biso   1.000  C
  C1527    1.0000 0.22230  0.21390  0.41500  Biso   1.000  C
  C1528    1.0000 0.24310  0.23470  0.39970  Biso   1.000  C
  C1529    1.0000 0.26610  0.22290  0.37900  Biso   1.000  C
  C1530    1.0000 0.26830  0.19030  0.37350  Biso   1.000  C
  C1531    1.0000 0.32980  0.62470  0.88010  Biso   1.000  C
  N86      1.0000 0.30320  0.62420  0.88310  Biso   1.000  N
  C1532    1.0000 0.27400  0.58740  0.93780  Biso   1.000  C
  C1533    1.0000 0.27960  0.56260  0.95900  Biso   1.000  C
  C1534    1.0000 0.26110  0.53520  0.95760  Biso   1.000  C
  C1535    1.0000 0.26300  0.56500  0.96740  Biso   1.000  C
  C1536    1.0000 0.23150  0.55740  0.91380  Biso   1.000  C
  C1537    1.0000 0.24380  0.66990  0.89460  Biso   1.000  C
  C1538    1.0000 0.21870  0.67790  0.91480  Biso   1.000  C
  C1539    1.0000 0.21580  0.70890  0.92600  Biso   1.000  C
  C1540    1.0000 0.23790  0.73190  0.91710  Biso   1.000  C
  C1541    1.0000 0.26290  0.72380  0.89690  Biso   1.000  C
  C1542    1.0000 0.26580  0.69280  0.88570  Biso   1.000  C
  C1543    1.0000 0.24750  0.66960  0.88870  Biso   1.000  C
  C1544    1.0000 0.22450  0.68130  0.90950  Biso   1.000  C
  C1545    1.0000 0.22230  0.71390  0.91500  Biso   1.000  C
  C1546    1.0000 0.24310  0.73470  0.89970  Biso   1.000  C
  C1547    1.0000 0.26610  0.72290  0.87900  Biso   1.000  C
  C1548    1.0000 0.26830  0.69030  0.87350  Biso   1.000  C
  C1549    1.0000 0.82980  0.12470  0.88010  Biso   1.000  C
  N87      1.0000 0.80320  0.12420  0.88310  Biso   1.000  N
  C1550    1.0000 0.77400  0.08740  0.93780  Biso   1.000  C
  C1551    1.0000 0.77960  0.06260  0.95900  Biso   1.000  C
  C1552    1.0000 0.76110  0.03520  0.95760  Biso   1.000  C
  C1553    1.0000 0.76300  0.06500  0.96740  Biso   1.000  C
  C1554    1.0000 0.73150  0.05740  0.91380  Biso   1.000  C
  C1555    1.0000 0.74380  0.16990  0.89460  Biso   1.000  C
  C1556    1.0000 0.71870  0.17790  0.91480  Biso   1.000  C
  C1557    1.0000 0.71580  0.20890  0.92600  Biso   1.000  C
  C1558    1.0000 0.73790  0.23190  0.91710  Biso   1.000  C
  C1559    1.0000 0.76290  0.22380  0.89690  Biso   1.000  C
  C1560    1.0000 0.76580  0.19280  0.88570  Biso   1.000  C
  C1561    1.0000 0.74750  0.16960  0.88870  Biso   1.000  C
  C1562    1.0000 0.72450  0.18130  0.90950  Biso   1.000  C
  C1563    1.0000 0.72230  0.21390  0.91500  Biso   1.000  C
  C1564    1.0000 0.74310  0.23470  0.89970  Biso   1.000  C
  C1565    1.0000 0.76610  0.22290  0.87900  Biso   1.000  C
  C1566    1.0000 0.76830  0.19030  0.87350  Biso   1.000  C
  C1567    1.0000 0.82980  0.62470  0.38010  Biso   1.000  C
  N88      1.0000 0.80320  0.62420  0.38310  Biso   1.000  N
  C1568    1.0000 0.77400  0.58740  0.43780  Biso   1.000  C
  C1569    1.0000 0.77960  0.56260  0.45900  Biso   1.000  C
  C1570    1.0000 0.76110  0.53520  0.45760  Biso   1.000  C
  C1571    1.0000 0.76300  0.56500  0.46740  Biso   1.000  C
  C1572    1.0000 0.73150  0.55740  0.41380  Biso   1.000  C
  C1573    1.0000 0.74380  0.66990  0.39460  Biso   1.000  C
  C1574    1.0000 0.71870  0.67790  0.41480  Biso   1.000  C
  C1575    1.0000 0.71580  0.70890  0.42600  Biso   1.000  C
  C1576    1.0000 0.73790  0.73190  0.41710  Biso   1.000  C
  C1577    1.0000 0.76290  0.72380  0.39690  Biso   1.000  C
  C1578    1.0000 0.76580  0.69280  0.38570  Biso   1.000  C
  C1579    1.0000 0.74750  0.66960  0.38870  Biso   1.000  C
  C1580    1.0000 0.72450  0.68130  0.40950  Biso   1.000  C
  C1581    1.0000 0.72230  0.71390  0.41500  Biso   1.000  C
  C1582    1.0000 0.74310  0.73470  0.39970  Biso   1.000  C
  C1583    1.0000 0.76610  0.72290  0.37900  Biso   1.000  C
  C1584    1.0000 0.76830  0.69030  0.37350  Biso   1.000  C
  C1585    1.0000 0.92020  0.62530  0.88010  Biso   1.000  C
  N89      1.0000 0.94680  0.62580  0.88310  Biso   1.000  N
  C1586    1.0000 0.97600  0.66260  0.93780  Biso   1.000  C
  C1587    1.0000 0.97040  0.68740  0.95900  Biso   1.000  C
  C1588    1.0000 0.98890  0.71480  0.95760  Biso   1.000  C
  C1589    1.0000 0.98700  0.68500  0.96740  Biso   1.000  C
  C1590    1.0000 0.01850  0.69260  0.91380  Biso   1.000  C
  C1591    1.0000 0.00620  0.58010  0.89460  Biso   1.000  C
  C1592    1.0000 0.03130  0.57210  0.91480  Biso   1.000  C
  C1593    1.0000 0.03420  0.54110  0.92600  Biso   1.000  C
  C1594    1.0000 0.01210  0.51810  0.91710  Biso   1.000  C
  C1595    1.0000 0.98710  0.52620  0.89690  Biso   1.000  C
  C1596    1.0000 0.98420  0.55720  0.88570  Biso   1.000  C
  C1597    1.0000 0.00250  0.58040  0.88870  Biso   1.000  C
  C1598    1.0000 0.02550  0.56870  0.90950  Biso   1.000  C
  C1599    1.0000 0.02770  0.53610  0.91500  Biso   1.000  C
  C1600    1.0000 0.00690  0.51530  0.89970  Biso   1.000  C
  C1601    1.0000 0.98390  0.52710  0.87900  Biso   1.000  C
  C1602    1.0000 0.98170  0.55970  0.87350  Biso   1.000  C
  C1603    1.0000 0.92020  0.12530  0.38010  Biso   1.000  C
  N90      1.0000 0.94680  0.12580  0.38310  Biso   1.000  N
  C1604    1.0000 0.97600  0.16260  0.43780  Biso   1.000  C
  C1605    1.0000 0.97040  0.18740  0.45900  Biso   1.000  C
  C1606    1.0000 0.98890  0.21480  0.45760  Biso   1.000  C
  C1607    1.0000 0.98700  0.18500  0.46740  Biso   1.000  C
  C1608    1.0000 0.01850  0.19260  0.41380  Biso   1.000  C
  C1609    1.0000 0.00620  0.08010  0.39460  Biso   1.000  C
  C1610    1.0000 0.03130  0.07210  0.41480  Biso   1.000  C
  C1611    1.0000 0.03420  0.04110  0.42600  Biso   1.000  C
  C1612    1.0000 0.01210  0.01810  0.41710  Biso   1.000  C
  C1613    1.0000 0.98710  0.02620  0.39690  Biso   1.000  C
  C1614    1.0000 0.98420  0.05720  0.38570  Biso   1.000  C
  C1615    1.0000 0.00250  0.08040  0.38870  Biso   1.000  C
  C1616    1.0000 0.02550  0.06870  0.40950  Biso   1.000  C
  C1617    1.0000 0.02770  0.03610  0.41500  Biso   1.000  C
  C1618    1.0000 0.00690  0.01530  0.39970  Biso   1.000  C
  C1619    1.0000 0.98390  0.02710  0.37900  Biso   1.000  C
  C1620    1.0000 0.98170  0.05970  0.37350  Biso   1.000  C
  C1621    1.0000 0.42020  0.62530  0.38010  Biso   1.000  C
  N91      1.0000 0.44680  0.62580  0.38310  Biso   1.000  N
  C1622    1.0000 0.47600  0.66260  0.43780  Biso   1.000  C
  C1623    1.0000 0.47040  0.68740  0.45900  Biso   1.000  C
  C1624    1.0000 0.48890  0.71480  0.45760  Biso   1.000  C
  C1625    1.0000 0.48700  0.68500  0.46740  Biso   1.000  C
  C1626    1.0000 0.51850  0.69260  0.41380  Biso   1.000  C
  C1627    1.0000 0.50620  0.58010  0.39460  Biso   1.000  C
  C1628    1.0000 0.53130  0.57210  0.41480  Biso   1.000  C
  C1629    1.0000 0.53420  0.54110  0.42600  Biso   1.000  C
  C1630    1.0000 0.51210  0.51810  0.41710  Biso   1.000  C
  C1631    1.0000 0.48710  0.52620  0.39690  Biso   1.000  C
  C1632    1.0000 0.48420  0.55720  0.38570  Biso   1.000  C
  C1633    1.0000 0.50250  0.58040  0.38870  Biso   1.000  C
  C1634    1.0000 0.52550  0.56870  0.40950  Biso   1.000  C
  C1635    1.0000 0.52770  0.53610  0.41500  Biso   1.000  C
  C1636    1.0000 0.50690  0.51530  0.39970  Biso   1.000  C
  C1637    1.0000 0.48390  0.52710  0.37900  Biso   1.000  C
  C1638    1.0000 0.48170  0.55970  0.37350  Biso   1.000  C
  C1639    1.0000 0.42020  0.12530  0.88010  Biso   1.000  C
  N92      1.0000 0.44680  0.12580  0.88310  Biso   1.000  N
  C1640    1.0000 0.47600  0.16260  0.93780  Biso   1.000  C
  C1641    1.0000 0.47040  0.18740  0.95900  Biso   1.000  C
  C1642    1.0000 0.48890  0.21480  0.95760  Biso   1.000  C
  C1643    1.0000 0.48700  0.18500  0.96740  Biso   1.000  C
  C1644    1.0000 0.51850  0.19260  0.91380  Biso   1.000  C
  C1645    1.0000 0.50620  0.08010  0.89460  Biso   1.000  C
  C1646    1.0000 0.53130  0.07210  0.91480  Biso   1.000  C
  C1647    1.0000 0.53420  0.04110  0.92600  Biso   1.000  C
  C1648    1.0000 0.51210  0.01810  0.91710  Biso   1.000  C
  C1649    1.0000 0.48710  0.02620  0.89690  Biso   1.000  C
  C1650    1.0000 0.48420  0.05720  0.88570  Biso   1.000  C
  C1651    1.0000 0.50250  0.08040  0.88870  Biso   1.000  C
  C1652    1.0000 0.52550  0.06870  0.90950  Biso   1.000  C
  C1653    1.0000 0.52770  0.03610  0.91500  Biso   1.000  C
  C1654    1.0000 0.50690  0.01530  0.89970  Biso   1.000  C
  C1655    1.0000 0.48390  0.02710  0.87900  Biso   1.000  C
  C1656    1.0000 0.48170  0.05970  0.87350  Biso   1.000  C
  C1657    1.0000 0.42020  0.62470  0.86990  Biso   1.000  C
  N93      1.0000 0.44680  0.62420  0.86690  Biso   1.000  N
  C1658    1.0000 0.47600  0.58740  0.81220  Biso   1.000  C
  C1659    1.0000 0.47040  0.56260  0.79100  Biso   1.000  C
  C1660    1.0000 0.48890  0.53520  0.79240  Biso   1.000  C
  C1661    1.0000 0.48700  0.56500  0.78260  Biso   1.000  C
  C1662    1.0000 0.51850  0.55740  0.83620  Biso   1.000  C
  C1663    1.0000 0.50620  0.66990  0.85540  Biso   1.000  C
  C1664    1.0000 0.53130  0.67790  0.83520  Biso   1.000  C
  C1665    1.0000 0.53420  0.70890  0.82400  Biso   1.000  C
  C1666    1.0000 0.51210  0.73190  0.83290  Biso   1.000  C
  C1667    1.0000 0.48710  0.72380  0.85310  Biso   1.000  C
  C1668    1.0000 0.48420  0.69280  0.86430  Biso   1.000  C
  C1669    1.0000 0.50250  0.66960  0.86130  Biso   1.000  C
  C1670    1.0000 0.52550  0.68130  0.84050  Biso   1.000  C
  C1671    1.0000 0.52770  0.71390  0.83500  Biso   1.000  C
  C1672    1.0000 0.50690  0.73470  0.85030  Biso   1.000  C
  C1673    1.0000 0.48390  0.72290  0.87100  Biso   1.000  C
  C1674    1.0000 0.48170  0.69030  0.87650  Biso   1.000  C
  C1675    1.0000 0.42020  0.12470  0.36990  Biso   1.000  C
  N94      1.0000 0.44680  0.12420  0.36690  Biso   1.000  N
  C1676    1.0000 0.47600  0.08740  0.31220  Biso   1.000  C
  C1677    1.0000 0.47040  0.06260  0.29100  Biso   1.000  C
  C1678    1.0000 0.48890  0.03520  0.29240  Biso   1.000  C
  C1679    1.0000 0.48700  0.06500  0.28260  Biso   1.000  C
  C1680    1.0000 0.51850  0.05740  0.33620  Biso   1.000  C
  C1681    1.0000 0.50620  0.16990  0.35540  Biso   1.000  C
  C1682    1.0000 0.53130  0.17790  0.33520  Biso   1.000  C
  C1683    1.0000 0.53420  0.20890  0.32400  Biso   1.000  C
  C1684    1.0000 0.51210  0.23190  0.33290  Biso   1.000  C
  C1685    1.0000 0.48710  0.22380  0.35310  Biso   1.000  C
  C1686    1.0000 0.48420  0.19280  0.36430  Biso   1.000  C
  C1687    1.0000 0.50250  0.16960  0.36130  Biso   1.000  C
  C1688    1.0000 0.52550  0.18130  0.34050  Biso   1.000  C
  C1689    1.0000 0.52770  0.21390  0.33500  Biso   1.000  C
  C1690    1.0000 0.50690  0.23470  0.35030  Biso   1.000  C
  C1691    1.0000 0.48390  0.22290  0.37100  Biso   1.000  C
  C1692    1.0000 0.48170  0.19030  0.37650  Biso   1.000  C
  C1693    1.0000 0.92020  0.62470  0.36990  Biso   1.000  C
  N95      1.0000 0.94680  0.62420  0.36690  Biso   1.000  N
  C1694    1.0000 0.97600  0.58740  0.31220  Biso   1.000  C
  C1695    1.0000 0.97040  0.56260  0.29100  Biso   1.000  C
  C1696    1.0000 0.98890  0.53520  0.29240  Biso   1.000  C
  C1697    1.0000 0.98700  0.56500  0.28260  Biso   1.000  C
  C1698    1.0000 0.01850  0.55740  0.33620  Biso   1.000  C
  C1699    1.0000 0.00620  0.66990  0.35540  Biso   1.000  C
  C1700    1.0000 0.03130  0.67790  0.33520  Biso   1.000  C
  C1701    1.0000 0.03420  0.70890  0.32400  Biso   1.000  C
  C1702    1.0000 0.01210  0.73190  0.33290  Biso   1.000  C
  C1703    1.0000 0.98710  0.72380  0.35310  Biso   1.000  C
  C1704    1.0000 0.98420  0.69280  0.36430  Biso   1.000  C
  C1705    1.0000 0.00250  0.66960  0.36130  Biso   1.000  C
  C1706    1.0000 0.02550  0.68130  0.34050  Biso   1.000  C
  C1707    1.0000 0.02770  0.71390  0.33500  Biso   1.000  C
  C1708    1.0000 0.00690  0.73470  0.35030  Biso   1.000  C
  C1709    1.0000 0.98390  0.72290  0.37100  Biso   1.000  C
  C1710    1.0000 0.98170  0.69030  0.37650  Biso   1.000  C
  C1711    1.0000 0.92020  0.12470  0.86990  Biso   1.000  C
  N96      1.0000 0.94680  0.12420  0.86690  Biso   1.000  N
  C1712    1.0000 0.97600  0.08740  0.81220  Biso   1.000  C
  C1713    1.0000 0.97040  0.06260  0.79100  Biso   1.000  C
  C1714    1.0000 0.98890  0.03520  0.79240  Biso   1.000  C
  C1715    1.0000 0.98700  0.06500  0.78260  Biso   1.000  C
  C1716    1.0000 0.01850  0.05740  0.83620  Biso   1.000  C
  C1717    1.0000 0.00620  0.16990  0.85540  Biso   1.000  C
  C1718    1.0000 0.03130  0.17790  0.83520  Biso   1.000  C
  C1719    1.0000 0.03420  0.20890  0.82400  Biso   1.000  C
  C1720    1.0000 0.01210  0.23190  0.83290  Biso   1.000  C
  C1721    1.0000 0.98710  0.22380  0.85310  Biso   1.000  C
  C1722    1.0000 0.98420  0.19280  0.86430  Biso   1.000  C
  C1723    1.0000 0.00250  0.16960  0.86130  Biso   1.000  C
  C1724    1.0000 0.02550  0.18130  0.84050  Biso   1.000  C
  C1725    1.0000 0.02770  0.21390  0.83500  Biso   1.000  C
  C1726    1.0000 0.00690  0.23470  0.85030  Biso   1.000  C
  C1727    1.0000 0.98390  0.22290  0.87100  Biso   1.000  C
  C1728    1.0000 0.98170  0.19030  0.87650  Biso   1.000  C
  C1729    1.0000 0.36990  0.12470  0.92020  Biso   1.000  C
  N97      1.0000 0.36690  0.12420  0.94680  Biso   1.000  N
  C1730    1.0000 0.31220  0.08740  0.97600  Biso   1.000  C
  C1731    1.0000 0.29100  0.06260  0.97040  Biso   1.000  C
  C1732    1.0000 0.29240  0.03520  0.98890  Biso   1.000  C
  C1733    1.0000 0.28260  0.06500  0.98700  Biso   1.000  C
  C1734    1.0000 0.33620  0.05740  0.01850  Biso   1.000  C
  C1735    1.0000 0.35540  0.16990  0.00620  Biso   1.000  C
  C1736    1.0000 0.33520  0.17790  0.03130  Biso   1.000  C
  C1737    1.0000 0.32400  0.20890  0.03420  Biso   1.000  C
  C1738    1.0000 0.33290  0.23190  0.01210  Biso   1.000  C
  C1739    1.0000 0.35310  0.22380  0.98710  Biso   1.000  C
  C1740    1.0000 0.36430  0.19280  0.98420  Biso   1.000  C
  C1741    1.0000 0.36130  0.16960  0.00250  Biso   1.000  C
  C1742    1.0000 0.34050  0.18130  0.02550  Biso   1.000  C
  C1743    1.0000 0.33500  0.21390  0.02770  Biso   1.000  C
  C1744    1.0000 0.35030  0.23470  0.00690  Biso   1.000  C
  C1745    1.0000 0.37100  0.22290  0.98390  Biso   1.000  C
  C1746    1.0000 0.37650  0.19030  0.98170  Biso   1.000  C
  C1747    1.0000 0.36990  0.62470  0.42020  Biso   1.000  C
  N98      1.0000 0.36690  0.62420  0.44680  Biso   1.000  N
  C1748    1.0000 0.31220  0.58740  0.47600  Biso   1.000  C
  C1749    1.0000 0.29100  0.56260  0.47040  Biso   1.000  C
  C1750    1.0000 0.29240  0.53520  0.48890  Biso   1.000  C
  C1751    1.0000 0.28260  0.56500  0.48700  Biso   1.000  C
  C1752    1.0000 0.33620  0.55740  0.51850  Biso   1.000  C
  C1753    1.0000 0.35540  0.66990  0.50620  Biso   1.000  C
  C1754    1.0000 0.33520  0.67790  0.53130  Biso   1.000  C
  C1755    1.0000 0.32400  0.70890  0.53420  Biso   1.000  C
  C1756    1.0000 0.33290  0.73190  0.51210  Biso   1.000  C
  C1757    1.0000 0.35310  0.72380  0.48710  Biso   1.000  C
  C1758    1.0000 0.36430  0.69280  0.48420  Biso   1.000  C
  C1759    1.0000 0.36130  0.66960  0.50250  Biso   1.000  C
  C1760    1.0000 0.34050  0.68130  0.52550  Biso   1.000  C
  C1761    1.0000 0.33500  0.71390  0.52770  Biso   1.000  C
  C1762    1.0000 0.35030  0.73470  0.50690  Biso   1.000  C
  C1763    1.0000 0.37100  0.72290  0.48390  Biso   1.000  C
  C1764    1.0000 0.37650  0.69030  0.48170  Biso   1.000  C
  C1765    1.0000 0.86990  0.12470  0.42020  Biso   1.000  C
  N99      1.0000 0.86690  0.12420  0.44680  Biso   1.000  N
  C1766    1.0000 0.81220  0.08740  0.47600  Biso   1.000  C
  C1767    1.0000 0.79100  0.06260  0.47040  Biso   1.000  C
  C1768    1.0000 0.79240  0.03520  0.48890  Biso   1.000  C
  C1769    1.0000 0.78260  0.06500  0.48700  Biso   1.000  C
  C1770    1.0000 0.83620  0.05740  0.51850  Biso   1.000  C
  C1771    1.0000 0.85540  0.16990  0.50620  Biso   1.000  C
  C1772    1.0000 0.83520  0.17790  0.53130  Biso   1.000  C
  C1773    1.0000 0.82400  0.20890  0.53420  Biso   1.000  C
  C1774    1.0000 0.83290  0.23190  0.51210  Biso   1.000  C
  C1775    1.0000 0.85310  0.22380  0.48710  Biso   1.000  C
  C1776    1.0000 0.86430  0.19280  0.48420  Biso   1.000  C
  C1777    1.0000 0.86130  0.16960  0.50250  Biso   1.000  C
  C1778    1.0000 0.84050  0.18130  0.52550  Biso   1.000  C
  C1779    1.0000 0.83500  0.21390  0.52770  Biso   1.000  C
  C1780    1.0000 0.85030  0.23470  0.50690  Biso   1.000  C
  C1781    1.0000 0.87100  0.22290  0.48390  Biso   1.000  C
  C1782    1.0000 0.87650  0.19030  0.48170  Biso   1.000  C
  C1783    1.0000 0.86990  0.62470  0.92020  Biso   1.000  C
  N100     1.0000 0.86690  0.62420  0.94680  Biso   1.000  N
  C1784    1.0000 0.81220  0.58740  0.97600  Biso   1.000  C
  C1785    1.0000 0.79100  0.56260  0.97040  Biso   1.000  C
  C1786    1.0000 0.79240  0.53520  0.98890  Biso   1.000  C
  C1787    1.0000 0.78260  0.56500  0.98700  Biso   1.000  C
  C1788    1.0000 0.83620  0.55740  0.01850  Biso   1.000  C
  C1789    1.0000 0.85540  0.66990  0.00620  Biso   1.000  C
  C1790    1.0000 0.83520  0.67790  0.03130  Biso   1.000  C
  C1791    1.0000 0.82400  0.70890  0.03420  Biso   1.000  C
  C1792    1.0000 0.83290  0.73190  0.01210  Biso   1.000  C
  C1793    1.0000 0.85310  0.72380  0.98710  Biso   1.000  C
  C1794    1.0000 0.86430  0.69280  0.98420  Biso   1.000  C
  C1795    1.0000 0.86130  0.66960  0.00250  Biso   1.000  C
  C1796    1.0000 0.84050  0.68130  0.02550  Biso   1.000  C
  C1797    1.0000 0.83500  0.71390  0.02770  Biso   1.000  C
  C1798    1.0000 0.85030  0.73470  0.00690  Biso   1.000  C
  C1799    1.0000 0.87100  0.72290  0.98390  Biso   1.000  C
  C1800    1.0000 0.87650  0.69030  0.98170  Biso   1.000  C
  C1801    1.0000 0.38010  0.12530  0.42020  Biso   1.000  C
  N101     1.0000 0.38310  0.12580  0.44680  Biso   1.000  N
  C1802    1.0000 0.43780  0.16260  0.47600  Biso   1.000  C
  C1803    1.0000 0.45900  0.18740  0.47040  Biso   1.000  C
  C1804    1.0000 0.45760  0.21480  0.48890  Biso   1.000  C
  C1805    1.0000 0.46740  0.18500  0.48700  Biso   1.000  C
  C1806    1.0000 0.41380  0.19260  0.51850  Biso   1.000  C
  C1807    1.0000 0.39460  0.08010  0.50620  Biso   1.000  C
  C1808    1.0000 0.41480  0.07210  0.53130  Biso   1.000  C
  C1809    1.0000 0.42600  0.04110  0.53420  Biso   1.000  C
  C1810    1.0000 0.41710  0.01810  0.51210  Biso   1.000  C
  C1811    1.0000 0.39690  0.02620  0.48710  Biso   1.000  C
  C1812    1.0000 0.38570  0.05720  0.48420  Biso   1.000  C
  C1813    1.0000 0.38870  0.08040  0.50250  Biso   1.000  C
  C1814    1.0000 0.40950  0.06870  0.52550  Biso   1.000  C
  C1815    1.0000 0.41500  0.03610  0.52770  Biso   1.000  C
  C1816    1.0000 0.39970  0.01530  0.50690  Biso   1.000  C
  C1817    1.0000 0.37900  0.02710  0.48390  Biso   1.000  C
  C1818    1.0000 0.37350  0.05970  0.48170  Biso   1.000  C
  C1819    1.0000 0.38010  0.62530  0.92020  Biso   1.000  C
  N102     1.0000 0.38310  0.62580  0.94680  Biso   1.000  N
  C1820    1.0000 0.43780  0.66260  0.97600  Biso   1.000  C
  C1821    1.0000 0.45900  0.68740  0.97040  Biso   1.000  C
  C1822    1.0000 0.45760  0.71480  0.98890  Biso   1.000  C
  C1823    1.0000 0.46740  0.68500  0.98700  Biso   1.000  C
  C1824    1.0000 0.41380  0.69260  0.01850  Biso   1.000  C
  C1825    1.0000 0.39460  0.58010  0.00620  Biso   1.000  C
  C1826    1.0000 0.41480  0.57210  0.03130  Biso   1.000  C
  C1827    1.0000 0.42600  0.54110  0.03420  Biso   1.000  C
  C1828    1.0000 0.41710  0.51810  0.01210  Biso   1.000  C
  C1829    1.0000 0.39690  0.52620  0.98710  Biso   1.000  C
  C1830    1.0000 0.38570  0.55720  0.98420  Biso   1.000  C
  C1831    1.0000 0.38870  0.58040  0.00250  Biso   1.000  C
  C1832    1.0000 0.40950  0.56870  0.02550  Biso   1.000  C
  C1833    1.0000 0.41500  0.53610  0.02770  Biso   1.000  C
  C1834    1.0000 0.39970  0.51530  0.00690  Biso   1.000  C
  C1835    1.0000 0.37900  0.52710  0.98390  Biso   1.000  C
  C1836    1.0000 0.37350  0.55970  0.98170  Biso   1.000  C
  C1837    1.0000 0.88010  0.12530  0.92020  Biso   1.000  C
  N103     1.0000 0.88310  0.12580  0.94680  Biso   1.000  N
  C1838    1.0000 0.93780  0.16260  0.97600  Biso   1.000  C
  C1839    1.0000 0.95900  0.18740  0.97040  Biso   1.000  C
  C1840    1.0000 0.95760  0.21480  0.98890  Biso   1.000  C
  C1841    1.0000 0.96740  0.18500  0.98700  Biso   1.000  C
  C1842    1.0000 0.91380  0.19260  0.01850  Biso   1.000  C
  C1843    1.0000 0.89460  0.08010  0.00620  Biso   1.000  C
  C1844    1.0000 0.91480  0.07210  0.03130  Biso   1.000  C
  C1845    1.0000 0.92600  0.04110  0.03420  Biso   1.000  C
  C1846    1.0000 0.91710  0.01810  0.01210  Biso   1.000  C
  C1847    1.0000 0.89690  0.02620  0.98710  Biso   1.000  C
  C1848    1.0000 0.88570  0.05720  0.98420  Biso   1.000  C
  C1849    1.0000 0.88870  0.08040  0.00250  Biso   1.000  C
  C1850    1.0000 0.90950  0.06870  0.02550  Biso   1.000  C
  C1851    1.0000 0.91500  0.03610  0.02770  Biso   1.000  C
  C1852    1.0000 0.89970  0.01530  0.00690  Biso   1.000  C
  C1853    1.0000 0.87900  0.02710  0.98390  Biso   1.000  C
  C1854    1.0000 0.87350  0.05970  0.98170  Biso   1.000  C
  C1855    1.0000 0.88010  0.62530  0.42020  Biso   1.000  C
  N104     1.0000 0.88310  0.62580  0.44680  Biso   1.000  N
  C1856    1.0000 0.93780  0.66260  0.47600  Biso   1.000  C
  C1857    1.0000 0.95900  0.68740  0.47040  Biso   1.000  C
  C1858    1.0000 0.95760  0.71480  0.48890  Biso   1.000  C
  C1859    1.0000 0.96740  0.68500  0.48700  Biso   1.000  C
  C1860    1.0000 0.91380  0.69260  0.51850  Biso   1.000  C
  C1861    1.0000 0.89460  0.58010  0.50620  Biso   1.000  C
  C1862    1.0000 0.91480  0.57210  0.53130  Biso   1.000  C
  C1863    1.0000 0.92600  0.54110  0.53420  Biso   1.000  C
  C1864    1.0000 0.91710  0.51810  0.51210  Biso   1.000  C
  C1865    1.0000 0.89690  0.52620  0.48710  Biso   1.000  C
  C1866    1.0000 0.88570  0.55720  0.48420  Biso   1.000  C
  C1867    1.0000 0.88870  0.58040  0.50250  Biso   1.000  C
  C1868    1.0000 0.90950  0.56870  0.52550  Biso   1.000  C
  C1869    1.0000 0.91500  0.53610  0.52770  Biso   1.000  C
  C1870    1.0000 0.89970  0.51530  0.50690  Biso   1.000  C
  C1871    1.0000 0.87900  0.52710  0.48390  Biso   1.000  C
  C1872    1.0000 0.87350  0.55970  0.48170  Biso   1.000  C
  C1873    1.0000 0.88010  0.62470  0.82980  Biso   1.000  C
  N105     1.0000 0.88310  0.62420  0.80320  Biso   1.000  N
  C1874    1.0000 0.93780  0.58740  0.77400  Biso   1.000  C
  C1875    1.0000 0.95900  0.56260  0.77960  Biso   1.000  C
  C1876    1.0000 0.95760  0.53520  0.76110  Biso   1.000  C
  C1877    1.0000 0.96740  0.56500  0.76300  Biso   1.000  C
  C1878    1.0000 0.91380  0.55740  0.73150  Biso   1.000  C
  C1879    1.0000 0.89460  0.66990  0.74380  Biso   1.000  C
  C1880    1.0000 0.91480  0.67790  0.71870  Biso   1.000  C
  C1881    1.0000 0.92600  0.70890  0.71580  Biso   1.000  C
  C1882    1.0000 0.91710  0.73190  0.73790  Biso   1.000  C
  C1883    1.0000 0.89690  0.72380  0.76290  Biso   1.000  C
  C1884    1.0000 0.88570  0.69280  0.76580  Biso   1.000  C
  C1885    1.0000 0.88870  0.66960  0.74750  Biso   1.000  C
  C1886    1.0000 0.90950  0.68130  0.72450  Biso   1.000  C
  C1887    1.0000 0.91500  0.71390  0.72230  Biso   1.000  C
  C1888    1.0000 0.89970  0.73470  0.74310  Biso   1.000  C
  C1889    1.0000 0.87900  0.72290  0.76610  Biso   1.000  C
  C1890    1.0000 0.87350  0.69030  0.76830  Biso   1.000  C
  C1891    1.0000 0.88010  0.12470  0.32980  Biso   1.000  C
  N106     1.0000 0.88310  0.12420  0.30320  Biso   1.000  N
  C1892    1.0000 0.93780  0.08740  0.27400  Biso   1.000  C
  C1893    1.0000 0.95900  0.06260  0.27960  Biso   1.000  C
  C1894    1.0000 0.95760  0.03520  0.26110  Biso   1.000  C
  C1895    1.0000 0.96740  0.06500  0.26300  Biso   1.000  C
  C1896    1.0000 0.91380  0.05740  0.23150  Biso   1.000  C
  C1897    1.0000 0.89460  0.16990  0.24380  Biso   1.000  C
  C1898    1.0000 0.91480  0.17790  0.21870  Biso   1.000  C
  C1899    1.0000 0.92600  0.20890  0.21580  Biso   1.000  C
  C1900    1.0000 0.91710  0.23190  0.23790  Biso   1.000  C
  C1901    1.0000 0.89690  0.22380  0.26290  Biso   1.000  C
  C1902    1.0000 0.88570  0.19280  0.26580  Biso   1.000  C
  C1903    1.0000 0.88870  0.16960  0.24750  Biso   1.000  C
  C1904    1.0000 0.90950  0.18130  0.22450  Biso   1.000  C
  C1905    1.0000 0.91500  0.21390  0.22230  Biso   1.000  C
  C1906    1.0000 0.89970  0.23470  0.24310  Biso   1.000  C
  C1907    1.0000 0.87900  0.22290  0.26610  Biso   1.000  C
  C1908    1.0000 0.87350  0.19030  0.26830  Biso   1.000  C
  C1909    1.0000 0.38010  0.62470  0.32980  Biso   1.000  C
  N107     1.0000 0.38310  0.62420  0.30320  Biso   1.000  N
  C1910    1.0000 0.43780  0.58740  0.27400  Biso   1.000  C
  C1911    1.0000 0.45900  0.56260  0.27960  Biso   1.000  C
  C1912    1.0000 0.45760  0.53520  0.26110  Biso   1.000  C
  C1913    1.0000 0.46740  0.56500  0.26300  Biso   1.000  C
  C1914    1.0000 0.41380  0.55740  0.23150  Biso   1.000  C
  C1915    1.0000 0.39460  0.66990  0.24380  Biso   1.000  C
  C1916    1.0000 0.41480  0.67790  0.21870  Biso   1.000  C
  C1917    1.0000 0.42600  0.70890  0.21580  Biso   1.000  C
  C1918    1.0000 0.41710  0.73190  0.23790  Biso   1.000  C
  C1919    1.0000 0.39690  0.72380  0.26290  Biso   1.000  C
  C1920    1.0000 0.38570  0.69280  0.26580  Biso   1.000  C
  C1921    1.0000 0.38870  0.66960  0.24750  Biso   1.000  C
  C1922    1.0000 0.40950  0.68130  0.22450  Biso   1.000  C
  C1923    1.0000 0.41500  0.71390  0.22230  Biso   1.000  C
  C1924    1.0000 0.39970  0.73470  0.24310  Biso   1.000  C
  C1925    1.0000 0.37900  0.72290  0.26610  Biso   1.000  C
  C1926    1.0000 0.37350  0.69030  0.26830  Biso   1.000  C
  C1927    1.0000 0.38010  0.12470  0.82980  Biso   1.000  C
  N108     1.0000 0.38310  0.12420  0.80320  Biso   1.000  N
  C1928    1.0000 0.43780  0.08740  0.77400  Biso   1.000  C
  C1929    1.0000 0.45900  0.06260  0.77960  Biso   1.000  C
  C1930    1.0000 0.45760  0.03520  0.76110  Biso   1.000  C
  C1931    1.0000 0.46740  0.06500  0.76300  Biso   1.000  C
  C1932    1.0000 0.41380  0.05740  0.73150  Biso   1.000  C
  C1933    1.0000 0.39460  0.16990  0.74380  Biso   1.000  C
  C1934    1.0000 0.41480  0.17790  0.71870  Biso   1.000  C
  C1935    1.0000 0.42600  0.20890  0.71580  Biso   1.000  C
  C1936    1.0000 0.41710  0.23190  0.73790  Biso   1.000  C
  C1937    1.0000 0.39690  0.22380  0.76290  Biso   1.000  C
  C1938    1.0000 0.38570  0.19280  0.76580  Biso   1.000  C
  C1939    1.0000 0.38870  0.16960  0.74750  Biso   1.000  C
  C1940    1.0000 0.40950  0.18130  0.72450  Biso   1.000  C
  C1941    1.0000 0.41500  0.21390  0.72230  Biso   1.000  C
  C1942    1.0000 0.39970  0.23470  0.74310  Biso   1.000  C
  C1943    1.0000 0.37900  0.22290  0.76610  Biso   1.000  C
  C1944    1.0000 0.37350  0.19030  0.76830  Biso   1.000  C
  C1945    1.0000 0.86990  0.62530  0.32980  Biso   1.000  C
  N109     1.0000 0.86690  0.62580  0.30320  Biso   1.000  N
  C1946    1.0000 0.81220  0.66260  0.27400  Biso   1.000  C
  C1947    1.0000 0.79100  0.68740  0.27960  Biso   1.000  C
  C1948    1.0000 0.79240  0.71480  0.26110  Biso   1.000  C
  C1949    1.0000 0.78260  0.68500  0.26300  Biso   1.000  C
  C1950    1.0000 0.83620  0.69260  0.23150  Biso   1.000  C
  C1951    1.0000 0.85540  0.58010  0.24380  Biso   1.000  C
  C1952    1.0000 0.83520  0.57210  0.21870  Biso   1.000  C
  C1953    1.0000 0.82400  0.54110  0.21580  Biso   1.000  C
  C1954    1.0000 0.83290  0.51810  0.23790  Biso   1.000  C
  C1955    1.0000 0.85310  0.52620  0.26290  Biso   1.000  C
  C1956    1.0000 0.86430  0.55720  0.26580  Biso   1.000  C
  C1957    1.0000 0.86130  0.58040  0.24750  Biso   1.000  C
  C1958    1.0000 0.84050  0.56870  0.22450  Biso   1.000  C
  C1959    1.0000 0.83500  0.53610  0.22230  Biso   1.000  C
  C1960    1.0000 0.85030  0.51530  0.24310  Biso   1.000  C
  C1961    1.0000 0.87100  0.52710  0.26610  Biso   1.000  C
  C1962    1.0000 0.87650  0.55970  0.26830  Biso   1.000  C
  C1963    1.0000 0.86990  0.12530  0.82980  Biso   1.000  C
  N110     1.0000 0.86690  0.12580  0.80320  Biso   1.000  N
  C1964    1.0000 0.81220  0.16260  0.77400  Biso   1.000  C
  C1965    1.0000 0.79100  0.18740  0.77960  Biso   1.000  C
  C1966    1.0000 0.79240  0.21480  0.76110  Biso   1.000  C
  C1967    1.0000 0.78260  0.18500  0.76300  Biso   1.000  C
  C1968    1.0000 0.83620  0.19260  0.73150  Biso   1.000  C
  C1969    1.0000 0.85540  0.08010  0.74380  Biso   1.000  C
  C1970    1.0000 0.83520  0.07210  0.71870  Biso   1.000  C
  C1971    1.0000 0.82400  0.04110  0.71580  Biso   1.000  C
  C1972    1.0000 0.83290  0.01810  0.73790  Biso   1.000  C
  C1973    1.0000 0.85310  0.02620  0.76290  Biso   1.000  C
  C1974    1.0000 0.86430  0.05720  0.76580  Biso   1.000  C
  C1975    1.0000 0.86130  0.08040  0.74750  Biso   1.000  C
  C1976    1.0000 0.84050  0.06870  0.72450  Biso   1.000  C
  C1977    1.0000 0.83500  0.03610  0.72230  Biso   1.000  C
  C1978    1.0000 0.85030  0.01530  0.74310  Biso   1.000  C
  C1979    1.0000 0.87100  0.02710  0.76610  Biso   1.000  C
  C1980    1.0000 0.87650  0.05970  0.76830  Biso   1.000  C
  C1981    1.0000 0.36990  0.62530  0.82980  Biso   1.000  C
  N111     1.0000 0.36690  0.62580  0.80320  Biso   1.000  N
  C1982    1.0000 0.31220  0.66260  0.77400  Biso   1.000  C
  C1983    1.0000 0.29100  0.68740  0.77960  Biso   1.000  C
  C1984    1.0000 0.29240  0.71480  0.76110  Biso   1.000  C
  C1985    1.0000 0.28260  0.68500  0.76300  Biso   1.000  C
  C1986    1.0000 0.33620  0.69260  0.73150  Biso   1.000  C
  C1987    1.0000 0.35540  0.58010  0.74380  Biso   1.000  C
  C1988    1.0000 0.33520  0.57210  0.71870  Biso   1.000  C
  C1989    1.0000 0.32400  0.54110  0.71580  Biso   1.000  C
  C1990    1.0000 0.33290  0.51810  0.73790  Biso   1.000  C
  C1991    1.0000 0.35310  0.52620  0.76290  Biso   1.000  C
  C1992    1.0000 0.36430  0.55720  0.76580  Biso   1.000  C
  C1993    1.0000 0.36130  0.58040  0.74750  Biso   1.000  C
  C1994    1.0000 0.34050  0.56870  0.72450  Biso   1.000  C
  C1995    1.0000 0.33500  0.53610  0.72230  Biso   1.000  C
  C1996    1.0000 0.35030  0.51530  0.74310  Biso   1.000  C
  C1997    1.0000 0.37100  0.52710  0.76610  Biso   1.000  C
  C1998    1.0000 0.37650  0.55970  0.76830  Biso   1.000  C
  C1999    1.0000 0.36990  0.12530  0.32980  Biso   1.000  C
  N112     1.0000 0.36690  0.12580  0.30320  Biso   1.000  N
  C2000    1.0000 0.31220  0.16260  0.27400  Biso   1.000  C
  C2001    1.0000 0.29100  0.18740  0.27960  Biso   1.000  C
  C2002    1.0000 0.29240  0.21480  0.26110  Biso   1.000  C
  C2003    1.0000 0.28260  0.18500  0.26300  Biso   1.000  C
  C2004    1.0000 0.33620  0.19260  0.23150  Biso   1.000  C
  C2005    1.0000 0.35540  0.08010  0.24380  Biso   1.000  C
  C2006    1.0000 0.33520  0.07210  0.21870  Biso   1.000  C
  C2007    1.0000 0.32400  0.04110  0.21580  Biso   1.000  C
  C2008    1.0000 0.33290  0.01810  0.23790  Biso   1.000  C
  C2009    1.0000 0.35310  0.02620  0.26290  Biso   1.000  C
  C2010    1.0000 0.36430  0.05720  0.26580  Biso   1.000  C
  C2011    1.0000 0.36130  0.08040  0.24750  Biso   1.000  C
  C2012    1.0000 0.34050  0.06870  0.22450  Biso   1.000  C
  C2013    1.0000 0.33500  0.03610  0.22230  Biso   1.000  C
  C2014    1.0000 0.35030  0.01530  0.24310  Biso   1.000  C
  C2015    1.0000 0.37100  0.02710  0.26610  Biso   1.000  C
  C2016    1.0000 0.37650  0.05970  0.26830  Biso   1.000  C
  C2017    1.0000 0.92020  0.36990  0.12470  Biso   1.000  C
  N113     1.0000 0.94680  0.36690  0.12420  Biso   1.000  N
  C2018    1.0000 0.97600  0.31220  0.08740  Biso   1.000  C
  C2019    1.0000 0.97040  0.29100  0.06260  Biso   1.000  C
  C2020    1.0000 0.98890  0.29240  0.03520  Biso   1.000  C
  C2021    1.0000 0.98700  0.28260  0.06500  Biso   1.000  C
  C2022    1.0000 0.01850  0.33620  0.05740  Biso   1.000  C
  C2023    1.0000 0.00620  0.35540  0.16990  Biso   1.000  C
  C2024    1.0000 0.03130  0.33520  0.17790  Biso   1.000  C
  C2025    1.0000 0.03420  0.32400  0.20890  Biso   1.000  C
  C2026    1.0000 0.01210  0.33290  0.23190  Biso   1.000  C
  C2027    1.0000 0.98710  0.35310  0.22380  Biso   1.000  C
  C2028    1.0000 0.98420  0.36430  0.19280  Biso   1.000  C
  C2029    1.0000 0.00250  0.36130  0.16960  Biso   1.000  C
  C2030    1.0000 0.02550  0.34050  0.18130  Biso   1.000  C
  C2031    1.0000 0.02770  0.33500  0.21390  Biso   1.000  C
  C2032    1.0000 0.00690  0.35030  0.23470  Biso   1.000  C
  C2033    1.0000 0.98390  0.37100  0.22290  Biso   1.000  C
  C2034    1.0000 0.98170  0.37650  0.19030  Biso   1.000  C
  C2035    1.0000 0.92020  0.86990  0.62470  Biso   1.000  C
  N114     1.0000 0.94680  0.86690  0.62420  Biso   1.000  N
  C2036    1.0000 0.97600  0.81220  0.58740  Biso   1.000  C
  C2037    1.0000 0.97040  0.79100  0.56260  Biso   1.000  C
  C2038    1.0000 0.98890  0.79240  0.53520  Biso   1.000  C
  C2039    1.0000 0.98700  0.78260  0.56500  Biso   1.000  C
  C2040    1.0000 0.01850  0.83620  0.55740  Biso   1.000  C
  C2041    1.0000 0.00620  0.85540  0.66990  Biso   1.000  C
  C2042    1.0000 0.03130  0.83520  0.67790  Biso   1.000  C
  C2043    1.0000 0.03420  0.82400  0.70890  Biso   1.000  C
  C2044    1.0000 0.01210  0.83290  0.73190  Biso   1.000  C
  C2045    1.0000 0.98710  0.85310  0.72380  Biso   1.000  C
  C2046    1.0000 0.98420  0.86430  0.69280  Biso   1.000  C
  C2047    1.0000 0.00250  0.86130  0.66960  Biso   1.000  C
  C2048    1.0000 0.02550  0.84050  0.68130  Biso   1.000  C
  C2049    1.0000 0.02770  0.83500  0.71390  Biso   1.000  C
  C2050    1.0000 0.00690  0.85030  0.73470  Biso   1.000  C
  C2051    1.0000 0.98390  0.87100  0.72290  Biso   1.000  C
  C2052    1.0000 0.98170  0.87650  0.69030  Biso   1.000  C
  C2053    1.0000 0.42020  0.36990  0.62470  Biso   1.000  C
  N115     1.0000 0.44680  0.36690  0.62420  Biso   1.000  N
  C2054    1.0000 0.47600  0.31220  0.58740  Biso   1.000  C
  C2055    1.0000 0.47040  0.29100  0.56260  Biso   1.000  C
  C2056    1.0000 0.48890  0.29240  0.53520  Biso   1.000  C
  C2057    1.0000 0.48700  0.28260  0.56500  Biso   1.000  C
  C2058    1.0000 0.51850  0.33620  0.55740  Biso   1.000  C
  C2059    1.0000 0.50620  0.35540  0.66990  Biso   1.000  C
  C2060    1.0000 0.53130  0.33520  0.67790  Biso   1.000  C
  C2061    1.0000 0.53420  0.32400  0.70890  Biso   1.000  C
  C2062    1.0000 0.51210  0.33290  0.73190  Biso   1.000  C
  C2063    1.0000 0.48710  0.35310  0.72380  Biso   1.000  C
  C2064    1.0000 0.48420  0.36430  0.69280  Biso   1.000  C
  C2065    1.0000 0.50250  0.36130  0.66960  Biso   1.000  C
  C2066    1.0000 0.52550  0.34050  0.68130  Biso   1.000  C
  C2067    1.0000 0.52770  0.33500  0.71390  Biso   1.000  C
  C2068    1.0000 0.50690  0.35030  0.73470  Biso   1.000  C
  C2069    1.0000 0.48390  0.37100  0.72290  Biso   1.000  C
  C2070    1.0000 0.48170  0.37650  0.69030  Biso   1.000  C
  C2071    1.0000 0.42020  0.86990  0.12470  Biso   1.000  C
  N116     1.0000 0.44680  0.86690  0.12420  Biso   1.000  N
  C2072    1.0000 0.47600  0.81220  0.08740  Biso   1.000  C
  C2073    1.0000 0.47040  0.79100  0.06260  Biso   1.000  C
  C2074    1.0000 0.48890  0.79240  0.03520  Biso   1.000  C
  C2075    1.0000 0.48700  0.78260  0.06500  Biso   1.000  C
  C2076    1.0000 0.51850  0.83620  0.05740  Biso   1.000  C
  C2077    1.0000 0.50620  0.85540  0.16990  Biso   1.000  C
  C2078    1.0000 0.53130  0.83520  0.17790  Biso   1.000  C
  C2079    1.0000 0.53420  0.82400  0.20890  Biso   1.000  C
  C2080    1.0000 0.51210  0.83290  0.23190  Biso   1.000  C
  C2081    1.0000 0.48710  0.85310  0.22380  Biso   1.000  C
  C2082    1.0000 0.48420  0.86430  0.19280  Biso   1.000  C
  C2083    1.0000 0.50250  0.86130  0.16960  Biso   1.000  C
  C2084    1.0000 0.52550  0.84050  0.18130  Biso   1.000  C
  C2085    1.0000 0.52770  0.83500  0.21390  Biso   1.000  C
  C2086    1.0000 0.50690  0.85030  0.23470  Biso   1.000  C
  C2087    1.0000 0.48390  0.87100  0.22290  Biso   1.000  C
  C2088    1.0000 0.48170  0.87650  0.19030  Biso   1.000  C
  C2089    1.0000 0.42020  0.38010  0.12530  Biso   1.000  C
  N117     1.0000 0.44680  0.38310  0.12580  Biso   1.000  N
  C2090    1.0000 0.47600  0.43780  0.16260  Biso   1.000  C
  C2091    1.0000 0.47040  0.45900  0.18740  Biso   1.000  C
  C2092    1.0000 0.48890  0.45760  0.21480  Biso   1.000  C
  C2093    1.0000 0.48700  0.46740  0.18500  Biso   1.000  C
  C2094    1.0000 0.51850  0.41380  0.19260  Biso   1.000  C
  C2095    1.0000 0.50620  0.39460  0.08010  Biso   1.000  C
  C2096    1.0000 0.53130  0.41480  0.07210  Biso   1.000  C
  C2097    1.0000 0.53420  0.42600  0.04110  Biso   1.000  C
  C2098    1.0000 0.51210  0.41710  0.01810  Biso   1.000  C
  C2099    1.0000 0.48710  0.39690  0.02620  Biso   1.000  C
  C2100    1.0000 0.48420  0.38570  0.05720  Biso   1.000  C
  C2101    1.0000 0.50250  0.38870  0.08040  Biso   1.000  C
  C2102    1.0000 0.52550  0.40950  0.06870  Biso   1.000  C
  C2103    1.0000 0.52770  0.41500  0.03610  Biso   1.000  C
  C2104    1.0000 0.50690  0.39970  0.01530  Biso   1.000  C
  C2105    1.0000 0.48390  0.37900  0.02710  Biso   1.000  C
  C2106    1.0000 0.48170  0.37350  0.05970  Biso   1.000  C
  C2107    1.0000 0.42020  0.88010  0.62530  Biso   1.000  C
  N118     1.0000 0.44680  0.88310  0.62580  Biso   1.000  N
  C2108    1.0000 0.47600  0.93780  0.66260  Biso   1.000  C
  C2109    1.0000 0.47040  0.95900  0.68740  Biso   1.000  C
  C2110    1.0000 0.48890  0.95760  0.71480  Biso   1.000  C
  C2111    1.0000 0.48700  0.96740  0.68500  Biso   1.000  C
  C2112    1.0000 0.51850  0.91380  0.69260  Biso   1.000  C
  C2113    1.0000 0.50620  0.89460  0.58010  Biso   1.000  C
  C2114    1.0000 0.53130  0.91480  0.57210  Biso   1.000  C
  C2115    1.0000 0.53420  0.92600  0.54110  Biso   1.000  C
  C2116    1.0000 0.51210  0.91710  0.51810  Biso   1.000  C
  C2117    1.0000 0.48710  0.89690  0.52620  Biso   1.000  C
  C2118    1.0000 0.48420  0.88570  0.55720  Biso   1.000  C
  C2119    1.0000 0.50250  0.88870  0.58040  Biso   1.000  C
  C2120    1.0000 0.52550  0.90950  0.56870  Biso   1.000  C
  C2121    1.0000 0.52770  0.91500  0.53610  Biso   1.000  C
  C2122    1.0000 0.50690  0.89970  0.51530  Biso   1.000  C
  C2123    1.0000 0.48390  0.87900  0.52710  Biso   1.000  C
  C2124    1.0000 0.48170  0.87350  0.55970  Biso   1.000  C
  C2125    1.0000 0.92020  0.38010  0.62530  Biso   1.000  C
  N119     1.0000 0.94680  0.38310  0.62580  Biso   1.000  N
  C2126    1.0000 0.97600  0.43780  0.66260  Biso   1.000  C
  C2127    1.0000 0.97040  0.45900  0.68740  Biso   1.000  C
  C2128    1.0000 0.98890  0.45760  0.71480  Biso   1.000  C
  C2129    1.0000 0.98700  0.46740  0.68500  Biso   1.000  C
  C2130    1.0000 0.01850  0.41380  0.69260  Biso   1.000  C
  C2131    1.0000 0.00620  0.39460  0.58010  Biso   1.000  C
  C2132    1.0000 0.03130  0.41480  0.57210  Biso   1.000  C
  C2133    1.0000 0.03420  0.42600  0.54110  Biso   1.000  C
  C2134    1.0000 0.01210  0.41710  0.51810  Biso   1.000  C
  C2135    1.0000 0.98710  0.39690  0.52620  Biso   1.000  C
  C2136    1.0000 0.98420  0.38570  0.55720  Biso   1.000  C
  C2137    1.0000 0.00250  0.38870  0.58040  Biso   1.000  C
  C2138    1.0000 0.02550  0.40950  0.56870  Biso   1.000  C
  C2139    1.0000 0.02770  0.41500  0.53610  Biso   1.000  C
  C2140    1.0000 0.00690  0.39970  0.51530  Biso   1.000  C
  C2141    1.0000 0.98390  0.37900  0.52710  Biso   1.000  C
  C2142    1.0000 0.98170  0.37350  0.55970  Biso   1.000  C
  C2143    1.0000 0.92020  0.88010  0.12530  Biso   1.000  C
  N120     1.0000 0.94680  0.88310  0.12580  Biso   1.000  N
  C2144    1.0000 0.97600  0.93780  0.16260  Biso   1.000  C
  C2145    1.0000 0.97040  0.95900  0.18740  Biso   1.000  C
  C2146    1.0000 0.98890  0.95760  0.21480  Biso   1.000  C
  C2147    1.0000 0.98700  0.96740  0.18500  Biso   1.000  C
  C2148    1.0000 0.01850  0.91380  0.19260  Biso   1.000  C
  C2149    1.0000 0.00620  0.89460  0.08010  Biso   1.000  C
  C2150    1.0000 0.03130  0.91480  0.07210  Biso   1.000  C
  C2151    1.0000 0.03420  0.92600  0.04110  Biso   1.000  C
  C2152    1.0000 0.01210  0.91710  0.01810  Biso   1.000  C
  C2153    1.0000 0.98710  0.89690  0.02620  Biso   1.000  C
  C2154    1.0000 0.98420  0.88570  0.05720  Biso   1.000  C
  C2155    1.0000 0.00250  0.88870  0.08040  Biso   1.000  C
  C2156    1.0000 0.02550  0.90950  0.06870  Biso   1.000  C
  C2157    1.0000 0.02770  0.91500  0.03610  Biso   1.000  C
  C2158    1.0000 0.00690  0.89970  0.01530  Biso   1.000  C
  C2159    1.0000 0.98390  0.87900  0.02710  Biso   1.000  C
  C2160    1.0000 0.98170  0.87350  0.05970  Biso   1.000  C
  C2161    1.0000 0.82980  0.88010  0.62470  Biso   1.000  C
  N121     1.0000 0.80320  0.88310  0.62420  Biso   1.000  N
  C2162    1.0000 0.77400  0.93780  0.58740  Biso   1.000  C
  C2163    1.0000 0.77960  0.95900  0.56260  Biso   1.000  C
  C2164    1.0000 0.76110  0.95760  0.53520  Biso   1.000  C
  C2165    1.0000 0.76300  0.96740  0.56500  Biso   1.000  C
  C2166    1.0000 0.73150  0.91380  0.55740  Biso   1.000  C
  C2167    1.0000 0.74380  0.89460  0.66990  Biso   1.000  C
  C2168    1.0000 0.71870  0.91480  0.67790  Biso   1.000  C
  C2169    1.0000 0.71580  0.92600  0.70890  Biso   1.000  C
  C2170    1.0000 0.73790  0.91710  0.73190  Biso   1.000  C
  C2171    1.0000 0.76290  0.89690  0.72380  Biso   1.000  C
  C2172    1.0000 0.76580  0.88570  0.69280  Biso   1.000  C
  C2173    1.0000 0.74750  0.88870  0.66960  Biso   1.000  C
  C2174    1.0000 0.72450  0.90950  0.68130  Biso   1.000  C
  C2175    1.0000 0.72230  0.91500  0.71390  Biso   1.000  C
  C2176    1.0000 0.74310  0.89970  0.73470  Biso   1.000  C
  C2177    1.0000 0.76610  0.87900  0.72290  Biso   1.000  C
  C2178    1.0000 0.76830  0.87350  0.69030  Biso   1.000  C
  C2179    1.0000 0.82980  0.38010  0.12470  Biso   1.000  C
  N122     1.0000 0.80320  0.38310  0.12420  Biso   1.000  N
  C2180    1.0000 0.77400  0.43780  0.08740  Biso   1.000  C
  C2181    1.0000 0.77960  0.45900  0.06260  Biso   1.000  C
  C2182    1.0000 0.76110  0.45760  0.03520  Biso   1.000  C
  C2183    1.0000 0.76300  0.46740  0.06500  Biso   1.000  C
  C2184    1.0000 0.73150  0.41380  0.05740  Biso   1.000  C
  C2185    1.0000 0.74380  0.39460  0.16990  Biso   1.000  C
  C2186    1.0000 0.71870  0.41480  0.17790  Biso   1.000  C
  C2187    1.0000 0.71580  0.42600  0.20890  Biso   1.000  C
  C2188    1.0000 0.73790  0.41710  0.23190  Biso   1.000  C
  C2189    1.0000 0.76290  0.39690  0.22380  Biso   1.000  C
  C2190    1.0000 0.76580  0.38570  0.19280  Biso   1.000  C
  C2191    1.0000 0.74750  0.38870  0.16960  Biso   1.000  C
  C2192    1.0000 0.72450  0.40950  0.18130  Biso   1.000  C
  C2193    1.0000 0.72230  0.41500  0.21390  Biso   1.000  C
  C2194    1.0000 0.74310  0.39970  0.23470  Biso   1.000  C
  C2195    1.0000 0.76610  0.37900  0.22290  Biso   1.000  C
  C2196    1.0000 0.76830  0.37350  0.19030  Biso   1.000  C
  C2197    1.0000 0.32980  0.88010  0.12470  Biso   1.000  C
  N123     1.0000 0.30320  0.88310  0.12420  Biso   1.000  N
  C2198    1.0000 0.27400  0.93780  0.08740  Biso   1.000  C
  C2199    1.0000 0.27960  0.95900  0.06260  Biso   1.000  C
  C2200    1.0000 0.26110  0.95760  0.03520  Biso   1.000  C
  C2201    1.0000 0.26300  0.96740  0.06500  Biso   1.000  C
  C2202    1.0000 0.23150  0.91380  0.05740  Biso   1.000  C
  C2203    1.0000 0.24380  0.89460  0.16990  Biso   1.000  C
  C2204    1.0000 0.21870  0.91480  0.17790  Biso   1.000  C
  C2205    1.0000 0.21580  0.92600  0.20890  Biso   1.000  C
  C2206    1.0000 0.23790  0.91710  0.23190  Biso   1.000  C
  C2207    1.0000 0.26290  0.89690  0.22380  Biso   1.000  C
  C2208    1.0000 0.26580  0.88570  0.19280  Biso   1.000  C
  C2209    1.0000 0.24750  0.88870  0.16960  Biso   1.000  C
  C2210    1.0000 0.22450  0.90950  0.18130  Biso   1.000  C
  C2211    1.0000 0.22230  0.91500  0.21390  Biso   1.000  C
  C2212    1.0000 0.24310  0.89970  0.23470  Biso   1.000  C
  C2213    1.0000 0.26610  0.87900  0.22290  Biso   1.000  C
  C2214    1.0000 0.26830  0.87350  0.19030  Biso   1.000  C
  C2215    1.0000 0.32980  0.38010  0.62470  Biso   1.000  C
  N124     1.0000 0.30320  0.38310  0.62420  Biso   1.000  N
  C2216    1.0000 0.27400  0.43780  0.58740  Biso   1.000  C
  C2217    1.0000 0.27960  0.45900  0.56260  Biso   1.000  C
  C2218    1.0000 0.26110  0.45760  0.53520  Biso   1.000  C
  C2219    1.0000 0.26300  0.46740  0.56500  Biso   1.000  C
  C2220    1.0000 0.23150  0.41380  0.55740  Biso   1.000  C
  C2221    1.0000 0.24380  0.39460  0.66990  Biso   1.000  C
  C2222    1.0000 0.21870  0.41480  0.67790  Biso   1.000  C
  C2223    1.0000 0.21580  0.42600  0.70890  Biso   1.000  C
  C2224    1.0000 0.23790  0.41710  0.73190  Biso   1.000  C
  C2225    1.0000 0.26290  0.39690  0.72380  Biso   1.000  C
  C2226    1.0000 0.26580  0.38570  0.69280  Biso   1.000  C
  C2227    1.0000 0.24750  0.38870  0.66960  Biso   1.000  C
  C2228    1.0000 0.22450  0.40950  0.68130  Biso   1.000  C
  C2229    1.0000 0.22230  0.41500  0.71390  Biso   1.000  C
  C2230    1.0000 0.24310  0.39970  0.73470  Biso   1.000  C
  C2231    1.0000 0.26610  0.37900  0.72290  Biso   1.000  C
  C2232    1.0000 0.26830  0.37350  0.69030  Biso   1.000  C
  C2233    1.0000 0.32980  0.86990  0.62530  Biso   1.000  C
  N125     1.0000 0.30320  0.86690  0.62580  Biso   1.000  N
  C2234    1.0000 0.27400  0.81220  0.66260  Biso   1.000  C
  C2235    1.0000 0.27960  0.79100  0.68740  Biso   1.000  C
  C2236    1.0000 0.26110  0.79240  0.71480  Biso   1.000  C
  C2237    1.0000 0.26300  0.78260  0.68500  Biso   1.000  C
  C2238    1.0000 0.23150  0.83620  0.69260  Biso   1.000  C
  C2239    1.0000 0.24380  0.85540  0.58010  Biso   1.000  C
  C2240    1.0000 0.21870  0.83520  0.57210  Biso   1.000  C
  C2241    1.0000 0.21580  0.82400  0.54110  Biso   1.000  C
  C2242    1.0000 0.23790  0.83290  0.51810  Biso   1.000  C
  C2243    1.0000 0.26290  0.85310  0.52620  Biso   1.000  C
  C2244    1.0000 0.26580  0.86430  0.55720  Biso   1.000  C
  C2245    1.0000 0.24750  0.86130  0.58040  Biso   1.000  C
  C2246    1.0000 0.22450  0.84050  0.56870  Biso   1.000  C
  C2247    1.0000 0.22230  0.83500  0.53610  Biso   1.000  C
  C2248    1.0000 0.24310  0.85030  0.51530  Biso   1.000  C
  C2249    1.0000 0.26610  0.87100  0.52710  Biso   1.000  C
  C2250    1.0000 0.26830  0.87650  0.55970  Biso   1.000  C
  C2251    1.0000 0.32980  0.36990  0.12530  Biso   1.000  C
  N126     1.0000 0.30320  0.36690  0.12580  Biso   1.000  N
  C2252    1.0000 0.27400  0.31220  0.16260  Biso   1.000  C
  C2253    1.0000 0.27960  0.29100  0.18740  Biso   1.000  C
  C2254    1.0000 0.26110  0.29240  0.21480  Biso   1.000  C
  C2255    1.0000 0.26300  0.28260  0.18500  Biso   1.000  C
  C2256    1.0000 0.23150  0.33620  0.19260  Biso   1.000  C
  C2257    1.0000 0.24380  0.35540  0.08010  Biso   1.000  C
  C2258    1.0000 0.21870  0.33520  0.07210  Biso   1.000  C
  C2259    1.0000 0.21580  0.32400  0.04110  Biso   1.000  C
  C2260    1.0000 0.23790  0.33290  0.01810  Biso   1.000  C
  C2261    1.0000 0.26290  0.35310  0.02620  Biso   1.000  C
  C2262    1.0000 0.26580  0.36430  0.05720  Biso   1.000  C
  C2263    1.0000 0.24750  0.36130  0.08040  Biso   1.000  C
  C2264    1.0000 0.22450  0.34050  0.06870  Biso   1.000  C
  C2265    1.0000 0.22230  0.33500  0.03610  Biso   1.000  C
  C2266    1.0000 0.24310  0.35030  0.01530  Biso   1.000  C
  C2267    1.0000 0.26610  0.37100  0.02710  Biso   1.000  C
  C2268    1.0000 0.26830  0.37650  0.05970  Biso   1.000  C
  C2269    1.0000 0.82980  0.86990  0.12530  Biso   1.000  C
  N127     1.0000 0.80320  0.86690  0.12580  Biso   1.000  N
  C2270    1.0000 0.77400  0.81220  0.16260  Biso   1.000  C
  C2271    1.0000 0.77960  0.79100  0.18740  Biso   1.000  C
  C2272    1.0000 0.76110  0.79240  0.21480  Biso   1.000  C
  C2273    1.0000 0.76300  0.78260  0.18500  Biso   1.000  C
  C2274    1.0000 0.73150  0.83620  0.19260  Biso   1.000  C
  C2275    1.0000 0.74380  0.85540  0.08010  Biso   1.000  C
  C2276    1.0000 0.71870  0.83520  0.07210  Biso   1.000  C
  C2277    1.0000 0.71580  0.82400  0.04110  Biso   1.000  C
  C2278    1.0000 0.73790  0.83290  0.01810  Biso   1.000  C
  C2279    1.0000 0.76290  0.85310  0.02620  Biso   1.000  C
  C2280    1.0000 0.76580  0.86430  0.05720  Biso   1.000  C
  C2281    1.0000 0.74750  0.86130  0.08040  Biso   1.000  C
  C2282    1.0000 0.72450  0.84050  0.06870  Biso   1.000  C
  C2283    1.0000 0.72230  0.83500  0.03610  Biso   1.000  C
  C2284    1.0000 0.74310  0.85030  0.01530  Biso   1.000  C
  C2285    1.0000 0.76610  0.87100  0.02710  Biso   1.000  C
  C2286    1.0000 0.76830  0.87650  0.05970  Biso   1.000  C
  C2287    1.0000 0.82980  0.36990  0.62530  Biso   1.000  C
  N128     1.0000 0.80320  0.36690  0.62580  Biso   1.000  N
  C2288    1.0000 0.77400  0.31220  0.66260  Biso   1.000  C
  C2289    1.0000 0.77960  0.29100  0.68740  Biso   1.000  C
  C2290    1.0000 0.76110  0.29240  0.71480  Biso   1.000  C
  C2291    1.0000 0.76300  0.28260  0.68500  Biso   1.000  C
  C2292    1.0000 0.73150  0.33620  0.69260  Biso   1.000  C
  C2293    1.0000 0.74380  0.35540  0.58010  Biso   1.000  C
  C2294    1.0000 0.71870  0.33520  0.57210  Biso   1.000  C
  C2295    1.0000 0.71580  0.32400  0.54110  Biso   1.000  C
  C2296    1.0000 0.73790  0.33290  0.51810  Biso   1.000  C
  C2297    1.0000 0.76290  0.35310  0.52620  Biso   1.000  C
  C2298    1.0000 0.76580  0.36430  0.55720  Biso   1.000  C
  C2299    1.0000 0.74750  0.36130  0.58040  Biso   1.000  C
  C2300    1.0000 0.72450  0.34050  0.56870  Biso   1.000  C
  C2301    1.0000 0.72230  0.33500  0.53610  Biso   1.000  C
  C2302    1.0000 0.74310  0.35030  0.51530  Biso   1.000  C
  C2303    1.0000 0.76610  0.37100  0.52710  Biso   1.000  C
  C2304    1.0000 0.76830  0.37650  0.55970  Biso   1.000  C
  C2305    1.0000 0.12470  0.92020  0.36990  Biso   1.000  C
  N129     1.0000 0.12420  0.94680  0.36690  Biso   1.000  N
  C2306    1.0000 0.08740  0.97600  0.31220  Biso   1.000  C
  C2307    1.0000 0.06260  0.97040  0.29100  Biso   1.000  C
  C2308    1.0000 0.03520  0.98890  0.29240  Biso   1.000  C
  C2309    1.0000 0.06500  0.98700  0.28260  Biso   1.000  C
  C2310    1.0000 0.05740  0.01850  0.33620  Biso   1.000  C
  C2311    1.0000 0.16990  0.00620  0.35540  Biso   1.000  C
  C2312    1.0000 0.17790  0.03130  0.33520  Biso   1.000  C
  C2313    1.0000 0.20890  0.03420  0.32400  Biso   1.000  C
  C2314    1.0000 0.23190  0.01210  0.33290  Biso   1.000  C
  C2315    1.0000 0.22380  0.98710  0.35310  Biso   1.000  C
  C2316    1.0000 0.19280  0.98420  0.36430  Biso   1.000  C
  C2317    1.0000 0.16960  0.00250  0.36130  Biso   1.000  C
  C2318    1.0000 0.18130  0.02550  0.34050  Biso   1.000  C
  C2319    1.0000 0.21390  0.02770  0.33500  Biso   1.000  C
  C2320    1.0000 0.23470  0.00690  0.35030  Biso   1.000  C
  C2321    1.0000 0.22290  0.98390  0.37100  Biso   1.000  C
  C2322    1.0000 0.19030  0.98170  0.37650  Biso   1.000  C
  C2323    1.0000 0.12470  0.42020  0.86990  Biso   1.000  C
  N130     1.0000 0.12420  0.44680  0.86690  Biso   1.000  N
  C2324    1.0000 0.08740  0.47600  0.81220  Biso   1.000  C
  C2325    1.0000 0.06260  0.47040  0.79100  Biso   1.000  C
  C2326    1.0000 0.03520  0.48890  0.79240  Biso   1.000  C
  C2327    1.0000 0.06500  0.48700  0.78260  Biso   1.000  C
  C2328    1.0000 0.05740  0.51850  0.83620  Biso   1.000  C
  C2329    1.0000 0.16990  0.50620  0.85540  Biso   1.000  C
  C2330    1.0000 0.17790  0.53130  0.83520  Biso   1.000  C
  C2331    1.0000 0.20890  0.53420  0.82400  Biso   1.000  C
  C2332    1.0000 0.23190  0.51210  0.83290  Biso   1.000  C
  C2333    1.0000 0.22380  0.48710  0.85310  Biso   1.000  C
  C2334    1.0000 0.19280  0.48420  0.86430  Biso   1.000  C
  C2335    1.0000 0.16960  0.50250  0.86130  Biso   1.000  C
  C2336    1.0000 0.18130  0.52550  0.84050  Biso   1.000  C
  C2337    1.0000 0.21390  0.52770  0.83500  Biso   1.000  C
  C2338    1.0000 0.23470  0.50690  0.85030  Biso   1.000  C
  C2339    1.0000 0.22290  0.48390  0.87100  Biso   1.000  C
  C2340    1.0000 0.19030  0.48170  0.87650  Biso   1.000  C
  C2341    1.0000 0.62470  0.92020  0.86990  Biso   1.000  C
  N131     1.0000 0.62420  0.94680  0.86690  Biso   1.000  N
  C2342    1.0000 0.58740  0.97600  0.81220  Biso   1.000  C
  C2343    1.0000 0.56260  0.97040  0.79100  Biso   1.000  C
  C2344    1.0000 0.53520  0.98890  0.79240  Biso   1.000  C
  C2345    1.0000 0.56500  0.98700  0.78260  Biso   1.000  C
  C2346    1.0000 0.55740  0.01850  0.83620  Biso   1.000  C
  C2347    1.0000 0.66990  0.00620  0.85540  Biso   1.000  C
  C2348    1.0000 0.67790  0.03130  0.83520  Biso   1.000  C
  C2349    1.0000 0.70890  0.03420  0.82400  Biso   1.000  C
  C2350    1.0000 0.73190  0.01210  0.83290  Biso   1.000  C
  C2351    1.0000 0.72380  0.98710  0.85310  Biso   1.000  C
  C2352    1.0000 0.69280  0.98420  0.86430  Biso   1.000  C
  C2353    1.0000 0.66960  0.00250  0.86130  Biso   1.000  C
  C2354    1.0000 0.68130  0.02550  0.84050  Biso   1.000  C
  C2355    1.0000 0.71390  0.02770  0.83500  Biso   1.000  C
  C2356    1.0000 0.73470  0.00690  0.85030  Biso   1.000  C
  C2357    1.0000 0.72290  0.98390  0.87100  Biso   1.000  C
  C2358    1.0000 0.69030  0.98170  0.87650  Biso   1.000  C
  C2359    1.0000 0.62470  0.42020  0.36990  Biso   1.000  C
  N132     1.0000 0.62420  0.44680  0.36690  Biso   1.000  N
  C2360    1.0000 0.58740  0.47600  0.31220  Biso   1.000  C
  C2361    1.0000 0.56260  0.47040  0.29100  Biso   1.000  C
  C2362    1.0000 0.53520  0.48890  0.29240  Biso   1.000  C
  C2363    1.0000 0.56500  0.48700  0.28260  Biso   1.000  C
  C2364    1.0000 0.55740  0.51850  0.33620  Biso   1.000  C
  C2365    1.0000 0.66990  0.50620  0.35540  Biso   1.000  C
  C2366    1.0000 0.67790  0.53130  0.33520  Biso   1.000  C
  C2367    1.0000 0.70890  0.53420  0.32400  Biso   1.000  C
  C2368    1.0000 0.73190  0.51210  0.33290  Biso   1.000  C
  C2369    1.0000 0.72380  0.48710  0.35310  Biso   1.000  C
  C2370    1.0000 0.69280  0.48420  0.36430  Biso   1.000  C
  C2371    1.0000 0.66960  0.50250  0.36130  Biso   1.000  C
  C2372    1.0000 0.68130  0.52550  0.34050  Biso   1.000  C
  C2373    1.0000 0.71390  0.52770  0.33500  Biso   1.000  C
  C2374    1.0000 0.73470  0.50690  0.35030  Biso   1.000  C
  C2375    1.0000 0.72290  0.48390  0.37100  Biso   1.000  C
  C2376    1.0000 0.69030  0.48170  0.37650  Biso   1.000  C
  C2377    1.0000 0.12530  0.42020  0.38010  Biso   1.000  C
  N133     1.0000 0.12580  0.44680  0.38310  Biso   1.000  N
  C2378    1.0000 0.16260  0.47600  0.43780  Biso   1.000  C
  C2379    1.0000 0.18740  0.47040  0.45900  Biso   1.000  C
  C2380    1.0000 0.21480  0.48890  0.45760  Biso   1.000  C
  C2381    1.0000 0.18500  0.48700  0.46740  Biso   1.000  C
  C2382    1.0000 0.19260  0.51850  0.41380  Biso   1.000  C
  C2383    1.0000 0.08010  0.50620  0.39460  Biso   1.000  C
  C2384    1.0000 0.07210  0.53130  0.41480  Biso   1.000  C
  C2385    1.0000 0.04110  0.53420  0.42600  Biso   1.000  C
  C2386    1.0000 0.01810  0.51210  0.41710  Biso   1.000  C
  C2387    1.0000 0.02620  0.48710  0.39690  Biso   1.000  C
  C2388    1.0000 0.05720  0.48420  0.38570  Biso   1.000  C
  C2389    1.0000 0.08040  0.50250  0.38870  Biso   1.000  C
  C2390    1.0000 0.06870  0.52550  0.40950  Biso   1.000  C
  C2391    1.0000 0.03610  0.52770  0.41500  Biso   1.000  C
  C2392    1.0000 0.01530  0.50690  0.39970  Biso   1.000  C
  C2393    1.0000 0.02710  0.48390  0.37900  Biso   1.000  C
  C2394    1.0000 0.05970  0.48170  0.37350  Biso   1.000  C
  C2395    1.0000 0.12530  0.92020  0.88010  Biso   1.000  C
  N134     1.0000 0.12580  0.94680  0.88310  Biso   1.000  N
  C2396    1.0000 0.16260  0.97600  0.93780  Biso   1.000  C
  C2397    1.0000 0.18740  0.97040  0.95900  Biso   1.000  C
  C2398    1.0000 0.21480  0.98890  0.95760  Biso   1.000  C
  C2399    1.0000 0.18500  0.98700  0.96740  Biso   1.000  C
  C2400    1.0000 0.19260  0.01850  0.91380  Biso   1.000  C
  C2401    1.0000 0.08010  0.00620  0.89460  Biso   1.000  C
  C2402    1.0000 0.07210  0.03130  0.91480  Biso   1.000  C
  C2403    1.0000 0.04110  0.03420  0.92600  Biso   1.000  C
  C2404    1.0000 0.01810  0.01210  0.91710  Biso   1.000  C
  C2405    1.0000 0.02620  0.98710  0.89690  Biso   1.000  C
  C2406    1.0000 0.05720  0.98420  0.88570  Biso   1.000  C
  C2407    1.0000 0.08040  0.00250  0.88870  Biso   1.000  C
  C2408    1.0000 0.06870  0.02550  0.90950  Biso   1.000  C
  C2409    1.0000 0.03610  0.02770  0.91500  Biso   1.000  C
  C2410    1.0000 0.01530  0.00690  0.89970  Biso   1.000  C
  C2411    1.0000 0.02710  0.98390  0.87900  Biso   1.000  C
  C2412    1.0000 0.05970  0.98170  0.87350  Biso   1.000  C
  C2413    1.0000 0.62530  0.42020  0.88010  Biso   1.000  C
  N135     1.0000 0.62580  0.44680  0.88310  Biso   1.000  N
  C2414    1.0000 0.66260  0.47600  0.93780  Biso   1.000  C
  C2415    1.0000 0.68740  0.47040  0.95900  Biso   1.000  C
  C2416    1.0000 0.71480  0.48890  0.95760  Biso   1.000  C
  C2417    1.0000 0.68500  0.48700  0.96740  Biso   1.000  C
  C2418    1.0000 0.69260  0.51850  0.91380  Biso   1.000  C
  C2419    1.0000 0.58010  0.50620  0.89460  Biso   1.000  C
  C2420    1.0000 0.57210  0.53130  0.91480  Biso   1.000  C
  C2421    1.0000 0.54110  0.53420  0.92600  Biso   1.000  C
  C2422    1.0000 0.51810  0.51210  0.91710  Biso   1.000  C
  C2423    1.0000 0.52620  0.48710  0.89690  Biso   1.000  C
  C2424    1.0000 0.55720  0.48420  0.88570  Biso   1.000  C
  C2425    1.0000 0.58040  0.50250  0.88870  Biso   1.000  C
  C2426    1.0000 0.56870  0.52550  0.90950  Biso   1.000  C
  C2427    1.0000 0.53610  0.52770  0.91500  Biso   1.000  C
  C2428    1.0000 0.51530  0.50690  0.89970  Biso   1.000  C
  C2429    1.0000 0.52710  0.48390  0.87900  Biso   1.000  C
  C2430    1.0000 0.55970  0.48170  0.87350  Biso   1.000  C
  C2431    1.0000 0.62530  0.92020  0.38010  Biso   1.000  C
  N136     1.0000 0.62580  0.94680  0.38310  Biso   1.000  N
  C2432    1.0000 0.66260  0.97600  0.43780  Biso   1.000  C
  C2433    1.0000 0.68740  0.97040  0.45900  Biso   1.000  C
  C2434    1.0000 0.71480  0.98890  0.45760  Biso   1.000  C
  C2435    1.0000 0.68500  0.98700  0.46740  Biso   1.000  C
  C2436    1.0000 0.69260  0.01850  0.41380  Biso   1.000  C
  C2437    1.0000 0.58010  0.00620  0.39460  Biso   1.000  C
  C2438    1.0000 0.57210  0.03130  0.41480  Biso   1.000  C
  C2439    1.0000 0.54110  0.03420  0.42600  Biso   1.000  C
  C2440    1.0000 0.51810  0.01210  0.41710  Biso   1.000  C
  C2441    1.0000 0.52620  0.98710  0.39690  Biso   1.000  C
  C2442    1.0000 0.55720  0.98420  0.38570  Biso   1.000  C
  C2443    1.0000 0.58040  0.00250  0.38870  Biso   1.000  C
  C2444    1.0000 0.56870  0.02550  0.40950  Biso   1.000  C
  C2445    1.0000 0.53610  0.02770  0.41500  Biso   1.000  C
  C2446    1.0000 0.51530  0.00690  0.39970  Biso   1.000  C
  C2447    1.0000 0.52710  0.98390  0.37900  Biso   1.000  C
  C2448    1.0000 0.55970  0.98170  0.37350  Biso   1.000  C
  C2449    1.0000 0.62470  0.82980  0.88010  Biso   1.000  C
  N137     1.0000 0.62420  0.80320  0.88310  Biso   1.000  N
  C2450    1.0000 0.58740  0.77400  0.93780  Biso   1.000  C
  C2451    1.0000 0.56260  0.77960  0.95900  Biso   1.000  C
  C2452    1.0000 0.53520  0.76110  0.95760  Biso   1.000  C
  C2453    1.0000 0.56500  0.76300  0.96740  Biso   1.000  C
  C2454    1.0000 0.55740  0.73150  0.91380  Biso   1.000  C
  C2455    1.0000 0.66990  0.74380  0.89460  Biso   1.000  C
  C2456    1.0000 0.67790  0.71870  0.91480  Biso   1.000  C
  C2457    1.0000 0.70890  0.71580  0.92600  Biso   1.000  C
  C2458    1.0000 0.73190  0.73790  0.91710  Biso   1.000  C
  C2459    1.0000 0.72380  0.76290  0.89690  Biso   1.000  C
  C2460    1.0000 0.69280  0.76580  0.88570  Biso   1.000  C
  C2461    1.0000 0.66960  0.74750  0.88870  Biso   1.000  C
  C2462    1.0000 0.68130  0.72450  0.90950  Biso   1.000  C
  C2463    1.0000 0.71390  0.72230  0.91500  Biso   1.000  C
  C2464    1.0000 0.73470  0.74310  0.89970  Biso   1.000  C
  C2465    1.0000 0.72290  0.76610  0.87900  Biso   1.000  C
  C2466    1.0000 0.69030  0.76830  0.87350  Biso   1.000  C
  C2467    1.0000 0.62470  0.32980  0.38010  Biso   1.000  C
  N138     1.0000 0.62420  0.30320  0.38310  Biso   1.000  N
  C2468    1.0000 0.58740  0.27400  0.43780  Biso   1.000  C
  C2469    1.0000 0.56260  0.27960  0.45900  Biso   1.000  C
  C2470    1.0000 0.53520  0.26110  0.45760  Biso   1.000  C
  C2471    1.0000 0.56500  0.26300  0.46740  Biso   1.000  C
  C2472    1.0000 0.55740  0.23150  0.41380  Biso   1.000  C
  C2473    1.0000 0.66990  0.24380  0.39460  Biso   1.000  C
  C2474    1.0000 0.67790  0.21870  0.41480  Biso   1.000  C
  C2475    1.0000 0.70890  0.21580  0.42600  Biso   1.000  C
  C2476    1.0000 0.73190  0.23790  0.41710  Biso   1.000  C
  C2477    1.0000 0.72380  0.26290  0.39690  Biso   1.000  C
  C2478    1.0000 0.69280  0.26580  0.38570  Biso   1.000  C
  C2479    1.0000 0.66960  0.24750  0.38870  Biso   1.000  C
  C2480    1.0000 0.68130  0.22450  0.40950  Biso   1.000  C
  C2481    1.0000 0.71390  0.22230  0.41500  Biso   1.000  C
  C2482    1.0000 0.73470  0.24310  0.39970  Biso   1.000  C
  C2483    1.0000 0.72290  0.26610  0.37900  Biso   1.000  C
  C2484    1.0000 0.69030  0.26830  0.37350  Biso   1.000  C
  C2485    1.0000 0.12470  0.82980  0.38010  Biso   1.000  C
  N139     1.0000 0.12420  0.80320  0.38310  Biso   1.000  N
  C2486    1.0000 0.08740  0.77400  0.43780  Biso   1.000  C
  C2487    1.0000 0.06260  0.77960  0.45900  Biso   1.000  C
  C2488    1.0000 0.03520  0.76110  0.45760  Biso   1.000  C
  C2489    1.0000 0.06500  0.76300  0.46740  Biso   1.000  C
  C2490    1.0000 0.05740  0.73150  0.41380  Biso   1.000  C
  C2491    1.0000 0.16990  0.74380  0.39460  Biso   1.000  C
  C2492    1.0000 0.17790  0.71870  0.41480  Biso   1.000  C
  C2493    1.0000 0.20890  0.71580  0.42600  Biso   1.000  C
  C2494    1.0000 0.23190  0.73790  0.41710  Biso   1.000  C
  C2495    1.0000 0.22380  0.76290  0.39690  Biso   1.000  C
  C2496    1.0000 0.19280  0.76580  0.38570  Biso   1.000  C
  C2497    1.0000 0.16960  0.74750  0.38870  Biso   1.000  C
  C2498    1.0000 0.18130  0.72450  0.40950  Biso   1.000  C
  C2499    1.0000 0.21390  0.72230  0.41500  Biso   1.000  C
  C2500    1.0000 0.23470  0.74310  0.39970  Biso   1.000  C
  C2501    1.0000 0.22290  0.76610  0.37900  Biso   1.000  C
  C2502    1.0000 0.19030  0.76830  0.37350  Biso   1.000  C
  C2503    1.0000 0.12470  0.32980  0.88010  Biso   1.000  C
  N140     1.0000 0.12420  0.30320  0.88310  Biso   1.000  N
  C2504    1.0000 0.08740  0.27400  0.93780  Biso   1.000  C
  C2505    1.0000 0.06260  0.27960  0.95900  Biso   1.000  C
  C2506    1.0000 0.03520  0.26110  0.95760  Biso   1.000  C
  C2507    1.0000 0.06500  0.26300  0.96740  Biso   1.000  C
  C2508    1.0000 0.05740  0.23150  0.91380  Biso   1.000  C
  C2509    1.0000 0.16990  0.24380  0.89460  Biso   1.000  C
  C2510    1.0000 0.17790  0.21870  0.91480  Biso   1.000  C
  C2511    1.0000 0.20890  0.21580  0.92600  Biso   1.000  C
  C2512    1.0000 0.23190  0.23790  0.91710  Biso   1.000  C
  C2513    1.0000 0.22380  0.26290  0.89690  Biso   1.000  C
  C2514    1.0000 0.19280  0.26580  0.88570  Biso   1.000  C
  C2515    1.0000 0.16960  0.24750  0.88870  Biso   1.000  C
  C2516    1.0000 0.18130  0.22450  0.90950  Biso   1.000  C
  C2517    1.0000 0.21390  0.22230  0.91500  Biso   1.000  C
  C2518    1.0000 0.23470  0.24310  0.89970  Biso   1.000  C
  C2519    1.0000 0.22290  0.26610  0.87900  Biso   1.000  C
  C2520    1.0000 0.19030  0.26830  0.87350  Biso   1.000  C
  C2521    1.0000 0.62530  0.32980  0.86990  Biso   1.000  C
  N141     1.0000 0.62580  0.30320  0.86690  Biso   1.000  N
  C2522    1.0000 0.66260  0.27400  0.81220  Biso   1.000  C
  C2523    1.0000 0.68740  0.27960  0.79100  Biso   1.000  C
  C2524    1.0000 0.71480  0.26110  0.79240  Biso   1.000  C
  C2525    1.0000 0.68500  0.26300  0.78260  Biso   1.000  C
  C2526    1.0000 0.69260  0.23150  0.83620  Biso   1.000  C
  C2527    1.0000 0.58010  0.24380  0.85540  Biso   1.000  C
  C2528    1.0000 0.57210  0.21870  0.83520  Biso   1.000  C
  C2529    1.0000 0.54110  0.21580  0.82400  Biso   1.000  C
  C2530    1.0000 0.51810  0.23790  0.83290  Biso   1.000  C
  C2531    1.0000 0.52620  0.26290  0.85310  Biso   1.000  C
  C2532    1.0000 0.55720  0.26580  0.86430  Biso   1.000  C
  C2533    1.0000 0.58040  0.24750  0.86130  Biso   1.000  C
  C2534    1.0000 0.56870  0.22450  0.84050  Biso   1.000  C
  C2535    1.0000 0.53610  0.22230  0.83500  Biso   1.000  C
  C2536    1.0000 0.51530  0.24310  0.85030  Biso   1.000  C
  C2537    1.0000 0.52710  0.26610  0.87100  Biso   1.000  C
  C2538    1.0000 0.55970  0.26830  0.87650  Biso   1.000  C
  C2539    1.0000 0.62530  0.82980  0.36990  Biso   1.000  C
  N142     1.0000 0.62580  0.80320  0.36690  Biso   1.000  N
  C2540    1.0000 0.66260  0.77400  0.31220  Biso   1.000  C
  C2541    1.0000 0.68740  0.77960  0.29100  Biso   1.000  C
  C2542    1.0000 0.71480  0.76110  0.29240  Biso   1.000  C
  C2543    1.0000 0.68500  0.76300  0.28260  Biso   1.000  C
  C2544    1.0000 0.69260  0.73150  0.33620  Biso   1.000  C
  C2545    1.0000 0.58010  0.74380  0.35540  Biso   1.000  C
  C2546    1.0000 0.57210  0.71870  0.33520  Biso   1.000  C
  C2547    1.0000 0.54110  0.71580  0.32400  Biso   1.000  C
  C2548    1.0000 0.51810  0.73790  0.33290  Biso   1.000  C
  C2549    1.0000 0.52620  0.76290  0.35310  Biso   1.000  C
  C2550    1.0000 0.55720  0.76580  0.36430  Biso   1.000  C
  C2551    1.0000 0.58040  0.74750  0.36130  Biso   1.000  C
  C2552    1.0000 0.56870  0.72450  0.34050  Biso   1.000  C
  C2553    1.0000 0.53610  0.72230  0.33500  Biso   1.000  C
  C2554    1.0000 0.51530  0.74310  0.35030  Biso   1.000  C
  C2555    1.0000 0.52710  0.76610  0.37100  Biso   1.000  C
  C2556    1.0000 0.55970  0.76830  0.37650  Biso   1.000  C
  C2557    1.0000 0.12530  0.32980  0.36990  Biso   1.000  C
  N143     1.0000 0.12580  0.30320  0.36690  Biso   1.000  N
  C2558    1.0000 0.16260  0.27400  0.31220  Biso   1.000  C
  C2559    1.0000 0.18740  0.27960  0.29100  Biso   1.000  C
  C2560    1.0000 0.21480  0.26110  0.29240  Biso   1.000  C
  C2561    1.0000 0.18500  0.26300  0.28260  Biso   1.000  C
  C2562    1.0000 0.19260  0.23150  0.33620  Biso   1.000  C
  C2563    1.0000 0.08010  0.24380  0.35540  Biso   1.000  C
  C2564    1.0000 0.07210  0.21870  0.33520  Biso   1.000  C
  C2565    1.0000 0.04110  0.21580  0.32400  Biso   1.000  C
  C2566    1.0000 0.01810  0.23790  0.33290  Biso   1.000  C
  C2567    1.0000 0.02620  0.26290  0.35310  Biso   1.000  C
  C2568    1.0000 0.05720  0.26580  0.36430  Biso   1.000  C
  C2569    1.0000 0.08040  0.24750  0.36130  Biso   1.000  C
  C2570    1.0000 0.06870  0.22450  0.34050  Biso   1.000  C
  C2571    1.0000 0.03610  0.22230  0.33500  Biso   1.000  C
  C2572    1.0000 0.01530  0.24310  0.35030  Biso   1.000  C
  C2573    1.0000 0.02710  0.26610  0.37100  Biso   1.000  C
  C2574    1.0000 0.05970  0.26830  0.37650  Biso   1.000  C
  C2575    1.0000 0.12530  0.82980  0.86990  Biso   1.000  C
  N144     1.0000 0.12580  0.80320  0.86690  Biso   1.000  N
  C2576    1.0000 0.16260  0.77400  0.81220  Biso   1.000  C
  C2577    1.0000 0.18740  0.77960  0.79100  Biso   1.000  C
  C2578    1.0000 0.21480  0.76110  0.79240  Biso   1.000  C
  C2579    1.0000 0.18500  0.76300  0.78260  Biso   1.000  C
  C2580    1.0000 0.19260  0.73150  0.83620  Biso   1.000  C
  C2581    1.0000 0.08010  0.74380  0.85540  Biso   1.000  C
  C2582    1.0000 0.07210  0.71870  0.83520  Biso   1.000  C
  C2583    1.0000 0.04110  0.71580  0.82400  Biso   1.000  C
  C2584    1.0000 0.01810  0.73790  0.83290  Biso   1.000  C
  C2585    1.0000 0.02620  0.76290  0.85310  Biso   1.000  C
  C2586    1.0000 0.05720  0.76580  0.86430  Biso   1.000  C
  C2587    1.0000 0.08040  0.74750  0.86130  Biso   1.000  C
  C2588    1.0000 0.06870  0.72450  0.84050  Biso   1.000  C
  C2589    1.0000 0.03610  0.72230  0.83500  Biso   1.000  C
  C2590    1.0000 0.01530  0.74310  0.85030  Biso   1.000  C
  C2591    1.0000 0.02710  0.76610  0.87100  Biso   1.000  C
  C2592    1.0000 0.05970  0.76830  0.87650  Biso   1.000  C
  C2593    1.0000 0.37470  0.11990  0.07980  Biso   1.000  C
  N145     1.0000 0.37420  0.11690  0.05320  Biso   1.000  N
  C2594    1.0000 0.33740  0.06220  0.02400  Biso   1.000  C
  C2595    1.0000 0.31260  0.04100  0.02960  Biso   1.000  C
  C2596    1.0000 0.28520  0.04240  0.01110  Biso   1.000  C
  C2597    1.0000 0.31500  0.03260  0.01300  Biso   1.000  C
  C2598    1.0000 0.30740  0.08620  0.98150  Biso   1.000  C
  C2599    1.0000 0.41990  0.10540  0.99380  Biso   1.000  C
  C2600    1.0000 0.42790  0.08520  0.96870  Biso   1.000  C
  C2601    1.0000 0.45890  0.07400  0.96580  Biso   1.000  C
  C2602    1.0000 0.48190  0.08290  0.98790  Biso   1.000  C
  C2603    1.0000 0.47380  0.10310  0.01290  Biso   1.000  C
  C2604    1.0000 0.44280  0.11430  0.01580  Biso   1.000  C
  C2605    1.0000 0.41960  0.11130  0.99750  Biso   1.000  C
  C2606    1.0000 0.43130  0.09050  0.97450  Biso   1.000  C
  C2607    1.0000 0.46390  0.08500  0.97230  Biso   1.000  C
  C2608    1.0000 0.48470  0.10030  0.99310  Biso   1.000  C
  C2609    1.0000 0.47290  0.12100  0.01610  Biso   1.000  C
  C2610    1.0000 0.44030  0.12650  0.01830  Biso   1.000  C
  C2611    1.0000 0.37470  0.61990  0.57980  Biso   1.000  C
  N146     1.0000 0.37420  0.61690  0.55320  Biso   1.000  N
  C2612    1.0000 0.33740  0.56220  0.52400  Biso   1.000  C
  C2613    1.0000 0.31260  0.54100  0.52960  Biso   1.000  C
  C2614    1.0000 0.28520  0.54240  0.51110  Biso   1.000  C
  C2615    1.0000 0.31500  0.53260  0.51300  Biso   1.000  C
  C2616    1.0000 0.30740  0.58620  0.48150  Biso   1.000  C
  C2617    1.0000 0.41990  0.60540  0.49380  Biso   1.000  C
  C2618    1.0000 0.42790  0.58520  0.46870  Biso   1.000  C
  C2619    1.0000 0.45890  0.57400  0.46580  Biso   1.000  C
  C2620    1.0000 0.48190  0.58290  0.48790  Biso   1.000  C
  C2621    1.0000 0.47380  0.60310  0.51290  Biso   1.000  C
  C2622    1.0000 0.44280  0.61430  0.51580  Biso   1.000  C
  C2623    1.0000 0.41960  0.61130  0.49750  Biso   1.000  C
  C2624    1.0000 0.43130  0.59050  0.47450  Biso   1.000  C
  C2625    1.0000 0.46390  0.58500  0.47230  Biso   1.000  C
  C2626    1.0000 0.48470  0.60030  0.49310  Biso   1.000  C
  C2627    1.0000 0.47290  0.62100  0.51610  Biso   1.000  C
  C2628    1.0000 0.44030  0.62650  0.51830  Biso   1.000  C
  C2629    1.0000 0.87470  0.11990  0.57980  Biso   1.000  C
  N147     1.0000 0.87420  0.11690  0.55320  Biso   1.000  N
  C2630    1.0000 0.83740  0.06220  0.52400  Biso   1.000  C
  C2631    1.0000 0.81260  0.04100  0.52960  Biso   1.000  C
  C2632    1.0000 0.78520  0.04240  0.51110  Biso   1.000  C
  C2633    1.0000 0.81500  0.03260  0.51300  Biso   1.000  C
  C2634    1.0000 0.80740  0.08620  0.48150  Biso   1.000  C
  C2635    1.0000 0.91990  0.10540  0.49380  Biso   1.000  C
  C2636    1.0000 0.92790  0.08520  0.46870  Biso   1.000  C
  C2637    1.0000 0.95890  0.07400  0.46580  Biso   1.000  C
  C2638    1.0000 0.98190  0.08290  0.48790  Biso   1.000  C
  C2639    1.0000 0.97380  0.10310  0.51290  Biso   1.000  C
  C2640    1.0000 0.94280  0.11430  0.51580  Biso   1.000  C
  C2641    1.0000 0.91960  0.11130  0.49750  Biso   1.000  C
  C2642    1.0000 0.93130  0.09050  0.47450  Biso   1.000  C
  C2643    1.0000 0.96390  0.08500  0.47230  Biso   1.000  C
  C2644    1.0000 0.98470  0.10030  0.49310  Biso   1.000  C
  C2645    1.0000 0.97290  0.12100  0.51610  Biso   1.000  C
  C2646    1.0000 0.94030  0.12650  0.51830  Biso   1.000  C
  C2647    1.0000 0.87470  0.61990  0.07980  Biso   1.000  C
  N148     1.0000 0.87420  0.61690  0.05320  Biso   1.000  N
  C2648    1.0000 0.83740  0.56220  0.02400  Biso   1.000  C
  C2649    1.0000 0.81260  0.54100  0.02960  Biso   1.000  C
  C2650    1.0000 0.78520  0.54240  0.01110  Biso   1.000  C
  C2651    1.0000 0.81500  0.53260  0.01300  Biso   1.000  C
  C2652    1.0000 0.80740  0.58620  0.98150  Biso   1.000  C
  C2653    1.0000 0.91990  0.60540  0.99380  Biso   1.000  C
  C2654    1.0000 0.92790  0.58520  0.96870  Biso   1.000  C
  C2655    1.0000 0.95890  0.57400  0.96580  Biso   1.000  C
  C2656    1.0000 0.98190  0.58290  0.98790  Biso   1.000  C
  C2657    1.0000 0.97380  0.60310  0.01290  Biso   1.000  C
  C2658    1.0000 0.94280  0.61430  0.01580  Biso   1.000  C
  C2659    1.0000 0.91960  0.61130  0.99750  Biso   1.000  C
  C2660    1.0000 0.93130  0.59050  0.97450  Biso   1.000  C
  C2661    1.0000 0.96390  0.58500  0.97230  Biso   1.000  C
  C2662    1.0000 0.98470  0.60030  0.99310  Biso   1.000  C
  C2663    1.0000 0.97290  0.62100  0.01610  Biso   1.000  C
  C2664    1.0000 0.94030  0.62650  0.01830  Biso   1.000  C
  C2665    1.0000 0.37530  0.13010  0.57980  Biso   1.000  C
  N149     1.0000 0.37580  0.13310  0.55320  Biso   1.000  N
  C2666    1.0000 0.41260  0.18780  0.52400  Biso   1.000  C
  C2667    1.0000 0.43740  0.20900  0.52960  Biso   1.000  C
  C2668    1.0000 0.46480  0.20760  0.51110  Biso   1.000  C
  C2669    1.0000 0.43500  0.21740  0.51300  Biso   1.000  C
  C2670    1.0000 0.44260  0.16380  0.48150  Biso   1.000  C
  C2671    1.0000 0.33010  0.14460  0.49380  Biso   1.000  C
  C2672    1.0000 0.32210  0.16480  0.46870  Biso   1.000  C
  C2673    1.0000 0.29110  0.17600  0.46580  Biso   1.000  C
  C2674    1.0000 0.26810  0.16710  0.48790  Biso   1.000  C
  C2675    1.0000 0.27620  0.14690  0.51290  Biso   1.000  C
  C2676    1.0000 0.30720  0.13570  0.51580  Biso   1.000  C
  C2677    1.0000 0.33040  0.13870  0.49750  Biso   1.000  C
  C2678    1.0000 0.31870  0.15950  0.47450  Biso   1.000  C
  C2679    1.0000 0.28610  0.16500  0.47230  Biso   1.000  C
  C2680    1.0000 0.26530  0.14970  0.49310  Biso   1.000  C
  C2681    1.0000 0.27710  0.12900  0.51610  Biso   1.000  C
  C2682    1.0000 0.30970  0.12350  0.51830  Biso   1.000  C
  C2683    1.0000 0.37530  0.63010  0.07980  Biso   1.000  C
  N150     1.0000 0.37580  0.63310  0.05320  Biso   1.000  N
  C2684    1.0000 0.41260  0.68780  0.02400  Biso   1.000  C
  C2685    1.0000 0.43740  0.70900  0.02960  Biso   1.000  C
  C2686    1.0000 0.46480  0.70760  0.01110  Biso   1.000  C
  C2687    1.0000 0.43500  0.71740  0.01300  Biso   1.000  C
  C2688    1.0000 0.44260  0.66380  0.98150  Biso   1.000  C
  C2689    1.0000 0.33010  0.64460  0.99380  Biso   1.000  C
  C2690    1.0000 0.32210  0.66480  0.96870  Biso   1.000  C
  C2691    1.0000 0.29110  0.67600  0.96580  Biso   1.000  C
  C2692    1.0000 0.26810  0.66710  0.98790  Biso   1.000  C
  C2693    1.0000 0.27620  0.64690  0.01290  Biso   1.000  C
  C2694    1.0000 0.30720  0.63570  0.01580  Biso   1.000  C
  C2695    1.0000 0.33040  0.63870  0.99750  Biso   1.000  C
  C2696    1.0000 0.31870  0.65950  0.97450  Biso   1.000  C
  C2697    1.0000 0.28610  0.66500  0.97230  Biso   1.000  C
  C2698    1.0000 0.26530  0.64970  0.99310  Biso   1.000  C
  C2699    1.0000 0.27710  0.62900  0.01610  Biso   1.000  C
  C2700    1.0000 0.30970  0.62350  0.01830  Biso   1.000  C
  C2701    1.0000 0.87530  0.13010  0.07980  Biso   1.000  C
  N151     1.0000 0.87580  0.13310  0.05320  Biso   1.000  N
  C2702    1.0000 0.91260  0.18780  0.02400  Biso   1.000  C
  C2703    1.0000 0.93740  0.20900  0.02960  Biso   1.000  C
  C2704    1.0000 0.96480  0.20760  0.01110  Biso   1.000  C
  C2705    1.0000 0.93500  0.21740  0.01300  Biso   1.000  C
  C2706    1.0000 0.94260  0.16380  0.98150  Biso   1.000  C
  C2707    1.0000 0.83010  0.14460  0.99380  Biso   1.000  C
  C2708    1.0000 0.82210  0.16480  0.96870  Biso   1.000  C
  C2709    1.0000 0.79110  0.17600  0.96580  Biso   1.000  C
  C2710    1.0000 0.76810  0.16710  0.98790  Biso   1.000  C
  C2711    1.0000 0.77620  0.14690  0.01290  Biso   1.000  C
  C2712    1.0000 0.80720  0.13570  0.01580  Biso   1.000  C
  C2713    1.0000 0.83040  0.13870  0.99750  Biso   1.000  C
  C2714    1.0000 0.81870  0.15950  0.97450  Biso   1.000  C
  C2715    1.0000 0.78610  0.16500  0.97230  Biso   1.000  C
  C2716    1.0000 0.76530  0.14970  0.99310  Biso   1.000  C
  C2717    1.0000 0.77710  0.12900  0.01610  Biso   1.000  C
  C2718    1.0000 0.80970  0.12350  0.01830  Biso   1.000  C
  C2719    1.0000 0.87530  0.63010  0.57980  Biso   1.000  C
  N152     1.0000 0.87580  0.63310  0.55320  Biso   1.000  N
  C2720    1.0000 0.91260  0.68780  0.52400  Biso   1.000  C
  C2721    1.0000 0.93740  0.70900  0.52960  Biso   1.000  C
  C2722    1.0000 0.96480  0.70760  0.51110  Biso   1.000  C
  C2723    1.0000 0.93500  0.71740  0.51300  Biso   1.000  C
  C2724    1.0000 0.94260  0.66380  0.48150  Biso   1.000  C
  C2725    1.0000 0.83010  0.64460  0.49380  Biso   1.000  C
  C2726    1.0000 0.82210  0.66480  0.46870  Biso   1.000  C
  C2727    1.0000 0.79110  0.67600  0.46580  Biso   1.000  C
  C2728    1.0000 0.76810  0.66710  0.48790  Biso   1.000  C
  C2729    1.0000 0.77620  0.64690  0.51290  Biso   1.000  C
  C2730    1.0000 0.80720  0.63570  0.51580  Biso   1.000  C
  C2731    1.0000 0.83040  0.63870  0.49750  Biso   1.000  C
  C2732    1.0000 0.81870  0.65950  0.47450  Biso   1.000  C
  C2733    1.0000 0.78610  0.66500  0.47230  Biso   1.000  C
  C2734    1.0000 0.76530  0.64970  0.49310  Biso   1.000  C
  C2735    1.0000 0.77710  0.62900  0.51610  Biso   1.000  C
  C2736    1.0000 0.80970  0.62350  0.51830  Biso   1.000  C
  C2737    1.0000 0.87470  0.63010  0.17020  Biso   1.000  C
  N153     1.0000 0.87420  0.63310  0.19680  Biso   1.000  N
  C2738    1.0000 0.83740  0.68780  0.22600  Biso   1.000  C
  C2739    1.0000 0.81260  0.70900  0.22040  Biso   1.000  C
  C2740    1.0000 0.78520  0.70760  0.23890  Biso   1.000  C
  C2741    1.0000 0.81500  0.71740  0.23700  Biso   1.000  C
  C2742    1.0000 0.80740  0.66380  0.26850  Biso   1.000  C
  C2743    1.0000 0.91990  0.64460  0.25620  Biso   1.000  C
  C2744    1.0000 0.92790  0.66480  0.28130  Biso   1.000  C
  C2745    1.0000 0.95890  0.67600  0.28420  Biso   1.000  C
  C2746    1.0000 0.98190  0.66710  0.26210  Biso   1.000  C
  C2747    1.0000 0.97380  0.64690  0.23710  Biso   1.000  C
  C2748    1.0000 0.94280  0.63570  0.23420  Biso   1.000  C
  C2749    1.0000 0.91960  0.63870  0.25250  Biso   1.000  C
  C2750    1.0000 0.93130  0.65950  0.27550  Biso   1.000  C
  C2751    1.0000 0.96390  0.66500  0.27770  Biso   1.000  C
  C2752    1.0000 0.98470  0.64970  0.25690  Biso   1.000  C
  C2753    1.0000 0.97290  0.62900  0.23390  Biso   1.000  C
  C2754    1.0000 0.94030  0.62350  0.23170  Biso   1.000  C
  C2755    1.0000 0.87470  0.13010  0.67020  Biso   1.000  C
  N154     1.0000 0.87420  0.13310  0.69680  Biso   1.000  N
  C2756    1.0000 0.83740  0.18780  0.72600  Biso   1.000  C
  C2757    1.0000 0.81260  0.20900  0.72040  Biso   1.000  C
  C2758    1.0000 0.78520  0.20760  0.73890  Biso   1.000  C
  C2759    1.0000 0.81500  0.21740  0.73700  Biso   1.000  C
  C2760    1.0000 0.80740  0.16380  0.76850  Biso   1.000  C
  C2761    1.0000 0.91990  0.14460  0.75620  Biso   1.000  C
  C2762    1.0000 0.92790  0.16480  0.78130  Biso   1.000  C
  C2763    1.0000 0.95890  0.17600  0.78420  Biso   1.000  C
  C2764    1.0000 0.98190  0.16710  0.76210  Biso   1.000  C
  C2765    1.0000 0.97380  0.14690  0.73710  Biso   1.000  C
  C2766    1.0000 0.94280  0.13570  0.73420  Biso   1.000  C
  C2767    1.0000 0.91960  0.13870  0.75250  Biso   1.000  C
  C2768    1.0000 0.93130  0.15950  0.77550  Biso   1.000  C
  C2769    1.0000 0.96390  0.16500  0.77770  Biso   1.000  C
  C2770    1.0000 0.98470  0.14970  0.75690  Biso   1.000  C
  C2771    1.0000 0.97290  0.12900  0.73390  Biso   1.000  C
  C2772    1.0000 0.94030  0.12350  0.73170  Biso   1.000  C
  C2773    1.0000 0.37470  0.63010  0.67020  Biso   1.000  C
  N155     1.0000 0.37420  0.63310  0.69680  Biso   1.000  N
  C2774    1.0000 0.33740  0.68780  0.72600  Biso   1.000  C
  C2775    1.0000 0.31260  0.70900  0.72040  Biso   1.000  C
  C2776    1.0000 0.28520  0.70760  0.73890  Biso   1.000  C
  C2777    1.0000 0.31500  0.71740  0.73700  Biso   1.000  C
  C2778    1.0000 0.30740  0.66380  0.76850  Biso   1.000  C
  C2779    1.0000 0.41990  0.64460  0.75620  Biso   1.000  C
  C2780    1.0000 0.42790  0.66480  0.78130  Biso   1.000  C
  C2781    1.0000 0.45890  0.67600  0.78420  Biso   1.000  C
  C2782    1.0000 0.48190  0.66710  0.76210  Biso   1.000  C
  C2783    1.0000 0.47380  0.64690  0.73710  Biso   1.000  C
  C2784    1.0000 0.44280  0.63570  0.73420  Biso   1.000  C
  C2785    1.0000 0.41960  0.63870  0.75250  Biso   1.000  C
  C2786    1.0000 0.43130  0.65950  0.77550  Biso   1.000  C
  C2787    1.0000 0.46390  0.66500  0.77770  Biso   1.000  C
  C2788    1.0000 0.48470  0.64970  0.75690  Biso   1.000  C
  C2789    1.0000 0.47290  0.62900  0.73390  Biso   1.000  C
  C2790    1.0000 0.44030  0.62350  0.73170  Biso   1.000  C
  C2791    1.0000 0.37470  0.13010  0.17020  Biso   1.000  C
  N156     1.0000 0.37420  0.13310  0.19680  Biso   1.000  N
  C2792    1.0000 0.33740  0.18780  0.22600  Biso   1.000  C
  C2793    1.0000 0.31260  0.20900  0.22040  Biso   1.000  C
  C2794    1.0000 0.28520  0.20760  0.23890  Biso   1.000  C
  C2795    1.0000 0.31500  0.21740  0.23700  Biso   1.000  C
  C2796    1.0000 0.30740  0.16380  0.26850  Biso   1.000  C
  C2797    1.0000 0.41990  0.14460  0.25620  Biso   1.000  C
  C2798    1.0000 0.42790  0.16480  0.28130  Biso   1.000  C
  C2799    1.0000 0.45890  0.17600  0.28420  Biso   1.000  C
  C2800    1.0000 0.48190  0.16710  0.26210  Biso   1.000  C
  C2801    1.0000 0.47380  0.14690  0.23710  Biso   1.000  C
  C2802    1.0000 0.44280  0.13570  0.23420  Biso   1.000  C
  C2803    1.0000 0.41960  0.13870  0.25250  Biso   1.000  C
  C2804    1.0000 0.43130  0.15950  0.27550  Biso   1.000  C
  C2805    1.0000 0.46390  0.16500  0.27770  Biso   1.000  C
  C2806    1.0000 0.48470  0.14970  0.25690  Biso   1.000  C
  C2807    1.0000 0.47290  0.12900  0.23390  Biso   1.000  C
  C2808    1.0000 0.44030  0.12350  0.23170  Biso   1.000  C
  C2809    1.0000 0.87530  0.61990  0.67020  Biso   1.000  C
  N157     1.0000 0.87580  0.61690  0.69680  Biso   1.000  N
  C2810    1.0000 0.91260  0.56220  0.72600  Biso   1.000  C
  C2811    1.0000 0.93740  0.54100  0.72040  Biso   1.000  C
  C2812    1.0000 0.96480  0.54240  0.73890  Biso   1.000  C
  C2813    1.0000 0.93500  0.53260  0.73700  Biso   1.000  C
  C2814    1.0000 0.94260  0.58620  0.76850  Biso   1.000  C
  C2815    1.0000 0.83010  0.60540  0.75620  Biso   1.000  C
  C2816    1.0000 0.82210  0.58520  0.78130  Biso   1.000  C
  C2817    1.0000 0.79110  0.57400  0.78420  Biso   1.000  C
  C2818    1.0000 0.76810  0.58290  0.76210  Biso   1.000  C
  C2819    1.0000 0.77620  0.60310  0.73710  Biso   1.000  C
  C2820    1.0000 0.80720  0.61430  0.73420  Biso   1.000  C
  C2821    1.0000 0.83040  0.61130  0.75250  Biso   1.000  C
  C2822    1.0000 0.81870  0.59050  0.77550  Biso   1.000  C
  C2823    1.0000 0.78610  0.58500  0.77770  Biso   1.000  C
  C2824    1.0000 0.76530  0.60030  0.75690  Biso   1.000  C
  C2825    1.0000 0.77710  0.62100  0.73390  Biso   1.000  C
  C2826    1.0000 0.80970  0.62650  0.73170  Biso   1.000  C
  C2827    1.0000 0.87530  0.11990  0.17020  Biso   1.000  C
  N158     1.0000 0.87580  0.11690  0.19680  Biso   1.000  N
  C2828    1.0000 0.91260  0.06220  0.22600  Biso   1.000  C
  C2829    1.0000 0.93740  0.04100  0.22040  Biso   1.000  C
  C2830    1.0000 0.96480  0.04240  0.23890  Biso   1.000  C
  C2831    1.0000 0.93500  0.03260  0.23700  Biso   1.000  C
  C2832    1.0000 0.94260  0.08620  0.26850  Biso   1.000  C
  C2833    1.0000 0.83010  0.10540  0.25620  Biso   1.000  C
  C2834    1.0000 0.82210  0.08520  0.28130  Biso   1.000  C
  C2835    1.0000 0.79110  0.07400  0.28420  Biso   1.000  C
  C2836    1.0000 0.76810  0.08290  0.26210  Biso   1.000  C
  C2837    1.0000 0.77620  0.10310  0.23710  Biso   1.000  C
  C2838    1.0000 0.80720  0.11430  0.23420  Biso   1.000  C
  C2839    1.0000 0.83040  0.11130  0.25250  Biso   1.000  C
  C2840    1.0000 0.81870  0.09050  0.27550  Biso   1.000  C
  C2841    1.0000 0.78610  0.08500  0.27770  Biso   1.000  C
  C2842    1.0000 0.76530  0.10030  0.25690  Biso   1.000  C
  C2843    1.0000 0.77710  0.12100  0.23390  Biso   1.000  C
  C2844    1.0000 0.80970  0.12650  0.23170  Biso   1.000  C
  C2845    1.0000 0.37530  0.61990  0.17020  Biso   1.000  C
  N159     1.0000 0.37580  0.61690  0.19680  Biso   1.000  N
  C2846    1.0000 0.41260  0.56220  0.22600  Biso   1.000  C
  C2847    1.0000 0.43740  0.54100  0.22040  Biso   1.000  C
  C2848    1.0000 0.46480  0.54240  0.23890  Biso   1.000  C
  C2849    1.0000 0.43500  0.53260  0.23700  Biso   1.000  C
  C2850    1.0000 0.44260  0.58620  0.26850  Biso   1.000  C
  C2851    1.0000 0.33010  0.60540  0.25620  Biso   1.000  C
  C2852    1.0000 0.32210  0.58520  0.28130  Biso   1.000  C
  C2853    1.0000 0.29110  0.57400  0.28420  Biso   1.000  C
  C2854    1.0000 0.26810  0.58290  0.26210  Biso   1.000  C
  C2855    1.0000 0.27620  0.60310  0.23710  Biso   1.000  C
  C2856    1.0000 0.30720  0.61430  0.23420  Biso   1.000  C
  C2857    1.0000 0.33040  0.61130  0.25250  Biso   1.000  C
  C2858    1.0000 0.31870  0.59050  0.27550  Biso   1.000  C
  C2859    1.0000 0.28610  0.58500  0.27770  Biso   1.000  C
  C2860    1.0000 0.26530  0.60030  0.25690  Biso   1.000  C
  C2861    1.0000 0.27710  0.62100  0.23390  Biso   1.000  C
  C2862    1.0000 0.30970  0.62650  0.23170  Biso   1.000  C
  C2863    1.0000 0.37530  0.11990  0.67020  Biso   1.000  C
  N160     1.0000 0.37580  0.11690  0.69680  Biso   1.000  N
  C2864    1.0000 0.41260  0.06220  0.72600  Biso   1.000  C
  C2865    1.0000 0.43740  0.04100  0.72040  Biso   1.000  C
  C2866    1.0000 0.46480  0.04240  0.73890  Biso   1.000  C
  C2867    1.0000 0.43500  0.03260  0.73700  Biso   1.000  C
  C2868    1.0000 0.44260  0.08620  0.76850  Biso   1.000  C
  C2869    1.0000 0.33010  0.10540  0.75620  Biso   1.000  C
  C2870    1.0000 0.32210  0.08520  0.78130  Biso   1.000  C
  C2871    1.0000 0.29110  0.07400  0.78420  Biso   1.000  C
  C2872    1.0000 0.26810  0.08290  0.76210  Biso   1.000  C
  C2873    1.0000 0.27620  0.10310  0.73710  Biso   1.000  C
  C2874    1.0000 0.30720  0.11430  0.73420  Biso   1.000  C
  C2875    1.0000 0.33040  0.11130  0.75250  Biso   1.000  C
  C2876    1.0000 0.31870  0.09050  0.77550  Biso   1.000  C
  C2877    1.0000 0.28610  0.08500  0.77770  Biso   1.000  C
  C2878    1.0000 0.26530  0.10030  0.75690  Biso   1.000  C
  C2879    1.0000 0.27710  0.12100  0.73390  Biso   1.000  C
  C2880    1.0000 0.30970  0.12650  0.73170  Biso   1.000  C
  C2881    1.0000 0.61990  0.67020  0.87530  Biso   1.000  C
  N161     1.0000 0.61690  0.69680  0.87580  Biso   1.000  N
  C2882    1.0000 0.56220  0.72600  0.91260  Biso   1.000  C
  C2883    1.0000 0.54100  0.72040  0.93740  Biso   1.000  C
  C2884    1.0000 0.54240  0.73890  0.96480  Biso   1.000  C
  C2885    1.0000 0.53260  0.73700  0.93500  Biso   1.000  C
  C2886    1.0000 0.58620  0.76850  0.94260  Biso   1.000  C
  C2887    1.0000 0.60540  0.75620  0.83010  Biso   1.000  C
  C2888    1.0000 0.58520  0.78130  0.82210  Biso   1.000  C
  C2889    1.0000 0.57400  0.78420  0.79110  Biso   1.000  C
  C2890    1.0000 0.58290  0.76210  0.76810  Biso   1.000  C
  C2891    1.0000 0.60310  0.73710  0.77620  Biso   1.000  C
  C2892    1.0000 0.61430  0.73420  0.80720  Biso   1.000  C
  C2893    1.0000 0.61130  0.75250  0.83040  Biso   1.000  C
  C2894    1.0000 0.59050  0.77550  0.81870  Biso   1.000  C
  C2895    1.0000 0.58500  0.77770  0.78610  Biso   1.000  C
  C2896    1.0000 0.60030  0.75690  0.76530  Biso   1.000  C
  C2897    1.0000 0.62100  0.73390  0.77710  Biso   1.000  C
  C2898    1.0000 0.62650  0.73170  0.80970  Biso   1.000  C
  C2899    1.0000 0.61990  0.17020  0.37530  Biso   1.000  C
  N162     1.0000 0.61690  0.19680  0.37580  Biso   1.000  N
  C2900    1.0000 0.56220  0.22600  0.41260  Biso   1.000  C
  C2901    1.0000 0.54100  0.22040  0.43740  Biso   1.000  C
  C2902    1.0000 0.54240  0.23890  0.46480  Biso   1.000  C
  C2903    1.0000 0.53260  0.23700  0.43500  Biso   1.000  C
  C2904    1.0000 0.58620  0.26850  0.44260  Biso   1.000  C
  C2905    1.0000 0.60540  0.25620  0.33010  Biso   1.000  C
  C2906    1.0000 0.58520  0.28130  0.32210  Biso   1.000  C
  C2907    1.0000 0.57400  0.28420  0.29110  Biso   1.000  C
  C2908    1.0000 0.58290  0.26210  0.26810  Biso   1.000  C
  C2909    1.0000 0.60310  0.23710  0.27620  Biso   1.000  C
  C2910    1.0000 0.61430  0.23420  0.30720  Biso   1.000  C
  C2911    1.0000 0.61130  0.25250  0.33040  Biso   1.000  C
  C2912    1.0000 0.59050  0.27550  0.31870  Biso   1.000  C
  C2913    1.0000 0.58500  0.27770  0.28610  Biso   1.000  C
  C2914    1.0000 0.60030  0.25690  0.26530  Biso   1.000  C
  C2915    1.0000 0.62100  0.23390  0.27710  Biso   1.000  C
  C2916    1.0000 0.62650  0.23170  0.30970  Biso   1.000  C
  C2917    1.0000 0.11990  0.67020  0.37530  Biso   1.000  C
  N163     1.0000 0.11690  0.69680  0.37580  Biso   1.000  N
  C2918    1.0000 0.06220  0.72600  0.41260  Biso   1.000  C
  C2919    1.0000 0.04100  0.72040  0.43740  Biso   1.000  C
  C2920    1.0000 0.04240  0.73890  0.46480  Biso   1.000  C
  C2921    1.0000 0.03260  0.73700  0.43500  Biso   1.000  C
  C2922    1.0000 0.08620  0.76850  0.44260  Biso   1.000  C
  C2923    1.0000 0.10540  0.75620  0.33010  Biso   1.000  C
  C2924    1.0000 0.08520  0.78130  0.32210  Biso   1.000  C
  C2925    1.0000 0.07400  0.78420  0.29110  Biso   1.000  C
  C2926    1.0000 0.08290  0.76210  0.26810  Biso   1.000  C
  C2927    1.0000 0.10310  0.73710  0.27620  Biso   1.000  C
  C2928    1.0000 0.11430  0.73420  0.30720  Biso   1.000  C
  C2929    1.0000 0.11130  0.75250  0.33040  Biso   1.000  C
  C2930    1.0000 0.09050  0.77550  0.31870  Biso   1.000  C
  C2931    1.0000 0.08500  0.77770  0.28610  Biso   1.000  C
  C2932    1.0000 0.10030  0.75690  0.26530  Biso   1.000  C
  C2933    1.0000 0.12100  0.73390  0.27710  Biso   1.000  C
  C2934    1.0000 0.12650  0.73170  0.30970  Biso   1.000  C
  C2935    1.0000 0.11990  0.17020  0.87530  Biso   1.000  C
  N164     1.0000 0.11690  0.19680  0.87580  Biso   1.000  N
  C2936    1.0000 0.06220  0.22600  0.91260  Biso   1.000  C
  C2937    1.0000 0.04100  0.22040  0.93740  Biso   1.000  C
  C2938    1.0000 0.04240  0.23890  0.96480  Biso   1.000  C
  C2939    1.0000 0.03260  0.23700  0.93500  Biso   1.000  C
  C2940    1.0000 0.08620  0.26850  0.94260  Biso   1.000  C
  C2941    1.0000 0.10540  0.25620  0.83010  Biso   1.000  C
  C2942    1.0000 0.08520  0.28130  0.82210  Biso   1.000  C
  C2943    1.0000 0.07400  0.28420  0.79110  Biso   1.000  C
  C2944    1.0000 0.08290  0.26210  0.76810  Biso   1.000  C
  C2945    1.0000 0.10310  0.23710  0.77620  Biso   1.000  C
  C2946    1.0000 0.11430  0.23420  0.80720  Biso   1.000  C
  C2947    1.0000 0.11130  0.25250  0.83040  Biso   1.000  C
  C2948    1.0000 0.09050  0.27550  0.81870  Biso   1.000  C
  C2949    1.0000 0.08500  0.27770  0.78610  Biso   1.000  C
  C2950    1.0000 0.10030  0.25690  0.76530  Biso   1.000  C
  C2951    1.0000 0.12100  0.23390  0.77710  Biso   1.000  C
  C2952    1.0000 0.12650  0.23170  0.80970  Biso   1.000  C
  C2953    1.0000 0.63010  0.17020  0.87470  Biso   1.000  C
  N165     1.0000 0.63310  0.19680  0.87420  Biso   1.000  N
  C2954    1.0000 0.68780  0.22600  0.83740  Biso   1.000  C
  C2955    1.0000 0.70900  0.22040  0.81260  Biso   1.000  C
  C2956    1.0000 0.70760  0.23890  0.78520  Biso   1.000  C
  C2957    1.0000 0.71740  0.23700  0.81500  Biso   1.000  C
  C2958    1.0000 0.66380  0.26850  0.80740  Biso   1.000  C
  C2959    1.0000 0.64460  0.25620  0.91990  Biso   1.000  C
  C2960    1.0000 0.66480  0.28130  0.92790  Biso   1.000  C
  C2961    1.0000 0.67600  0.28420  0.95890  Biso   1.000  C
  C2962    1.0000 0.66710  0.26210  0.98190  Biso   1.000  C
  C2963    1.0000 0.64690  0.23710  0.97380  Biso   1.000  C
  C2964    1.0000 0.63570  0.23420  0.94280  Biso   1.000  C
  C2965    1.0000 0.63870  0.25250  0.91960  Biso   1.000  C
  C2966    1.0000 0.65950  0.27550  0.93130  Biso   1.000  C
  C2967    1.0000 0.66500  0.27770  0.96390  Biso   1.000  C
  C2968    1.0000 0.64970  0.25690  0.98470  Biso   1.000  C
  C2969    1.0000 0.62900  0.23390  0.97290  Biso   1.000  C
  C2970    1.0000 0.62350  0.23170  0.94030  Biso   1.000  C
  C2971    1.0000 0.63010  0.67020  0.37470  Biso   1.000  C
  N166     1.0000 0.63310  0.69680  0.37420  Biso   1.000  N
  C2972    1.0000 0.68780  0.72600  0.33740  Biso   1.000  C
  C2973    1.0000 0.70900  0.72040  0.31260  Biso   1.000  C
  C2974    1.0000 0.70760  0.73890  0.28520  Biso   1.000  C
  C2975    1.0000 0.71740  0.73700  0.31500  Biso   1.000  C
  C2976    1.0000 0.66380  0.76850  0.30740  Biso   1.000  C
  C2977    1.0000 0.64460  0.75620  0.41990  Biso   1.000  C
  C2978    1.0000 0.66480  0.78130  0.42790  Biso   1.000  C
  C2979    1.0000 0.67600  0.78420  0.45890  Biso   1.000  C
  C2980    1.0000 0.66710  0.76210  0.48190  Biso   1.000  C
  C2981    1.0000 0.64690  0.73710  0.47380  Biso   1.000  C
  C2982    1.0000 0.63570  0.73420  0.44280  Biso   1.000  C
  C2983    1.0000 0.63870  0.75250  0.41960  Biso   1.000  C
  C2984    1.0000 0.65950  0.77550  0.43130  Biso   1.000  C
  C2985    1.0000 0.66500  0.77770  0.46390  Biso   1.000  C
  C2986    1.0000 0.64970  0.75690  0.48470  Biso   1.000  C
  C2987    1.0000 0.62900  0.73390  0.47290  Biso   1.000  C
  C2988    1.0000 0.62350  0.73170  0.44030  Biso   1.000  C
  C2989    1.0000 0.13010  0.17020  0.37470  Biso   1.000  C
  N167     1.0000 0.13310  0.19680  0.37420  Biso   1.000  N
  C2990    1.0000 0.18780  0.22600  0.33740  Biso   1.000  C
  C2991    1.0000 0.20900  0.22040  0.31260  Biso   1.000  C
  C2992    1.0000 0.20760  0.23890  0.28520  Biso   1.000  C
  C2993    1.0000 0.21740  0.23700  0.31500  Biso   1.000  C
  C2994    1.0000 0.16380  0.26850  0.30740  Biso   1.000  C
  C2995    1.0000 0.14460  0.25620  0.41990  Biso   1.000  C
  C2996    1.0000 0.16480  0.28130  0.42790  Biso   1.000  C
  C2997    1.0000 0.17600  0.28420  0.45890  Biso   1.000  C
  C2998    1.0000 0.16710  0.26210  0.48190  Biso   1.000  C
  C2999    1.0000 0.14690  0.23710  0.47380  Biso   1.000  C
  C3000    1.0000 0.13570  0.23420  0.44280  Biso   1.000  C
  C3001    1.0000 0.13870  0.25250  0.41960  Biso   1.000  C
  C3002    1.0000 0.15950  0.27550  0.43130  Biso   1.000  C
  C3003    1.0000 0.16500  0.27770  0.46390  Biso   1.000  C
  C3004    1.0000 0.14970  0.25690  0.48470  Biso   1.000  C
  C3005    1.0000 0.12900  0.23390  0.47290  Biso   1.000  C
  C3006    1.0000 0.12350  0.23170  0.44030  Biso   1.000  C
  C3007    1.0000 0.13010  0.67020  0.87470  Biso   1.000  C
  N168     1.0000 0.13310  0.69680  0.87420  Biso   1.000  N
  C3008    1.0000 0.18780  0.72600  0.83740  Biso   1.000  C
  C3009    1.0000 0.20900  0.72040  0.81260  Biso   1.000  C
  C3010    1.0000 0.20760  0.73890  0.78520  Biso   1.000  C
  C3011    1.0000 0.21740  0.73700  0.81500  Biso   1.000  C
  C3012    1.0000 0.16380  0.76850  0.80740  Biso   1.000  C
  C3013    1.0000 0.14460  0.75620  0.91990  Biso   1.000  C
  C3014    1.0000 0.16480  0.78130  0.92790  Biso   1.000  C
  C3015    1.0000 0.17600  0.78420  0.95890  Biso   1.000  C
  C3016    1.0000 0.16710  0.76210  0.98190  Biso   1.000  C
  C3017    1.0000 0.14690  0.73710  0.97380  Biso   1.000  C
  C3018    1.0000 0.13570  0.73420  0.94280  Biso   1.000  C
  C3019    1.0000 0.13870  0.75250  0.91960  Biso   1.000  C
  C3020    1.0000 0.15950  0.77550  0.93130  Biso   1.000  C
  C3021    1.0000 0.16500  0.77770  0.96390  Biso   1.000  C
  C3022    1.0000 0.14970  0.75690  0.98470  Biso   1.000  C
  C3023    1.0000 0.12900  0.73390  0.97290  Biso   1.000  C
  C3024    1.0000 0.12350  0.73170  0.94030  Biso   1.000  C
  C3025    1.0000 0.13010  0.57980  0.37530  Biso   1.000  C
  N169     1.0000 0.13310  0.55320  0.37580  Biso   1.000  N
  C3026    1.0000 0.18780  0.52400  0.41260  Biso   1.000  C
  C3027    1.0000 0.20900  0.52960  0.43740  Biso   1.000  C
  C3028    1.0000 0.20760  0.51110  0.46480  Biso   1.000  C
  C3029    1.0000 0.21740  0.51300  0.43500  Biso   1.000  C
  C3030    1.0000 0.16380  0.48150  0.44260  Biso   1.000  C
  C3031    1.0000 0.14460  0.49380  0.33010  Biso   1.000  C
  C3032    1.0000 0.16480  0.46870  0.32210  Biso   1.000  C
  C3033    1.0000 0.17600  0.46580  0.29110  Biso   1.000  C
  C3034    1.0000 0.16710  0.48790  0.26810  Biso   1.000  C
  C3035    1.0000 0.14690  0.51290  0.27620  Biso   1.000  C
  C3036    1.0000 0.13570  0.51580  0.30720  Biso   1.000  C
  C3037    1.0000 0.13870  0.49750  0.33040  Biso   1.000  C
  C3038    1.0000 0.15950  0.47450  0.31870  Biso   1.000  C
  C3039    1.0000 0.16500  0.47230  0.28610  Biso   1.000  C
  C3040    1.0000 0.14970  0.49310  0.26530  Biso   1.000  C
  C3041    1.0000 0.12900  0.51610  0.27710  Biso   1.000  C
  C3042    1.0000 0.12350  0.51830  0.30970  Biso   1.000  C
  C3043    1.0000 0.13010  0.07980  0.87530  Biso   1.000  C
  N170     1.0000 0.13310  0.05320  0.87580  Biso   1.000  N
  C3044    1.0000 0.18780  0.02400  0.91260  Biso   1.000  C
  C3045    1.0000 0.20900  0.02960  0.93740  Biso   1.000  C
  C3046    1.0000 0.20760  0.01110  0.96480  Biso   1.000  C
  C3047    1.0000 0.21740  0.01300  0.93500  Biso   1.000  C
  C3048    1.0000 0.16380  0.98150  0.94260  Biso   1.000  C
  C3049    1.0000 0.14460  0.99380  0.83010  Biso   1.000  C
  C3050    1.0000 0.16480  0.96870  0.82210  Biso   1.000  C
  C3051    1.0000 0.17600  0.96580  0.79110  Biso   1.000  C
  C3052    1.0000 0.16710  0.98790  0.76810  Biso   1.000  C
  C3053    1.0000 0.14690  0.01290  0.77620  Biso   1.000  C
  C3054    1.0000 0.13570  0.01580  0.80720  Biso   1.000  C
  C3055    1.0000 0.13870  0.99750  0.83040  Biso   1.000  C
  C3056    1.0000 0.15950  0.97450  0.81870  Biso   1.000  C
  C3057    1.0000 0.16500  0.97230  0.78610  Biso   1.000  C
  C3058    1.0000 0.14970  0.99310  0.76530  Biso   1.000  C
  C3059    1.0000 0.12900  0.01610  0.77710  Biso   1.000  C
  C3060    1.0000 0.12350  0.01830  0.80970  Biso   1.000  C
  C3061    1.0000 0.63010  0.57980  0.87530  Biso   1.000  C
  N171     1.0000 0.63310  0.55320  0.87580  Biso   1.000  N
  C3062    1.0000 0.68780  0.52400  0.91260  Biso   1.000  C
  C3063    1.0000 0.70900  0.52960  0.93740  Biso   1.000  C
  C3064    1.0000 0.70760  0.51110  0.96480  Biso   1.000  C
  C3065    1.0000 0.71740  0.51300  0.93500  Biso   1.000  C
  C3066    1.0000 0.66380  0.48150  0.94260  Biso   1.000  C
  C3067    1.0000 0.64460  0.49380  0.83010  Biso   1.000  C
  C3068    1.0000 0.66480  0.46870  0.82210  Biso   1.000  C
  C3069    1.0000 0.67600  0.46580  0.79110  Biso   1.000  C
  C3070    1.0000 0.66710  0.48790  0.76810  Biso   1.000  C
  C3071    1.0000 0.64690  0.51290  0.77620  Biso   1.000  C
  C3072    1.0000 0.63570  0.51580  0.80720  Biso   1.000  C
  C3073    1.0000 0.63870  0.49750  0.83040  Biso   1.000  C
  C3074    1.0000 0.65950  0.47450  0.81870  Biso   1.000  C
  C3075    1.0000 0.66500  0.47230  0.78610  Biso   1.000  C
  C3076    1.0000 0.64970  0.49310  0.76530  Biso   1.000  C
  C3077    1.0000 0.62900  0.51610  0.77710  Biso   1.000  C
  C3078    1.0000 0.62350  0.51830  0.80970  Biso   1.000  C
  C3079    1.0000 0.63010  0.07980  0.37530  Biso   1.000  C
  N172     1.0000 0.63310  0.05320  0.37580  Biso   1.000  N
  C3080    1.0000 0.68780  0.02400  0.41260  Biso   1.000  C
  C3081    1.0000 0.70900  0.02960  0.43740  Biso   1.000  C
  C3082    1.0000 0.70760  0.01110  0.46480  Biso   1.000  C
  C3083    1.0000 0.71740  0.01300  0.43500  Biso   1.000  C
  C3084    1.0000 0.66380  0.98150  0.44260  Biso   1.000  C
  C3085    1.0000 0.64460  0.99380  0.33010  Biso   1.000  C
  C3086    1.0000 0.66480  0.96870  0.32210  Biso   1.000  C
  C3087    1.0000 0.67600  0.96580  0.29110  Biso   1.000  C
  C3088    1.0000 0.66710  0.98790  0.26810  Biso   1.000  C
  C3089    1.0000 0.64690  0.01290  0.27620  Biso   1.000  C
  C3090    1.0000 0.63570  0.01580  0.30720  Biso   1.000  C
  C3091    1.0000 0.63870  0.99750  0.33040  Biso   1.000  C
  C3092    1.0000 0.65950  0.97450  0.31870  Biso   1.000  C
  C3093    1.0000 0.66500  0.97230  0.28610  Biso   1.000  C
  C3094    1.0000 0.64970  0.99310  0.26530  Biso   1.000  C
  C3095    1.0000 0.62900  0.01610  0.27710  Biso   1.000  C
  C3096    1.0000 0.62350  0.01830  0.30970  Biso   1.000  C
  C3097    1.0000 0.11990  0.07980  0.37470  Biso   1.000  C
  N173     1.0000 0.11690  0.05320  0.37420  Biso   1.000  N
  C3098    1.0000 0.06220  0.02400  0.33740  Biso   1.000  C
  C3099    1.0000 0.04100  0.02960  0.31260  Biso   1.000  C
  C3100    1.0000 0.04240  0.01110  0.28520  Biso   1.000  C
  C3101    1.0000 0.03260  0.01300  0.31500  Biso   1.000  C
  C3102    1.0000 0.08620  0.98150  0.30740  Biso   1.000  C
  C3103    1.0000 0.10540  0.99380  0.41990  Biso   1.000  C
  C3104    1.0000 0.08520  0.96870  0.42790  Biso   1.000  C
  C3105    1.0000 0.07400  0.96580  0.45890  Biso   1.000  C
  C3106    1.0000 0.08290  0.98790  0.48190  Biso   1.000  C
  C3107    1.0000 0.10310  0.01290  0.47380  Biso   1.000  C
  C3108    1.0000 0.11430  0.01580  0.44280  Biso   1.000  C
  C3109    1.0000 0.11130  0.99750  0.41960  Biso   1.000  C
  C3110    1.0000 0.09050  0.97450  0.43130  Biso   1.000  C
  C3111    1.0000 0.08500  0.97230  0.46390  Biso   1.000  C
  C3112    1.0000 0.10030  0.99310  0.48470  Biso   1.000  C
  C3113    1.0000 0.12100  0.01610  0.47290  Biso   1.000  C
  C3114    1.0000 0.12650  0.01830  0.44030  Biso   1.000  C
  C3115    1.0000 0.11990  0.57980  0.87470  Biso   1.000  C
  N174     1.0000 0.11690  0.55320  0.87420  Biso   1.000  N
  C3116    1.0000 0.06220  0.52400  0.83740  Biso   1.000  C
  C3117    1.0000 0.04100  0.52960  0.81260  Biso   1.000  C
  C3118    1.0000 0.04240  0.51110  0.78520  Biso   1.000  C
  C3119    1.0000 0.03260  0.51300  0.81500  Biso   1.000  C
  C3120    1.0000 0.08620  0.48150  0.80740  Biso   1.000  C
  C3121    1.0000 0.10540  0.49380  0.91990  Biso   1.000  C
  C3122    1.0000 0.08520  0.46870  0.92790  Biso   1.000  C
  C3123    1.0000 0.07400  0.46580  0.95890  Biso   1.000  C
  C3124    1.0000 0.08290  0.48790  0.98190  Biso   1.000  C
  C3125    1.0000 0.10310  0.51290  0.97380  Biso   1.000  C
  C3126    1.0000 0.11430  0.51580  0.94280  Biso   1.000  C
  C3127    1.0000 0.11130  0.49750  0.91960  Biso   1.000  C
  C3128    1.0000 0.09050  0.47450  0.93130  Biso   1.000  C
  C3129    1.0000 0.08500  0.47230  0.96390  Biso   1.000  C
  C3130    1.0000 0.10030  0.49310  0.98470  Biso   1.000  C
  C3131    1.0000 0.12100  0.51610  0.97290  Biso   1.000  C
  C3132    1.0000 0.12650  0.51830  0.94030  Biso   1.000  C
  C3133    1.0000 0.61990  0.07980  0.87470  Biso   1.000  C
  N175     1.0000 0.61690  0.05320  0.87420  Biso   1.000  N
  C3134    1.0000 0.56220  0.02400  0.83740  Biso   1.000  C
  C3135    1.0000 0.54100  0.02960  0.81260  Biso   1.000  C
  C3136    1.0000 0.54240  0.01110  0.78520  Biso   1.000  C
  C3137    1.0000 0.53260  0.01300  0.81500  Biso   1.000  C
  C3138    1.0000 0.58620  0.98150  0.80740  Biso   1.000  C
  C3139    1.0000 0.60540  0.99380  0.91990  Biso   1.000  C
  C3140    1.0000 0.58520  0.96870  0.92790  Biso   1.000  C
  C3141    1.0000 0.57400  0.96580  0.95890  Biso   1.000  C
  C3142    1.0000 0.58290  0.98790  0.98190  Biso   1.000  C
  C3143    1.0000 0.60310  0.01290  0.97380  Biso   1.000  C
  C3144    1.0000 0.61430  0.01580  0.94280  Biso   1.000  C
  C3145    1.0000 0.61130  0.99750  0.91960  Biso   1.000  C
  C3146    1.0000 0.59050  0.97450  0.93130  Biso   1.000  C
  C3147    1.0000 0.58500  0.97230  0.96390  Biso   1.000  C
  C3148    1.0000 0.60030  0.99310  0.98470  Biso   1.000  C
  C3149    1.0000 0.62100  0.01610  0.97290  Biso   1.000  C
  C3150    1.0000 0.62650  0.01830  0.94030  Biso   1.000  C
  C3151    1.0000 0.61990  0.57980  0.37470  Biso   1.000  C
  N176     1.0000 0.61690  0.55320  0.37420  Biso   1.000  N
  C3152    1.0000 0.56220  0.52400  0.33740  Biso   1.000  C
  C3153    1.0000 0.54100  0.52960  0.31260  Biso   1.000  C
  C3154    1.0000 0.54240  0.51110  0.28520  Biso   1.000  C
  C3155    1.0000 0.53260  0.51300  0.31500  Biso   1.000  C
  C3156    1.0000 0.58620  0.48150  0.30740  Biso   1.000  C
  C3157    1.0000 0.60540  0.49380  0.41990  Biso   1.000  C
  C3158    1.0000 0.58520  0.46870  0.42790  Biso   1.000  C
  C3159    1.0000 0.57400  0.46580  0.45890  Biso   1.000  C
  C3160    1.0000 0.58290  0.48790  0.48190  Biso   1.000  C
  C3161    1.0000 0.60310  0.51290  0.47380  Biso   1.000  C
  C3162    1.0000 0.61430  0.51580  0.44280  Biso   1.000  C
  C3163    1.0000 0.61130  0.49750  0.41960  Biso   1.000  C
  C3164    1.0000 0.59050  0.47450  0.43130  Biso   1.000  C
  C3165    1.0000 0.58500  0.47230  0.46390  Biso   1.000  C
  C3166    1.0000 0.60030  0.49310  0.48470  Biso   1.000  C
  C3167    1.0000 0.62100  0.51610  0.47290  Biso   1.000  C
  C3168    1.0000 0.62650  0.51830  0.44030  Biso   1.000  C
  C3169    1.0000 0.17020  0.87470  0.63010  Biso   1.000  C
  N177     1.0000 0.19680  0.87420  0.63310  Biso   1.000  N
  C3170    1.0000 0.22600  0.83740  0.68780  Biso   1.000  C
  C3171    1.0000 0.22040  0.81260  0.70900  Biso   1.000  C
  C3172    1.0000 0.23890  0.78520  0.70760  Biso   1.000  C
  C3173    1.0000 0.23700  0.81500  0.71740  Biso   1.000  C
  C3174    1.0000 0.26850  0.80740  0.66380  Biso   1.000  C
  C3175    1.0000 0.25620  0.91990  0.64460  Biso   1.000  C
  C3176    1.0000 0.28130  0.92790  0.66480  Biso   1.000  C
  C3177    1.0000 0.28420  0.95890  0.67600  Biso   1.000  C
  C3178    1.0000 0.26210  0.98190  0.66710  Biso   1.000  C
  C3179    1.0000 0.23710  0.97380  0.64690  Biso   1.000  C
  C3180    1.0000 0.23420  0.94280  0.63570  Biso   1.000  C
  C3181    1.0000 0.25250  0.91960  0.63870  Biso   1.000  C
  C3182    1.0000 0.27550  0.93130  0.65950  Biso   1.000  C
  C3183    1.0000 0.27770  0.96390  0.66500  Biso   1.000  C
  C3184    1.0000 0.25690  0.98470  0.64970  Biso   1.000  C
  C3185    1.0000 0.23390  0.97290  0.62900  Biso   1.000  C
  C3186    1.0000 0.23170  0.94030  0.62350  Biso   1.000  C
  C3187    1.0000 0.17020  0.37470  0.13010  Biso   1.000  C
  N178     1.0000 0.19680  0.37420  0.13310  Biso   1.000  N
  C3188    1.0000 0.22600  0.33740  0.18780  Biso   1.000  C
  C3189    1.0000 0.22040  0.31260  0.20900  Biso   1.000  C
  C3190    1.0000 0.23890  0.28520  0.20760  Biso   1.000  C
  C3191    1.0000 0.23700  0.31500  0.21740  Biso   1.000  C
  C3192    1.0000 0.26850  0.30740  0.16380  Biso   1.000  C
  C3193    1.0000 0.25620  0.41990  0.14460  Biso   1.000  C
  C3194    1.0000 0.28130  0.42790  0.16480  Biso   1.000  C
  C3195    1.0000 0.28420  0.45890  0.17600  Biso   1.000  C
  C3196    1.0000 0.26210  0.48190  0.16710  Biso   1.000  C
  C3197    1.0000 0.23710  0.47380  0.14690  Biso   1.000  C
  C3198    1.0000 0.23420  0.44280  0.13570  Biso   1.000  C
  C3199    1.0000 0.25250  0.41960  0.13870  Biso   1.000  C
  C3200    1.0000 0.27550  0.43130  0.15950  Biso   1.000  C
  C3201    1.0000 0.27770  0.46390  0.16500  Biso   1.000  C
  C3202    1.0000 0.25690  0.48470  0.14970  Biso   1.000  C
  C3203    1.0000 0.23390  0.47290  0.12900  Biso   1.000  C
  C3204    1.0000 0.23170  0.44030  0.12350  Biso   1.000  C
  C3205    1.0000 0.67020  0.87470  0.13010  Biso   1.000  C
  N179     1.0000 0.69680  0.87420  0.13310  Biso   1.000  N
  C3206    1.0000 0.72600  0.83740  0.18780  Biso   1.000  C
  C3207    1.0000 0.72040  0.81260  0.20900  Biso   1.000  C
  C3208    1.0000 0.73890  0.78520  0.20760  Biso   1.000  C
  C3209    1.0000 0.73700  0.81500  0.21740  Biso   1.000  C
  C3210    1.0000 0.76850  0.80740  0.16380  Biso   1.000  C
  C3211    1.0000 0.75620  0.91990  0.14460  Biso   1.000  C
  C3212    1.0000 0.78130  0.92790  0.16480  Biso   1.000  C
  C3213    1.0000 0.78420  0.95890  0.17600  Biso   1.000  C
  C3214    1.0000 0.76210  0.98190  0.16710  Biso   1.000  C
  C3215    1.0000 0.73710  0.97380  0.14690  Biso   1.000  C
  C3216    1.0000 0.73420  0.94280  0.13570  Biso   1.000  C
  C3217    1.0000 0.75250  0.91960  0.13870  Biso   1.000  C
  C3218    1.0000 0.77550  0.93130  0.15950  Biso   1.000  C
  C3219    1.0000 0.77770  0.96390  0.16500  Biso   1.000  C
  C3220    1.0000 0.75690  0.98470  0.14970  Biso   1.000  C
  C3221    1.0000 0.73390  0.97290  0.12900  Biso   1.000  C
  C3222    1.0000 0.73170  0.94030  0.12350  Biso   1.000  C
  C3223    1.0000 0.67020  0.37470  0.63010  Biso   1.000  C
  N180     1.0000 0.69680  0.37420  0.63310  Biso   1.000  N
  C3224    1.0000 0.72600  0.33740  0.68780  Biso   1.000  C
  C3225    1.0000 0.72040  0.31260  0.70900  Biso   1.000  C
  C3226    1.0000 0.73890  0.28520  0.70760  Biso   1.000  C
  C3227    1.0000 0.73700  0.31500  0.71740  Biso   1.000  C
  C3228    1.0000 0.76850  0.30740  0.66380  Biso   1.000  C
  C3229    1.0000 0.75620  0.41990  0.64460  Biso   1.000  C
  C3230    1.0000 0.78130  0.42790  0.66480  Biso   1.000  C
  C3231    1.0000 0.78420  0.45890  0.67600  Biso   1.000  C
  C3232    1.0000 0.76210  0.48190  0.66710  Biso   1.000  C
  C3233    1.0000 0.73710  0.47380  0.64690  Biso   1.000  C
  C3234    1.0000 0.73420  0.44280  0.63570  Biso   1.000  C
  C3235    1.0000 0.75250  0.41960  0.63870  Biso   1.000  C
  C3236    1.0000 0.77550  0.43130  0.65950  Biso   1.000  C
  C3237    1.0000 0.77770  0.46390  0.66500  Biso   1.000  C
  C3238    1.0000 0.75690  0.48470  0.64970  Biso   1.000  C
  C3239    1.0000 0.73390  0.47290  0.62900  Biso   1.000  C
  C3240    1.0000 0.73170  0.44030  0.62350  Biso   1.000  C
  C3241    1.0000 0.67020  0.87530  0.61990  Biso   1.000  C
  N181     1.0000 0.69680  0.87580  0.61690  Biso   1.000  N
  C3242    1.0000 0.72600  0.91260  0.56220  Biso   1.000  C
  C3243    1.0000 0.72040  0.93740  0.54100  Biso   1.000  C
  C3244    1.0000 0.73890  0.96480  0.54240  Biso   1.000  C
  C3245    1.0000 0.73700  0.93500  0.53260  Biso   1.000  C
  C3246    1.0000 0.76850  0.94260  0.58620  Biso   1.000  C
  C3247    1.0000 0.75620  0.83010  0.60540  Biso   1.000  C
  C3248    1.0000 0.78130  0.82210  0.58520  Biso   1.000  C
  C3249    1.0000 0.78420  0.79110  0.57400  Biso   1.000  C
  C3250    1.0000 0.76210  0.76810  0.58290  Biso   1.000  C
  C3251    1.0000 0.73710  0.77620  0.60310  Biso   1.000  C
  C3252    1.0000 0.73420  0.80720  0.61430  Biso   1.000  C
  C3253    1.0000 0.75250  0.83040  0.61130  Biso   1.000  C
  C3254    1.0000 0.77550  0.81870  0.59050  Biso   1.000  C
  C3255    1.0000 0.77770  0.78610  0.58500  Biso   1.000  C
  C3256    1.0000 0.75690  0.76530  0.60030  Biso   1.000  C
  C3257    1.0000 0.73390  0.77710  0.62100  Biso   1.000  C
  C3258    1.0000 0.73170  0.80970  0.62650  Biso   1.000  C
  C3259    1.0000 0.67020  0.37530  0.11990  Biso   1.000  C
  N182     1.0000 0.69680  0.37580  0.11690  Biso   1.000  N
  C3260    1.0000 0.72600  0.41260  0.06220  Biso   1.000  C
  C3261    1.0000 0.72040  0.43740  0.04100  Biso   1.000  C
  C3262    1.0000 0.73890  0.46480  0.04240  Biso   1.000  C
  C3263    1.0000 0.73700  0.43500  0.03260  Biso   1.000  C
  C3264    1.0000 0.76850  0.44260  0.08620  Biso   1.000  C
  C3265    1.0000 0.75620  0.33010  0.10540  Biso   1.000  C
  C3266    1.0000 0.78130  0.32210  0.08520  Biso   1.000  C
  C3267    1.0000 0.78420  0.29110  0.07400  Biso   1.000  C
  C3268    1.0000 0.76210  0.26810  0.08290  Biso   1.000  C
  C3269    1.0000 0.73710  0.27620  0.10310  Biso   1.000  C
  C3270    1.0000 0.73420  0.30720  0.11430  Biso   1.000  C
  C3271    1.0000 0.75250  0.33040  0.11130  Biso   1.000  C
  C3272    1.0000 0.77550  0.31870  0.09050  Biso   1.000  C
  C3273    1.0000 0.77770  0.28610  0.08500  Biso   1.000  C
  C3274    1.0000 0.75690  0.26530  0.10030  Biso   1.000  C
  C3275    1.0000 0.73390  0.27710  0.12100  Biso   1.000  C
  C3276    1.0000 0.73170  0.30970  0.12650  Biso   1.000  C
  C3277    1.0000 0.17020  0.87530  0.11990  Biso   1.000  C
  N183     1.0000 0.19680  0.87580  0.11690  Biso   1.000  N
  C3278    1.0000 0.22600  0.91260  0.06220  Biso   1.000  C
  C3279    1.0000 0.22040  0.93740  0.04100  Biso   1.000  C
  C3280    1.0000 0.23890  0.96480  0.04240  Biso   1.000  C
  C3281    1.0000 0.23700  0.93500  0.03260  Biso   1.000  C
  C3282    1.0000 0.26850  0.94260  0.08620  Biso   1.000  C
  C3283    1.0000 0.25620  0.83010  0.10540  Biso   1.000  C
  C3284    1.0000 0.28130  0.82210  0.08520  Biso   1.000  C
  C3285    1.0000 0.28420  0.79110  0.07400  Biso   1.000  C
  C3286    1.0000 0.26210  0.76810  0.08290  Biso   1.000  C
  C3287    1.0000 0.23710  0.77620  0.10310  Biso   1.000  C
  C3288    1.0000 0.23420  0.80720  0.11430  Biso   1.000  C
  C3289    1.0000 0.25250  0.83040  0.11130  Biso   1.000  C
  C3290    1.0000 0.27550  0.81870  0.09050  Biso   1.000  C
  C3291    1.0000 0.27770  0.78610  0.08500  Biso   1.000  C
  C3292    1.0000 0.25690  0.76530  0.10030  Biso   1.000  C
  C3293    1.0000 0.23390  0.77710  0.12100  Biso   1.000  C
  C3294    1.0000 0.23170  0.80970  0.12650  Biso   1.000  C
  C3295    1.0000 0.17020  0.37530  0.61990  Biso   1.000  C
  N184     1.0000 0.19680  0.37580  0.61690  Biso   1.000  N
  C3296    1.0000 0.22600  0.41260  0.56220  Biso   1.000  C
  C3297    1.0000 0.22040  0.43740  0.54100  Biso   1.000  C
  C3298    1.0000 0.23890  0.46480  0.54240  Biso   1.000  C
  C3299    1.0000 0.23700  0.43500  0.53260  Biso   1.000  C
  C3300    1.0000 0.26850  0.44260  0.58620  Biso   1.000  C
  C3301    1.0000 0.25620  0.33010  0.60540  Biso   1.000  C
  C3302    1.0000 0.28130  0.32210  0.58520  Biso   1.000  C
  C3303    1.0000 0.28420  0.29110  0.57400  Biso   1.000  C
  C3304    1.0000 0.26210  0.26810  0.58290  Biso   1.000  C
  C3305    1.0000 0.23710  0.27620  0.60310  Biso   1.000  C
  C3306    1.0000 0.23420  0.30720  0.61430  Biso   1.000  C
  C3307    1.0000 0.25250  0.33040  0.61130  Biso   1.000  C
  C3308    1.0000 0.27550  0.31870  0.59050  Biso   1.000  C
  C3309    1.0000 0.27770  0.28610  0.58500  Biso   1.000  C
  C3310    1.0000 0.25690  0.26530  0.60030  Biso   1.000  C
  C3311    1.0000 0.23390  0.27710  0.62100  Biso   1.000  C
  C3312    1.0000 0.23170  0.30970  0.62650  Biso   1.000  C
  C3313    1.0000 0.07980  0.37470  0.11990  Biso   1.000  C
  N185     1.0000 0.05320  0.37420  0.11690  Biso   1.000  N
  C3314    1.0000 0.02400  0.33740  0.06220  Biso   1.000  C
  C3315    1.0000 0.02960  0.31260  0.04100  Biso   1.000  C
  C3316    1.0000 0.01110  0.28520  0.04240  Biso   1.000  C
  C3317    1.0000 0.01300  0.31500  0.03260  Biso   1.000  C
  C3318    1.0000 0.98150  0.30740  0.08620  Biso   1.000  C
  C3319    1.0000 0.99380  0.41990  0.10540  Biso   1.000  C
  C3320    1.0000 0.96870  0.42790  0.08520  Biso   1.000  C
  C3321    1.0000 0.96580  0.45890  0.07400  Biso   1.000  C
  C3322    1.0000 0.98790  0.48190  0.08290  Biso   1.000  C
  C3323    1.0000 0.01290  0.47380  0.10310  Biso   1.000  C
  C3324    1.0000 0.01580  0.44280  0.11430  Biso   1.000  C
  C3325    1.0000 0.99750  0.41960  0.11130  Biso   1.000  C
  C3326    1.0000 0.97450  0.43130  0.09050  Biso   1.000  C
  C3327    1.0000 0.97230  0.46390  0.08500  Biso   1.000  C
  C3328    1.0000 0.99310  0.48470  0.10030  Biso   1.000  C
  C3329    1.0000 0.01610  0.47290  0.12100  Biso   1.000  C
  C3330    1.0000 0.01830  0.44030  0.12650  Biso   1.000  C
  C3331    1.0000 0.07980  0.87470  0.61990  Biso   1.000  C
  N186     1.0000 0.05320  0.87420  0.61690  Biso   1.000  N
  C3332    1.0000 0.02400  0.83740  0.56220  Biso   1.000  C
  C3333    1.0000 0.02960  0.81260  0.54100  Biso   1.000  C
  C3334    1.0000 0.01110  0.78520  0.54240  Biso   1.000  C
  C3335    1.0000 0.01300  0.81500  0.53260  Biso   1.000  C
  C3336    1.0000 0.98150  0.80740  0.58620  Biso   1.000  C
  C3337    1.0000 0.99380  0.91990  0.60540  Biso   1.000  C
  C3338    1.0000 0.96870  0.92790  0.58520  Biso   1.000  C
  C3339    1.0000 0.96580  0.95890  0.57400  Biso   1.000  C
  C3340    1.0000 0.98790  0.98190  0.58290  Biso   1.000  C
  C3341    1.0000 0.01290  0.97380  0.60310  Biso   1.000  C
  C3342    1.0000 0.01580  0.94280  0.61430  Biso   1.000  C
  C3343    1.0000 0.99750  0.91960  0.61130  Biso   1.000  C
  C3344    1.0000 0.97450  0.93130  0.59050  Biso   1.000  C
  C3345    1.0000 0.97230  0.96390  0.58500  Biso   1.000  C
  C3346    1.0000 0.99310  0.98470  0.60030  Biso   1.000  C
  C3347    1.0000 0.01610  0.97290  0.62100  Biso   1.000  C
  C3348    1.0000 0.01830  0.94030  0.62650  Biso   1.000  C
  C3349    1.0000 0.57980  0.37470  0.61990  Biso   1.000  C
  N187     1.0000 0.55320  0.37420  0.61690  Biso   1.000  N
  C3350    1.0000 0.52400  0.33740  0.56220  Biso   1.000  C
  C3351    1.0000 0.52960  0.31260  0.54100  Biso   1.000  C
  C3352    1.0000 0.51110  0.28520  0.54240  Biso   1.000  C
  C3353    1.0000 0.51300  0.31500  0.53260  Biso   1.000  C
  C3354    1.0000 0.48150  0.30740  0.58620  Biso   1.000  C
  C3355    1.0000 0.49380  0.41990  0.60540  Biso   1.000  C
  C3356    1.0000 0.46870  0.42790  0.58520  Biso   1.000  C
  C3357    1.0000 0.46580  0.45890  0.57400  Biso   1.000  C
  C3358    1.0000 0.48790  0.48190  0.58290  Biso   1.000  C
  C3359    1.0000 0.51290  0.47380  0.60310  Biso   1.000  C
  C3360    1.0000 0.51580  0.44280  0.61430  Biso   1.000  C
  C3361    1.0000 0.49750  0.41960  0.61130  Biso   1.000  C
  C3362    1.0000 0.47450  0.43130  0.59050  Biso   1.000  C
  C3363    1.0000 0.47230  0.46390  0.58500  Biso   1.000  C
  C3364    1.0000 0.49310  0.48470  0.60030  Biso   1.000  C
  C3365    1.0000 0.51610  0.47290  0.62100  Biso   1.000  C
  C3366    1.0000 0.51830  0.44030  0.62650  Biso   1.000  C
  C3367    1.0000 0.57980  0.87470  0.11990  Biso   1.000  C
  N188     1.0000 0.55320  0.87420  0.11690  Biso   1.000  N
  C3368    1.0000 0.52400  0.83740  0.06220  Biso   1.000  C
  C3369    1.0000 0.52960  0.81260  0.04100  Biso   1.000  C
  C3370    1.0000 0.51110  0.78520  0.04240  Biso   1.000  C
  C3371    1.0000 0.51300  0.81500  0.03260  Biso   1.000  C
  C3372    1.0000 0.48150  0.80740  0.08620  Biso   1.000  C
  C3373    1.0000 0.49380  0.91990  0.10540  Biso   1.000  C
  C3374    1.0000 0.46870  0.92790  0.08520  Biso   1.000  C
  C3375    1.0000 0.46580  0.95890  0.07400  Biso   1.000  C
  C3376    1.0000 0.48790  0.98190  0.08290  Biso   1.000  C
  C3377    1.0000 0.51290  0.97380  0.10310  Biso   1.000  C
  C3378    1.0000 0.51580  0.94280  0.11430  Biso   1.000  C
  C3379    1.0000 0.49750  0.91960  0.11130  Biso   1.000  C
  C3380    1.0000 0.47450  0.93130  0.09050  Biso   1.000  C
  C3381    1.0000 0.47230  0.96390  0.08500  Biso   1.000  C
  C3382    1.0000 0.49310  0.98470  0.10030  Biso   1.000  C
  C3383    1.0000 0.51610  0.97290  0.12100  Biso   1.000  C
  C3384    1.0000 0.51830  0.94030  0.12650  Biso   1.000  C
  C3385    1.0000 0.57980  0.37530  0.13010  Biso   1.000  C
  N189     1.0000 0.55320  0.37580  0.13310  Biso   1.000  N
  C3386    1.0000 0.52400  0.41260  0.18780  Biso   1.000  C
  C3387    1.0000 0.52960  0.43740  0.20900  Biso   1.000  C
  C3388    1.0000 0.51110  0.46480  0.20760  Biso   1.000  C
  C3389    1.0000 0.51300  0.43500  0.21740  Biso   1.000  C
  C3390    1.0000 0.48150  0.44260  0.16380  Biso   1.000  C
  C3391    1.0000 0.49380  0.33010  0.14460  Biso   1.000  C
  C3392    1.0000 0.46870  0.32210  0.16480  Biso   1.000  C
  C3393    1.0000 0.46580  0.29110  0.17600  Biso   1.000  C
  C3394    1.0000 0.48790  0.26810  0.16710  Biso   1.000  C
  C3395    1.0000 0.51290  0.27620  0.14690  Biso   1.000  C
  C3396    1.0000 0.51580  0.30720  0.13570  Biso   1.000  C
  C3397    1.0000 0.49750  0.33040  0.13870  Biso   1.000  C
  C3398    1.0000 0.47450  0.31870  0.15950  Biso   1.000  C
  C3399    1.0000 0.47230  0.28610  0.16500  Biso   1.000  C
  C3400    1.0000 0.49310  0.26530  0.14970  Biso   1.000  C
  C3401    1.0000 0.51610  0.27710  0.12900  Biso   1.000  C
  C3402    1.0000 0.51830  0.30970  0.12350  Biso   1.000  C
  C3403    1.0000 0.57980  0.87530  0.63010  Biso   1.000  C
  N190     1.0000 0.55320  0.87580  0.63310  Biso   1.000  N
  C3404    1.0000 0.52400  0.91260  0.68780  Biso   1.000  C
  C3405    1.0000 0.52960  0.93740  0.70900  Biso   1.000  C
  C3406    1.0000 0.51110  0.96480  0.70760  Biso   1.000  C
  C3407    1.0000 0.51300  0.93500  0.71740  Biso   1.000  C
  C3408    1.0000 0.48150  0.94260  0.66380  Biso   1.000  C
  C3409    1.0000 0.49380  0.83010  0.64460  Biso   1.000  C
  C3410    1.0000 0.46870  0.82210  0.66480  Biso   1.000  C
  C3411    1.0000 0.46580  0.79110  0.67600  Biso   1.000  C
  C3412    1.0000 0.48790  0.76810  0.66710  Biso   1.000  C
  C3413    1.0000 0.51290  0.77620  0.64690  Biso   1.000  C
  C3414    1.0000 0.51580  0.80720  0.63570  Biso   1.000  C
  C3415    1.0000 0.49750  0.83040  0.63870  Biso   1.000  C
  C3416    1.0000 0.47450  0.81870  0.65950  Biso   1.000  C
  C3417    1.0000 0.47230  0.78610  0.66500  Biso   1.000  C
  C3418    1.0000 0.49310  0.76530  0.64970  Biso   1.000  C
  C3419    1.0000 0.51610  0.77710  0.62900  Biso   1.000  C
  C3420    1.0000 0.51830  0.80970  0.62350  Biso   1.000  C
  C3421    1.0000 0.07980  0.37530  0.63010  Biso   1.000  C
  N191     1.0000 0.05320  0.37580  0.63310  Biso   1.000  N
  C3422    1.0000 0.02400  0.41260  0.68780  Biso   1.000  C
  C3423    1.0000 0.02960  0.43740  0.70900  Biso   1.000  C
  C3424    1.0000 0.01110  0.46480  0.70760  Biso   1.000  C
  C3425    1.0000 0.01300  0.43500  0.71740  Biso   1.000  C
  C3426    1.0000 0.98150  0.44260  0.66380  Biso   1.000  C
  C3427    1.0000 0.99380  0.33010  0.64460  Biso   1.000  C
  C3428    1.0000 0.96870  0.32210  0.66480  Biso   1.000  C
  C3429    1.0000 0.96580  0.29110  0.67600  Biso   1.000  C
  C3430    1.0000 0.98790  0.26810  0.66710  Biso   1.000  C
  C3431    1.0000 0.01290  0.27620  0.64690  Biso   1.000  C
  C3432    1.0000 0.01580  0.30720  0.63570  Biso   1.000  C
  C3433    1.0000 0.99750  0.33040  0.63870  Biso   1.000  C
  C3434    1.0000 0.97450  0.31870  0.65950  Biso   1.000  C
  C3435    1.0000 0.97230  0.28610  0.66500  Biso   1.000  C
  C3436    1.0000 0.99310  0.26530  0.64970  Biso   1.000  C
  C3437    1.0000 0.01610  0.27710  0.62900  Biso   1.000  C
  C3438    1.0000 0.01830  0.30970  0.62350  Biso   1.000  C
  C3439    1.0000 0.07980  0.87530  0.13010  Biso   1.000  C
  N192     1.0000 0.05320  0.87580  0.13310  Biso   1.000  N
  C3440    1.0000 0.02400  0.91260  0.18780  Biso   1.000  C
  C3441    1.0000 0.02960  0.93740  0.20900  Biso   1.000  C
  C3442    1.0000 0.01110  0.96480  0.20760  Biso   1.000  C
  C3443    1.0000 0.01300  0.93500  0.21740  Biso   1.000  C
  C3444    1.0000 0.98150  0.94260  0.16380  Biso   1.000  C
  C3445    1.0000 0.99380  0.83010  0.14460  Biso   1.000  C
  C3446    1.0000 0.96870  0.82210  0.16480  Biso   1.000  C
  C3447    1.0000 0.96580  0.79110  0.17600  Biso   1.000  C
  C3448    1.0000 0.98790  0.76810  0.16710  Biso   1.000  C
  C3449    1.0000 0.01290  0.77620  0.14690  Biso   1.000  C
  C3450    1.0000 0.01580  0.80720  0.13570  Biso   1.000  C
  C3451    1.0000 0.99750  0.83040  0.13870  Biso   1.000  C
  C3452    1.0000 0.97450  0.81870  0.15950  Biso   1.000  C
  C3453    1.0000 0.97230  0.78610  0.16500  Biso   1.000  C
  C3454    1.0000 0.99310  0.76530  0.14970  Biso   1.000  C
  C3455    1.0000 0.01610  0.77710  0.12900  Biso   1.000  C
  C3456    1.0000 0.01830  0.80970  0.12350  Biso   1.000  C
  Sn1      1.0000 0.62963  0.87963  0.00000  Biso   1.000  Sn
  C3457    1.0000 0.66520  0.91520  0.00000  Biso   1.000  C
  Sn2      1.0000 0.62963  0.37963  0.50000  Biso   1.000  Sn
  C3458    1.0000 0.66520  0.41520  0.50000  Biso   1.000  C
  Sn3      1.0000 0.12963  0.87963  0.50000  Biso   1.000  Sn
  C3459    1.0000 0.16520  0.91520  0.50000  Biso   1.000  C
  Sn4      1.0000 0.12963  0.37963  0.00000  Biso   1.000  Sn
  C3460    1.0000 0.16520  0.41520  0.00000  Biso   1.000  C
  Sn5      1.0000 0.62037  0.87037  0.50000  Biso   1.000  Sn
  C3461    1.0000 0.58480  0.83480  0.50000  Biso   1.000  C
  Sn6      1.0000 0.62037  0.37037  0.00000  Biso   1.000  Sn
  C3462    1.0000 0.58480  0.33480  0.00000  Biso   1.000  C
  Sn7      1.0000 0.12037  0.87037  0.00000  Biso   1.000  Sn
  C3463    1.0000 0.08480  0.83480  0.00000  Biso   1.000  C
  Sn8      1.0000 0.12037  0.37037  0.50000  Biso   1.000  Sn
  C3464    1.0000 0.08480  0.33480  0.50000  Biso   1.000  C
  Sn9      1.0000 0.12037  0.37963  0.25000  Biso   1.000  Sn
  C3465    1.0000 0.08480  0.41520  0.25000  Biso   1.000  C
  Sn10     1.0000 0.12037  0.87963  0.75000  Biso   1.000  Sn
  C3466    1.0000 0.08480  0.91520  0.75000  Biso   1.000  C
  Sn11     1.0000 0.62037  0.37963  0.75000  Biso   1.000  Sn
  C3467    1.0000 0.58480  0.41520  0.75000  Biso   1.000  C
  Sn12     1.0000 0.62037  0.87963  0.25000  Biso   1.000  Sn
  C3468    1.0000 0.58480  0.91520  0.25000  Biso   1.000  C
  Sn13     1.0000 0.12963  0.37037  0.75000  Biso   1.000  Sn
  C3469    1.0000 0.16520  0.33480  0.75000  Biso   1.000  C
  Sn14     1.0000 0.12963  0.87037  0.25000  Biso   1.000  Sn
  C3470    1.0000 0.16520  0.83480  0.25000  Biso   1.000  C
  Sn15     1.0000 0.62963  0.37037  0.25000  Biso   1.000  Sn
  C3471    1.0000 0.66520  0.33480  0.25000  Biso   1.000  C
  Sn16     1.0000 0.62963  0.87037  0.75000  Biso   1.000  Sn
  C3472    1.0000 0.66520  0.83480  0.75000  Biso   1.000  C
  Sn17     1.0000 0.00000  0.62963  0.87963  Biso   1.000  Sn
  C3473    1.0000 0.00000  0.66520  0.91520  Biso   1.000  C
  Sn18     1.0000 0.00000  0.12963  0.37963  Biso   1.000  Sn
  C3474    1.0000 0.00000  0.16520  0.41520  Biso   1.000  C
  Sn19     1.0000 0.50000  0.62963  0.37963  Biso   1.000  Sn
  C3475    1.0000 0.50000  0.66520  0.41520  Biso   1.000  C
  Sn20     1.0000 0.50000  0.12963  0.87963  Biso   1.000  Sn
  C3476    1.0000 0.50000  0.16520  0.91520  Biso   1.000  C
  Sn21     1.0000 0.50000  0.62037  0.87037  Biso   1.000  Sn
  C3477    1.0000 0.50000  0.58480  0.83480  Biso   1.000  C
  Sn22     1.0000 0.50000  0.12037  0.37037  Biso   1.000  Sn
  C3478    1.0000 0.50000  0.08480  0.33480  Biso   1.000  C
  Sn23     1.0000 0.00000  0.62037  0.37037  Biso   1.000  Sn
  C3479    1.0000 0.00000  0.58480  0.33480  Biso   1.000  C
  Sn24     1.0000 0.00000  0.12037  0.87037  Biso   1.000  Sn
  C3480    1.0000 0.00000  0.08480  0.83480  Biso   1.000  C
  Sn25     1.0000 0.25000  0.12037  0.37963  Biso   1.000  Sn
  C3481    1.0000 0.25000  0.08480  0.41520  Biso   1.000  C
  Sn26     1.0000 0.25000  0.62037  0.87963  Biso   1.000  Sn
  C3482    1.0000 0.25000  0.58480  0.91520  Biso   1.000  C
  Sn27     1.0000 0.75000  0.12037  0.87963  Biso   1.000  Sn
  C3483    1.0000 0.75000  0.08480  0.91520  Biso   1.000  C
  Sn28     1.0000 0.75000  0.62037  0.37963  Biso   1.000  Sn
  C3484    1.0000 0.75000  0.58480  0.41520  Biso   1.000  C
  Sn29     1.0000 0.75000  0.12963  0.37037  Biso   1.000  Sn
  C3485    1.0000 0.75000  0.16520  0.33480  Biso   1.000  C
  Sn30     1.0000 0.75000  0.62963  0.87037  Biso   1.000  Sn
  C3486    1.0000 0.75000  0.66520  0.83480  Biso   1.000  C
  Sn31     1.0000 0.25000  0.12963  0.87037  Biso   1.000  Sn
  C3487    1.0000 0.25000  0.16520  0.83480  Biso   1.000  C
  Sn32     1.0000 0.25000  0.62963  0.37037  Biso   1.000  Sn
  C3488    1.0000 0.25000  0.66520  0.33480  Biso   1.000  C
  Sn33     1.0000 0.87963  0.00000  0.62963  Biso   1.000  Sn
  C3489    1.0000 0.91520  0.00000  0.66520  Biso   1.000  C
  Sn34     1.0000 0.87963  0.50000  0.12963  Biso   1.000  Sn
  C3490    1.0000 0.91520  0.50000  0.16520  Biso   1.000  C
  Sn35     1.0000 0.37963  0.00000  0.12963  Biso   1.000  Sn
  C3491    1.0000 0.41520  0.00000  0.16520  Biso   1.000  C
  Sn36     1.0000 0.37963  0.50000  0.62963  Biso   1.000  Sn
  C3492    1.0000 0.41520  0.50000  0.66520  Biso   1.000  C
  Sn37     1.0000 0.87037  0.50000  0.62037  Biso   1.000  Sn
  C3493    1.0000 0.83480  0.50000  0.58480  Biso   1.000  C
  Sn38     1.0000 0.87037  0.00000  0.12037  Biso   1.000  Sn
  C3494    1.0000 0.83480  0.00000  0.08480  Biso   1.000  C
  Sn39     1.0000 0.37037  0.50000  0.12037  Biso   1.000  Sn
  C3495    1.0000 0.33480  0.50000  0.08480  Biso   1.000  C
  Sn40     1.0000 0.37037  0.00000  0.62037  Biso   1.000  Sn
  C3496    1.0000 0.33480  0.00000  0.58480  Biso   1.000  C
  Sn41     1.0000 0.37963  0.25000  0.12037  Biso   1.000  Sn
  C3497    1.0000 0.41520  0.25000  0.08480  Biso   1.000  C
  Sn42     1.0000 0.37963  0.75000  0.62037  Biso   1.000  Sn
  C3498    1.0000 0.41520  0.75000  0.58480  Biso   1.000  C
  Sn43     1.0000 0.87963  0.25000  0.62037  Biso   1.000  Sn
  C3499    1.0000 0.91520  0.25000  0.58480  Biso   1.000  C
  Sn44     1.0000 0.87963  0.75000  0.12037  Biso   1.000  Sn
  C3500    1.0000 0.91520  0.75000  0.08480  Biso   1.000  C
  Sn45     1.0000 0.37037  0.75000  0.12963  Biso   1.000  Sn
  C3501    1.0000 0.33480  0.75000  0.16520  Biso   1.000  C
  Sn46     1.0000 0.37037  0.25000  0.62963  Biso   1.000  Sn
  C3502    1.0000 0.33480  0.25000  0.66520  Biso   1.000  C
  Sn47     1.0000 0.87037  0.75000  0.62963  Biso   1.000  Sn
  C3503    1.0000 0.83480  0.75000  0.66520  Biso   1.000  C
  Sn48     1.0000 0.87037  0.25000  0.12963  Biso   1.000  Sn
  C3504    1.0000 0.83480  0.25000  0.16520  Biso   1.000  C
  Sn49     1.0000 0.37037  0.12037  0.00000  Biso   1.000  Sn
  C3505    1.0000 0.33480  0.08480  0.00000  Biso   1.000  C
  Sn50     1.0000 0.37037  0.62037  0.50000  Biso   1.000  Sn
  C3506    1.0000 0.33480  0.58480  0.50000  Biso   1.000  C
  Sn51     1.0000 0.87037  0.12037  0.50000  Biso   1.000  Sn
  C3507    1.0000 0.83480  0.08480  0.50000  Biso   1.000  C
  Sn52     1.0000 0.87037  0.62037  0.00000  Biso   1.000  Sn
  C3508    1.0000 0.83480  0.58480  0.00000  Biso   1.000  C
  Sn53     1.0000 0.37963  0.12963  0.50000  Biso   1.000  Sn
  C3509    1.0000 0.41520  0.16520  0.50000  Biso   1.000  C
  Sn54     1.0000 0.37963  0.62963  0.00000  Biso   1.000  Sn
  C3510    1.0000 0.41520  0.66520  0.00000  Biso   1.000  C
  Sn55     1.0000 0.87963  0.12963  0.00000  Biso   1.000  Sn
  C3511    1.0000 0.91520  0.16520  0.00000  Biso   1.000  C
  Sn56     1.0000 0.87963  0.62963  0.50000  Biso   1.000  Sn
  C3512    1.0000 0.91520  0.66520  0.50000  Biso   1.000  C
  Sn57     1.0000 0.87963  0.62037  0.75000  Biso   1.000  Sn
  C3513    1.0000 0.91520  0.58480  0.75000  Biso   1.000  C
  Sn58     1.0000 0.87963  0.12037  0.25000  Biso   1.000  Sn
  C3514    1.0000 0.91520  0.08480  0.25000  Biso   1.000  C
  Sn59     1.0000 0.37963  0.62037  0.25000  Biso   1.000  Sn
  C3515    1.0000 0.41520  0.58480  0.25000  Biso   1.000  C
  Sn60     1.0000 0.37963  0.12037  0.75000  Biso   1.000  Sn
  C3516    1.0000 0.41520  0.08480  0.75000  Biso   1.000  C
  Sn61     1.0000 0.87037  0.62963  0.25000  Biso   1.000  Sn
  C3517    1.0000 0.83480  0.66520  0.25000  Biso   1.000  C
  Sn62     1.0000 0.87037  0.12963  0.75000  Biso   1.000  Sn
  C3518    1.0000 0.83480  0.16520  0.75000  Biso   1.000  C
  Sn63     1.0000 0.37037  0.62963  0.75000  Biso   1.000  Sn
  C3519    1.0000 0.33480  0.66520  0.75000  Biso   1.000  C
  Sn64     1.0000 0.37037  0.12963  0.25000  Biso   1.000  Sn
  C3520    1.0000 0.33480  0.16520  0.25000  Biso   1.000  C
  Sn65     1.0000 0.00000  0.37037  0.12037  Biso   1.000  Sn
  C3521    1.0000 0.00000  0.33480  0.08480  Biso   1.000  C
  Sn66     1.0000 0.00000  0.87037  0.62037  Biso   1.000  Sn
  C3522    1.0000 0.00000  0.83480  0.58480  Biso   1.000  C
  Sn67     1.0000 0.50000  0.37037  0.62037  Biso   1.000  Sn
  C3523    1.0000 0.50000  0.33480  0.58480  Biso   1.000  C
  Sn68     1.0000 0.50000  0.87037  0.12037  Biso   1.000  Sn
  C3524    1.0000 0.50000  0.83480  0.08480  Biso   1.000  C
  Sn69     1.0000 0.50000  0.37963  0.12963  Biso   1.000  Sn
  C3525    1.0000 0.50000  0.41520  0.16520  Biso   1.000  C
  Sn70     1.0000 0.50000  0.87963  0.62963  Biso   1.000  Sn
  C3526    1.0000 0.50000  0.91520  0.66520  Biso   1.000  C
  Sn71     1.0000 0.00000  0.37963  0.62963  Biso   1.000  Sn
  C3527    1.0000 0.00000  0.41520  0.66520  Biso   1.000  C
  Sn72     1.0000 0.00000  0.87963  0.12963  Biso   1.000  Sn
  C3528    1.0000 0.00000  0.91520  0.16520  Biso   1.000  C
  Sn73     1.0000 0.75000  0.87963  0.62037  Biso   1.000  Sn
  C3529    1.0000 0.75000  0.91520  0.58480  Biso   1.000  C
  Sn74     1.0000 0.75000  0.37963  0.12037  Biso   1.000  Sn
  C3530    1.0000 0.75000  0.41520  0.08480  Biso   1.000  C
  Sn75     1.0000 0.25000  0.87963  0.12037  Biso   1.000  Sn
  C3531    1.0000 0.25000  0.91520  0.08480  Biso   1.000  C
  Sn76     1.0000 0.25000  0.37963  0.62037  Biso   1.000  Sn
  C3532    1.0000 0.25000  0.41520  0.58480  Biso   1.000  C
  Sn77     1.0000 0.25000  0.87037  0.62963  Biso   1.000  Sn
  C3533    1.0000 0.25000  0.83480  0.66520  Biso   1.000  C
  Sn78     1.0000 0.25000  0.37037  0.12963  Biso   1.000  Sn
  C3534    1.0000 0.25000  0.33480  0.16520  Biso   1.000  C
  Sn79     1.0000 0.75000  0.87037  0.12963  Biso   1.000  Sn
  C3535    1.0000 0.75000  0.83480  0.16520  Biso   1.000  C
  Sn80     1.0000 0.75000  0.37037  0.62963  Biso   1.000  Sn
  C3536    1.0000 0.75000  0.33480  0.66520  Biso   1.000  C
  Sn81     1.0000 0.12037  0.00000  0.37037  Biso   1.000  Sn
  C3537    1.0000 0.08480  0.00000  0.33480  Biso   1.000  C
  Sn82     1.0000 0.12037  0.50000  0.87037  Biso   1.000  Sn
  C3538    1.0000 0.08480  0.50000  0.83480  Biso   1.000  C
  Sn83     1.0000 0.62037  0.00000  0.87037  Biso   1.000  Sn
  C3539    1.0000 0.58480  0.00000  0.83480  Biso   1.000  C
  Sn84     1.0000 0.62037  0.50000  0.37037  Biso   1.000  Sn
  C3540    1.0000 0.58480  0.50000  0.33480  Biso   1.000  C
  Sn85     1.0000 0.12963  0.50000  0.37963  Biso   1.000  Sn
  C3541    1.0000 0.16520  0.50000  0.41520  Biso   1.000  C
  Sn86     1.0000 0.12963  0.00000  0.87963  Biso   1.000  Sn
  C3542    1.0000 0.16520  0.00000  0.91520  Biso   1.000  C
  Sn87     1.0000 0.62963  0.50000  0.87963  Biso   1.000  Sn
  C3543    1.0000 0.66520  0.50000  0.91520  Biso   1.000  C
  Sn88     1.0000 0.62963  0.00000  0.37963  Biso   1.000  Sn
  C3544    1.0000 0.66520  0.00000  0.41520  Biso   1.000  C
  Sn89     1.0000 0.62037  0.75000  0.87963  Biso   1.000  Sn
  C3545    1.0000 0.58480  0.75000  0.91520  Biso   1.000  C
  Sn90     1.0000 0.62037  0.25000  0.37963  Biso   1.000  Sn
  C3546    1.0000 0.58480  0.25000  0.41520  Biso   1.000  C
  Sn91     1.0000 0.12037  0.75000  0.37963  Biso   1.000  Sn
  C3547    1.0000 0.08480  0.75000  0.41520  Biso   1.000  C
  Sn92     1.0000 0.12037  0.25000  0.87963  Biso   1.000  Sn
  C3548    1.0000 0.08480  0.25000  0.91520  Biso   1.000  C
  Sn93     1.0000 0.62963  0.25000  0.87037  Biso   1.000  Sn
  C3549    1.0000 0.66520  0.25000  0.83480  Biso   1.000  C
  Sn94     1.0000 0.62963  0.75000  0.37037  Biso   1.000  Sn
  C3550    1.0000 0.66520  0.75000  0.33480  Biso   1.000  C
  Sn95     1.0000 0.12963  0.25000  0.37037  Biso   1.000  Sn
  C3551    1.0000 0.16520  0.25000  0.33480  Biso   1.000  C
  Sn96     1.0000 0.12963  0.75000  0.87037  Biso   1.000  Sn
  C3552    1.0000 0.16520  0.75000  0.83480  Biso   1.000  C
  Ni1      1.0000 0.62500  0.87500  0.12500  Biso   1.000  Ni
  Ni2      1.0000 0.62500  0.37500  0.62500  Biso   1.000  Ni
  Ni3      1.0000 0.62500  0.87500  0.62500  Biso   1.000  Ni
  Ni4      1.0000 0.12500  0.37500  0.12500  Biso   1.000  Ni
  Ni5      1.0000 0.12500  0.37500  0.62500  Biso   1.000  Ni
  Ni6      1.0000 0.12500  0.87500  0.12500  Biso   1.000  Ni
  Ni7      1.0000 0.12500  0.62500  0.87500  Biso   1.000  Ni
  Ni8      1.0000 0.62500  0.62500  0.87500  Biso   1.000  Ni
  Ni9      1.0000 0.12500  0.12500  0.37500  Biso   1.000  Ni
  Ni10     1.0000 0.62500  0.12500  0.37500  Biso   1.000  Ni
  Ni11     1.0000 0.87500  0.12500  0.62500  Biso   1.000  Ni
  Ni12     1.0000 0.37500  0.62500  0.62500  Biso   1.000  Ni
  Ni13     1.0000 0.87500  0.62500  0.62500  Biso   1.000  Ni
  Ni14     1.0000 0.87500  0.12500  0.12500  Biso   1.000  Ni
  Ni15     1.0000 0.37500  0.12500  0.12500  Biso   1.000  Ni
  Ni16     1.0000 0.37500  0.62500  0.12500  Biso   1.000  Ni
  Ni17     1.0000 0.62500  0.87500  0.87500  Biso   1.000  Ni
  Ni18     1.0000 0.62500  0.37500  0.37500  Biso   1.000  Ni
  Ni19     1.0000 0.62500  0.87500  0.37500  Biso   1.000  Ni
  Ni20     1.0000 0.12500  0.37500  0.87500  Biso   1.000  Ni
  Ni21     1.0000 0.12500  0.37500  0.37500  Biso   1.000  Ni
  Ni22     1.0000 0.12500  0.87500  0.87500  Biso   1.000  Ni
  Ni23     1.0000 0.37500  0.37500  0.12500  Biso   1.000  Ni
  Ni24     1.0000 0.37500  0.87500  0.12500  Biso   1.000  Ni
  Ni25     1.0000 0.37500  0.37500  0.62500  Biso   1.000  Ni
  Ni26     1.0000 0.87500  0.37500  0.62500  Biso   1.000  Ni
  Ni27     1.0000 0.87500  0.87500  0.12500  Biso   1.000  Ni
  Ni28     1.0000 0.87500  0.87500  0.62500  Biso   1.000  Ni
  Ni29     1.0000 0.87500  0.12500  0.37500  Biso   1.000  Ni
  Ni30     1.0000 0.37500  0.12500  0.37500  Biso   1.000  Ni
  Ni31     1.0000 0.87500  0.62500  0.87500  Biso   1.000  Ni
  Ni32     1.0000 0.37500  0.62500  0.87500  Biso   1.000  Ni
  Ni33     1.0000 0.37500  0.12500  0.87500  Biso   1.000  Ni
  Ni34     1.0000 0.37500  0.62500  0.37500  Biso   1.000  Ni
  Ni35     1.0000 0.87500  0.62500  0.37500  Biso   1.000  Ni
  Ni36     1.0000 0.87500  0.12500  0.87500  Biso   1.000  Ni
  Ni37     1.0000 0.87500  0.37500  0.12500  Biso   1.000  Ni
  Ni38     1.0000 0.37500  0.87500  0.62500  Biso   1.000  Ni
  Ni39     1.0000 0.12500  0.87500  0.37500  Biso   1.000  Ni
  Ni40     1.0000 0.62500  0.37500  0.87500  Biso   1.000  Ni
  Ni41     1.0000 0.87500  0.62500  0.12500  Biso   1.000  Ni
  Ni42     1.0000 0.37500  0.12500  0.62500  Biso   1.000  Ni
  Ni43     1.0000 0.62500  0.12500  0.87500  Biso   1.000  Ni
  Ni44     1.0000 0.62500  0.62500  0.37500  Biso   1.000  Ni
  Ni45     1.0000 0.12500  0.62500  0.37500  Biso   1.000  Ni
  Ni46     1.0000 0.12500  0.12500  0.87500  Biso   1.000  Ni
  Ni47     1.0000 0.12500  0.87500  0.62500  Biso   1.000  Ni
  Ni48     1.0000 0.62500  0.37500  0.12500  Biso   1.000  Ni
