data_image0
_cell_length_a       34.1904
_cell_length_b       14.6784
_cell_length_c       30.1683
_cell_angle_alpha    90
_cell_angle_beta     101.744
_cell_angle_gamma    90

_symmetry_space_group_name_H-M    "P 1"
_symmetry_int_tables_number       1

loop_
  _symmetry_equiv_pos_as_xyz
  'x, y, z'

loop_
  _atom_site_label
  _atom_site_occupancy
  _atom_site_fract_x
  _atom_site_fract_y
  _atom_site_fract_z
  _atom_site_thermal_displace_type
  _atom_site_B_iso_or_equiv
  _atom_site_type_symbol
  Zn1      1.0000 0.37464  0.88897  0.45025  Biso   1.000  Zn
  Br1      1.0000 0.38822  0.75280  0.41540  Biso   1.000  Br
  Br2      1.0000 0.35804  0.90173  0.52070  Biso   1.000  Br
  Zn2      1.0000 0.18110  0.64640  0.27700  Biso   1.000  Zn
  Br3      1.0000 0.13970  0.66810  0.20570  Biso   1.000  Br
  Br4      1.0000 0.23900  0.73170  0.30270  Biso   1.000  Br
  Zn3      1.0000 0.08078  0.86411  0.09426  Biso   1.000  Zn
  Br5      1.0000 0.11503  0.75518  0.06083  Biso   1.000  Br
  Br6      1.0000 0.02886  0.84279  0.13308  Biso   1.000  Br
  N1       1.0000 0.33129  0.95620  0.40435  Biso   1.000  N
  C1       1.0000 0.32794  0.04640  0.40596  Biso   1.000  C
  H1       1.0000 0.34580  0.07890  0.42880  Biso   1.000  H
  C2       1.0000 0.29979  0.09460  0.37607  Biso   1.000  C
  H2       1.0000 0.29870  0.15910  0.37790  Biso   1.000  H
  C3       1.0000 0.27315  0.04800  0.34337  Biso   1.000  C
  C4       1.0000 0.27618  0.95370  0.34215  Biso   1.000  C
  H3       1.0000 0.25810  0.91940  0.32030  Biso   1.000  H
  C5       1.0000 0.30550  0.91070  0.37276  Biso   1.000  C
  H4       1.0000 0.30760  0.84620  0.37150  Biso   1.000  H
  C6       1.0000 0.24264  0.09590  0.30907  Biso   1.000  C
  N2       1.0000 0.23750  0.18510  0.31414  Biso   1.000  N
  C7       1.0000 0.20921  0.22230  0.28236  Biso   1.000  C
  N3       1.0000 0.18594  0.17650  0.24860  Biso   1.000  N
  C8       1.0000 0.19457  0.08880  0.24632  Biso   1.000  C
  N4       1.0000 0.22329  0.04460  0.27532  Biso   1.000  N
  C9       1.0000 0.20267  0.32240  0.28238  Biso   1.000  C
  C10      1.0000 0.22504  0.37950  0.31366  Biso   1.000  C
  H5       1.0000 0.24510  0.35550  0.33730  Biso   1.000  H
  C11      1.0000 0.21813  0.47200  0.31050  Biso   1.000  C
  H6       1.0000 0.23360  0.51100  0.33240  Biso   1.000  H
  N5       1.0000 0.19033  0.50880  0.27750  Biso   1.000  N
  C12      1.0000 0.16909  0.45350  0.24770  Biso   1.000  C
  H7       1.0000 0.14920  0.47910  0.22440  Biso   1.000  H
  C13      1.0000 0.17413  0.36120  0.24840  Biso   1.000  C
  H8       1.0000 0.15820  0.32410  0.22590  Biso   1.000  H
  C14      1.0000 0.17113  0.03620  0.20758  Biso   1.000  C
  C15      1.0000 0.17546  0.94290  0.20376  Biso   1.000  C
  H9       1.0000 0.19500  0.91070  0.22490  Biso   1.000  H
  C16      1.0000 0.15087  0.89740  0.16868  Biso   1.000  C
  H10      1.0000 0.15380  0.83330  0.16630  Biso   1.000  H
  N6       1.0000 0.12335  0.93970  0.13822  Biso   1.000  N
  C17      1.0000 0.12036  0.03000  0.14088  Biso   1.000  C
  H11      1.0000 0.10140  0.06090  0.11850  Biso   1.000  H
  C18      1.0000 0.14385  0.08010  0.17508  Biso   1.000  C
  H12      1.0000 0.14110  0.14450  0.17600  Biso   1.000  H
  N7       1.0000 0.06164  0.96350  0.04546  Biso   1.000  N
  C19      1.0000 0.03554  0.02800  0.05211  Biso   1.000  C
  H13      1.0000 0.02110  0.01960  0.07560  Biso   1.000  H
  C20      1.0000 0.02898  0.10570  0.02611  Biso   1.000  C
  H14      1.0000 0.01050  0.15040  0.03180  Biso   1.000  H
  C21      1.0000 0.04975  0.11790  0.99131  Biso   1.000  C
  C22      1.0000 0.07509  0.04860  0.98306  Biso   1.000  C
  H15      1.0000 0.08860  0.05280  0.95850  Biso   1.000  H
  C23      1.0000 0.08027  0.97360  0.01131  Biso   1.000  C
  H16      1.0000 0.09800  0.92700  0.00600  Biso   1.000  H
  C24      1.0000 0.04571  0.20210  0.96406  Biso   1.000  C
  N8       1.0000 0.01838  0.26280  0.97071  Biso   1.000  N
  C25      1.0000 0.01457  0.33460  0.94311  Biso   1.000  C
  N9       1.0000 0.03636  0.35070  0.91207  Biso   1.000  N
  C26      1.0000 0.06448  0.28860  0.91021  Biso   1.000  C
  N10      1.0000 0.06982  0.21150  0.93498  Biso   1.000  N
  C27      1.0000 0.98262  0.40150  0.94629  Biso   1.000  C
  C28      1.0000 0.96576  0.40590  0.98348  Biso   1.000  C
  H17      1.0000 0.97430  0.36580  0.00830  Biso   1.000  H
  C29      1.0000 0.93622  0.46870  0.98470  Biso   1.000  C
  H18      1.0000 0.92510  0.47200  0.01110  Biso   1.000  H
  N11      1.0000 0.92252  0.52520  0.95072  Biso   1.000  N
  C30      1.0000 0.93913  0.52040  0.91430  Biso   1.000  C
  H19      1.0000 0.92980  0.56060  0.88980  Biso   1.000  H
  C31      1.0000 0.96885  0.46050  0.91070  Biso   1.000  C
  H20      1.0000 0.97990  0.45930  0.88430  Biso   1.000  H
  C32      1.0000 0.09166  0.30470  0.87871  Biso   1.000  C
  C33      1.0000 0.12721  0.25900  0.88320  Biso   1.000  C
  H21      1.0000 0.13470  0.21530  0.90670  Biso   1.000  H
  C34      1.0000 0.15208  0.27670  0.85350  Biso   1.000  C
  H22      1.0000 0.17680  0.24520  0.85730  Biso   1.000  H
  N12      1.0000 0.14266  0.33640  0.81971  Biso   1.000  N
  C35      1.0000 0.10860  0.38080  0.81590  Biso   1.000  C
  H23      1.0000 0.10170  0.42390  0.79210  Biso   1.000  H
  C36      1.0000 0.08249  0.36780  0.84460  Biso   1.000  C
  H24      1.0000 0.05850  0.40210  0.84080  Biso   1.000  H
  Br7      1.0000 0.38560  0.74770  0.42100  Biso   1.000  Br
  Zn4      1.0000 0.17330  0.64670  0.26760  Biso   1.000  Zn
  Br8      1.0000 0.13003  0.65860  0.19660  Biso   1.000  Br
  Br9      1.0000 0.22931  0.73930  0.28906  Biso   1.000  Br
  Zn5      1.0000 0.87464  0.38897  0.45025  Biso   1.000  Zn
  Br10     1.0000 0.88822  0.25280  0.41540  Biso   1.000  Br
  Br11     1.0000 0.85804  0.40173  0.52070  Biso   1.000  Br
  Zn6      1.0000 0.68110  0.14640  0.27700  Biso   1.000  Zn
  Br12     1.0000 0.63970  0.16810  0.20570  Biso   1.000  Br
  Br13     1.0000 0.73900  0.23170  0.30270  Biso   1.000  Br
  Zn7      1.0000 0.58078  0.36411  0.09426  Biso   1.000  Zn
  Br14     1.0000 0.61503  0.25518  0.06083  Biso   1.000  Br
  Br15     1.0000 0.52886  0.34279  0.13308  Biso   1.000  Br
  N13      1.0000 0.83129  0.45620  0.40435  Biso   1.000  N
  C37      1.0000 0.82794  0.54640  0.40596  Biso   1.000  C
  H25      1.0000 0.84580  0.57890  0.42880  Biso   1.000  H
  C38      1.0000 0.79979  0.59460  0.37607  Biso   1.000  C
  H26      1.0000 0.79870  0.65910  0.37790  Biso   1.000  H
  C39      1.0000 0.77315  0.54800  0.34337  Biso   1.000  C
  C40      1.0000 0.77618  0.45370  0.34215  Biso   1.000  C
  H27      1.0000 0.75810  0.41940  0.32030  Biso   1.000  H
  C41      1.0000 0.80550  0.41070  0.37276  Biso   1.000  C
  H28      1.0000 0.80760  0.34620  0.37150  Biso   1.000  H
  C42      1.0000 0.74264  0.59590  0.30907  Biso   1.000  C
  N14      1.0000 0.73750  0.68510  0.31414  Biso   1.000  N
  C43      1.0000 0.70921  0.72230  0.28236  Biso   1.000  C
  N15      1.0000 0.68594  0.67650  0.24860  Biso   1.000  N
  C44      1.0000 0.69457  0.58880  0.24632  Biso   1.000  C
  N16      1.0000 0.72329  0.54460  0.27532  Biso   1.000  N
  C45      1.0000 0.70267  0.82240  0.28238  Biso   1.000  C
  C46      1.0000 0.72504  0.87950  0.31366  Biso   1.000  C
  H29      1.0000 0.74510  0.85550  0.33730  Biso   1.000  H
  C47      1.0000 0.71813  0.97200  0.31050  Biso   1.000  C
  H30      1.0000 0.73360  0.01100  0.33240  Biso   1.000  H
  N17      1.0000 0.69033  0.00880  0.27750  Biso   1.000  N
  C48      1.0000 0.66909  0.95350  0.24770  Biso   1.000  C
  H31      1.0000 0.64920  0.97910  0.22440  Biso   1.000  H
  C49      1.0000 0.67413  0.86120  0.24840  Biso   1.000  C
  H32      1.0000 0.65820  0.82410  0.22590  Biso   1.000  H
  C50      1.0000 0.67113  0.53620  0.20758  Biso   1.000  C
  C51      1.0000 0.67546  0.44290  0.20376  Biso   1.000  C
  H33      1.0000 0.69500  0.41070  0.22490  Biso   1.000  H
  C52      1.0000 0.65087  0.39740  0.16868  Biso   1.000  C
  H34      1.0000 0.65380  0.33330  0.16630  Biso   1.000  H
  N18      1.0000 0.62335  0.43970  0.13822  Biso   1.000  N
  C53      1.0000 0.62036  0.53000  0.14088  Biso   1.000  C
  H35      1.0000 0.60140  0.56090  0.11850  Biso   1.000  H
  C54      1.0000 0.64385  0.58010  0.17508  Biso   1.000  C
  H36      1.0000 0.64110  0.64450  0.17600  Biso   1.000  H
  N19      1.0000 0.56164  0.46350  0.04546  Biso   1.000  N
  C55      1.0000 0.53554  0.52800  0.05211  Biso   1.000  C
  H37      1.0000 0.52110  0.51960  0.07560  Biso   1.000  H
  C56      1.0000 0.52898  0.60570  0.02611  Biso   1.000  C
  H38      1.0000 0.51050  0.65040  0.03180  Biso   1.000  H
  C57      1.0000 0.54975  0.61790  0.99131  Biso   1.000  C
  C58      1.0000 0.57509  0.54860  0.98306  Biso   1.000  C
  H39      1.0000 0.58860  0.55280  0.95850  Biso   1.000  H
  C59      1.0000 0.58027  0.47360  0.01131  Biso   1.000  C
  H40      1.0000 0.59800  0.42700  0.00600  Biso   1.000  H
  C60      1.0000 0.54571  0.70210  0.96406  Biso   1.000  C
  N20      1.0000 0.51838  0.76280  0.97071  Biso   1.000  N
  C61      1.0000 0.51457  0.83460  0.94311  Biso   1.000  C
  N21      1.0000 0.53636  0.85070  0.91207  Biso   1.000  N
  C62      1.0000 0.56448  0.78860  0.91021  Biso   1.000  C
  N22      1.0000 0.56982  0.71150  0.93498  Biso   1.000  N
  C63      1.0000 0.48262  0.90150  0.94629  Biso   1.000  C
  C64      1.0000 0.46576  0.90590  0.98348  Biso   1.000  C
  H41      1.0000 0.47430  0.86580  0.00830  Biso   1.000  H
  C65      1.0000 0.43622  0.96870  0.98470  Biso   1.000  C
  H42      1.0000 0.42510  0.97200  0.01110  Biso   1.000  H
  N23      1.0000 0.42252  0.02520  0.95072  Biso   1.000  N
  C66      1.0000 0.43913  0.02040  0.91430  Biso   1.000  C
  H43      1.0000 0.42980  0.06060  0.88980  Biso   1.000  H
  C67      1.0000 0.46885  0.96050  0.91070  Biso   1.000  C
  H44      1.0000 0.47990  0.95930  0.88430  Biso   1.000  H
  C68      1.0000 0.59166  0.80470  0.87871  Biso   1.000  C
  C69      1.0000 0.62721  0.75900  0.88320  Biso   1.000  C
  H45      1.0000 0.63470  0.71530  0.90670  Biso   1.000  H
  C70      1.0000 0.65208  0.77670  0.85350  Biso   1.000  C
  H46      1.0000 0.67680  0.74520  0.85730  Biso   1.000  H
  N24      1.0000 0.64266  0.83640  0.81971  Biso   1.000  N
  C71      1.0000 0.60860  0.88080  0.81590  Biso   1.000  C
  H47      1.0000 0.60170  0.92390  0.79210  Biso   1.000  H
  C72      1.0000 0.58249  0.86780  0.84460  Biso   1.000  C
  H48      1.0000 0.55850  0.90210  0.84080  Biso   1.000  H
  Br16     1.0000 0.88560  0.24770  0.42100  Biso   1.000  Br
  Zn8      1.0000 0.67330  0.14670  0.26760  Biso   1.000  Zn
  Br17     1.0000 0.63003  0.15860  0.19660  Biso   1.000  Br
  Br18     1.0000 0.72931  0.23930  0.28906  Biso   1.000  Br
  Zn9      1.0000 0.37464  0.11103  0.95025  Biso   1.000  Zn
  Br19     1.0000 0.38822  0.24720  0.91540  Biso   1.000  Br
  Br20     1.0000 0.35804  0.09827  0.02070  Biso   1.000  Br
  Zn10     1.0000 0.18110  0.35360  0.77700  Biso   1.000  Zn
  Br21     1.0000 0.13970  0.33190  0.70570  Biso   1.000  Br
  Br22     1.0000 0.23900  0.26830  0.80270  Biso   1.000  Br
  Zn11     1.0000 0.08078  0.13589  0.59426  Biso   1.000  Zn
  Br23     1.0000 0.11503  0.24482  0.56083  Biso   1.000  Br
  Br24     1.0000 0.02886  0.15721  0.63308  Biso   1.000  Br
  N25      1.0000 0.33129  0.04380  0.90435  Biso   1.000  N
  C73      1.0000 0.32794  0.95360  0.90596  Biso   1.000  C
  H49      1.0000 0.34580  0.92110  0.92880  Biso   1.000  H
  C74      1.0000 0.29979  0.90540  0.87607  Biso   1.000  C
  H50      1.0000 0.29870  0.84090  0.87790  Biso   1.000  H
  C75      1.0000 0.27315  0.95200  0.84337  Biso   1.000  C
  C76      1.0000 0.27618  0.04630  0.84215  Biso   1.000  C
  H51      1.0000 0.25810  0.08060  0.82030  Biso   1.000  H
  C77      1.0000 0.30550  0.08930  0.87276  Biso   1.000  C
  H52      1.0000 0.30760  0.15380  0.87150  Biso   1.000  H
  C78      1.0000 0.24264  0.90410  0.80907  Biso   1.000  C
  N26      1.0000 0.23750  0.81490  0.81414  Biso   1.000  N
  C79      1.0000 0.20921  0.77770  0.78236  Biso   1.000  C
  N27      1.0000 0.18594  0.82350  0.74860  Biso   1.000  N
  C80      1.0000 0.19457  0.91120  0.74632  Biso   1.000  C
  N28      1.0000 0.22329  0.95540  0.77532  Biso   1.000  N
  C81      1.0000 0.20267  0.67760  0.78238  Biso   1.000  C
  C82      1.0000 0.22504  0.62050  0.81366  Biso   1.000  C
  H53      1.0000 0.24510  0.64450  0.83730  Biso   1.000  H
  C83      1.0000 0.21813  0.52800  0.81050  Biso   1.000  C
  H54      1.0000 0.23360  0.48900  0.83240  Biso   1.000  H
  N29      1.0000 0.19033  0.49120  0.77750  Biso   1.000  N
  C84      1.0000 0.16909  0.54650  0.74770  Biso   1.000  C
  H55      1.0000 0.14920  0.52090  0.72440  Biso   1.000  H
  C85      1.0000 0.17413  0.63880  0.74840  Biso   1.000  C
  H56      1.0000 0.15820  0.67590  0.72590  Biso   1.000  H
  C86      1.0000 0.17113  0.96380  0.70758  Biso   1.000  C
  C87      1.0000 0.17546  0.05710  0.70376  Biso   1.000  C
  H57      1.0000 0.19500  0.08930  0.72490  Biso   1.000  H
  C88      1.0000 0.15087  0.10260  0.66868  Biso   1.000  C
  H58      1.0000 0.15380  0.16670  0.66630  Biso   1.000  H
  N30      1.0000 0.12335  0.06030  0.63822  Biso   1.000  N
  C89      1.0000 0.12036  0.97000  0.64088  Biso   1.000  C
  H59      1.0000 0.10140  0.93910  0.61850  Biso   1.000  H
  C90      1.0000 0.14385  0.91990  0.67508  Biso   1.000  C
  H60      1.0000 0.14110  0.85550  0.67600  Biso   1.000  H
  N31      1.0000 0.06164  0.03650  0.54546  Biso   1.000  N
  C91      1.0000 0.03554  0.97200  0.55211  Biso   1.000  C
  H61      1.0000 0.02110  0.98040  0.57560  Biso   1.000  H
  C92      1.0000 0.02898  0.89430  0.52611  Biso   1.000  C
  H62      1.0000 0.01050  0.84960  0.53180  Biso   1.000  H
  C93      1.0000 0.04975  0.88210  0.49131  Biso   1.000  C
  C94      1.0000 0.07509  0.95140  0.48306  Biso   1.000  C
  H63      1.0000 0.08860  0.94720  0.45850  Biso   1.000  H
  C95      1.0000 0.08027  0.02640  0.51131  Biso   1.000  C
  H64      1.0000 0.09800  0.07300  0.50600  Biso   1.000  H
  C96      1.0000 0.04571  0.79790  0.46406  Biso   1.000  C
  N32      1.0000 0.01838  0.73720  0.47071  Biso   1.000  N
  C97      1.0000 0.01457  0.66540  0.44311  Biso   1.000  C
  N33      1.0000 0.03636  0.64930  0.41207  Biso   1.000  N
  C98      1.0000 0.06448  0.71140  0.41021  Biso   1.000  C
  N34      1.0000 0.06982  0.78850  0.43498  Biso   1.000  N
  C99      1.0000 0.98262  0.59850  0.44629  Biso   1.000  C
  C100     1.0000 0.96576  0.59410  0.48348  Biso   1.000  C
  H65      1.0000 0.97430  0.63420  0.50830  Biso   1.000  H
  C101     1.0000 0.93622  0.53130  0.48470  Biso   1.000  C
  H66      1.0000 0.92510  0.52800  0.51110  Biso   1.000  H
  N35      1.0000 0.92252  0.47480  0.45072  Biso   1.000  N
  C102     1.0000 0.93913  0.47960  0.41430  Biso   1.000  C
  H67      1.0000 0.92980  0.43940  0.38980  Biso   1.000  H
  C103     1.0000 0.96885  0.53950  0.41070  Biso   1.000  C
  H68      1.0000 0.97990  0.54070  0.38430  Biso   1.000  H
  C104     1.0000 0.09166  0.69530  0.37871  Biso   1.000  C
  C105     1.0000 0.12721  0.74100  0.38320  Biso   1.000  C
  H69      1.0000 0.13470  0.78470  0.40670  Biso   1.000  H
  C106     1.0000 0.15208  0.72330  0.35350  Biso   1.000  C
  H70      1.0000 0.17680  0.75480  0.35730  Biso   1.000  H
  N36      1.0000 0.14266  0.66360  0.31971  Biso   1.000  N
  C107     1.0000 0.10860  0.61920  0.31590  Biso   1.000  C
  H71      1.0000 0.10170  0.57610  0.29210  Biso   1.000  H
  C108     1.0000 0.08249  0.63220  0.34460  Biso   1.000  C
  H72      1.0000 0.05850  0.59790  0.34080  Biso   1.000  H
  Br25     1.0000 0.38560  0.25230  0.92100  Biso   1.000  Br
  Zn12     1.0000 0.17330  0.35330  0.76760  Biso   1.000  Zn
  Br26     1.0000 0.13003  0.34140  0.69660  Biso   1.000  Br
  Br27     1.0000 0.22931  0.26070  0.78906  Biso   1.000  Br
  Zn13     1.0000 0.87464  0.61103  0.95025  Biso   1.000  Zn
  Br28     1.0000 0.88822  0.74720  0.91540  Biso   1.000  Br
  Br29     1.0000 0.85804  0.59827  0.02070  Biso   1.000  Br
  Zn14     1.0000 0.68110  0.85360  0.77700  Biso   1.000  Zn
  Br30     1.0000 0.63970  0.83190  0.70570  Biso   1.000  Br
  Br31     1.0000 0.73900  0.76830  0.80270  Biso   1.000  Br
  Zn15     1.0000 0.58078  0.63589  0.59426  Biso   1.000  Zn
  Br32     1.0000 0.61503  0.74482  0.56083  Biso   1.000  Br
  Br33     1.0000 0.52886  0.65721  0.63308  Biso   1.000  Br
  N37      1.0000 0.83129  0.54380  0.90435  Biso   1.000  N
  C109     1.0000 0.82794  0.45360  0.90596  Biso   1.000  C
  H73      1.0000 0.84580  0.42110  0.92880  Biso   1.000  H
  C110     1.0000 0.79979  0.40540  0.87607  Biso   1.000  C
  H74      1.0000 0.79870  0.34090  0.87790  Biso   1.000  H
  C111     1.0000 0.77315  0.45200  0.84337  Biso   1.000  C
  C112     1.0000 0.77618  0.54630  0.84215  Biso   1.000  C
  H75      1.0000 0.75810  0.58060  0.82030  Biso   1.000  H
  C113     1.0000 0.80550  0.58930  0.87276  Biso   1.000  C
  H76      1.0000 0.80760  0.65380  0.87150  Biso   1.000  H
  C114     1.0000 0.74264  0.40410  0.80907  Biso   1.000  C
  N38      1.0000 0.73750  0.31490  0.81414  Biso   1.000  N
  C115     1.0000 0.70921  0.27770  0.78236  Biso   1.000  C
  N39      1.0000 0.68594  0.32350  0.74860  Biso   1.000  N
  C116     1.0000 0.69457  0.41120  0.74632  Biso   1.000  C
  N40      1.0000 0.72329  0.45540  0.77532  Biso   1.000  N
  C117     1.0000 0.70267  0.17760  0.78238  Biso   1.000  C
  C118     1.0000 0.72504  0.12050  0.81366  Biso   1.000  C
  H77      1.0000 0.74510  0.14450  0.83730  Biso   1.000  H
  C119     1.0000 0.71813  0.02800  0.81050  Biso   1.000  C
  H78      1.0000 0.73360  0.98900  0.83240  Biso   1.000  H
  N41      1.0000 0.69033  0.99120  0.77750  Biso   1.000  N
  C120     1.0000 0.66909  0.04650  0.74770  Biso   1.000  C
  H79      1.0000 0.64920  0.02090  0.72440  Biso   1.000  H
  C121     1.0000 0.67413  0.13880  0.74840  Biso   1.000  C
  H80      1.0000 0.65820  0.17590  0.72590  Biso   1.000  H
  C122     1.0000 0.67113  0.46380  0.70758  Biso   1.000  C
  C123     1.0000 0.67546  0.55710  0.70376  Biso   1.000  C
  H81      1.0000 0.69500  0.58930  0.72490  Biso   1.000  H
  C124     1.0000 0.65087  0.60260  0.66868  Biso   1.000  C
  H82      1.0000 0.65380  0.66670  0.66630  Biso   1.000  H
  N42      1.0000 0.62335  0.56030  0.63822  Biso   1.000  N
  C125     1.0000 0.62036  0.47000  0.64088  Biso   1.000  C
  H83      1.0000 0.60140  0.43910  0.61850  Biso   1.000  H
  C126     1.0000 0.64385  0.41990  0.67508  Biso   1.000  C
  H84      1.0000 0.64110  0.35550  0.67600  Biso   1.000  H
  N43      1.0000 0.56164  0.53650  0.54546  Biso   1.000  N
  C127     1.0000 0.53554  0.47200  0.55211  Biso   1.000  C
  H85      1.0000 0.52110  0.48040  0.57560  Biso   1.000  H
  C128     1.0000 0.52898  0.39430  0.52611  Biso   1.000  C
  H86      1.0000 0.51050  0.34960  0.53180  Biso   1.000  H
  C129     1.0000 0.54975  0.38210  0.49131  Biso   1.000  C
  C130     1.0000 0.57509  0.45140  0.48306  Biso   1.000  C
  H87      1.0000 0.58860  0.44720  0.45850  Biso   1.000  H
  C131     1.0000 0.58027  0.52640  0.51131  Biso   1.000  C
  H88      1.0000 0.59800  0.57300  0.50600  Biso   1.000  H
  C132     1.0000 0.54571  0.29790  0.46406  Biso   1.000  C
  N44      1.0000 0.51838  0.23720  0.47071  Biso   1.000  N
  C133     1.0000 0.51457  0.16540  0.44311  Biso   1.000  C
  N45      1.0000 0.53636  0.14930  0.41207  Biso   1.000  N
  C134     1.0000 0.56448  0.21140  0.41021  Biso   1.000  C
  N46      1.0000 0.56982  0.28850  0.43498  Biso   1.000  N
  C135     1.0000 0.48262  0.09850  0.44629  Biso   1.000  C
  C136     1.0000 0.46576  0.09410  0.48348  Biso   1.000  C
  H89      1.0000 0.47430  0.13420  0.50830  Biso   1.000  H
  C137     1.0000 0.43622  0.03130  0.48470  Biso   1.000  C
  H90      1.0000 0.42510  0.02800  0.51110  Biso   1.000  H
  N47      1.0000 0.42252  0.97480  0.45072  Biso   1.000  N
  C138     1.0000 0.43913  0.97960  0.41430  Biso   1.000  C
  H91      1.0000 0.42980  0.93940  0.38980  Biso   1.000  H
  C139     1.0000 0.46885  0.03950  0.41070  Biso   1.000  C
  H92      1.0000 0.47990  0.04070  0.38430  Biso   1.000  H
  C140     1.0000 0.59166  0.19530  0.37871  Biso   1.000  C
  C141     1.0000 0.62721  0.24100  0.38320  Biso   1.000  C
  H93      1.0000 0.63470  0.28470  0.40670  Biso   1.000  H
  C142     1.0000 0.65208  0.22330  0.35350  Biso   1.000  C
  H94      1.0000 0.67680  0.25480  0.35730  Biso   1.000  H
  N48      1.0000 0.64266  0.16360  0.31971  Biso   1.000  N
  C143     1.0000 0.60860  0.11920  0.31590  Biso   1.000  C
  H95      1.0000 0.60170  0.07610  0.29210  Biso   1.000  H
  C144     1.0000 0.58249  0.13220  0.34460  Biso   1.000  C
  H96      1.0000 0.55850  0.09790  0.34080  Biso   1.000  H
  Br34     1.0000 0.88560  0.75230  0.92100  Biso   1.000  Br
  Zn16     1.0000 0.67330  0.85330  0.76760  Biso   1.000  Zn
  Br35     1.0000 0.63003  0.84140  0.69660  Biso   1.000  Br
  Br36     1.0000 0.72931  0.76070  0.78906  Biso   1.000  Br
  Zn17     1.0000 0.62536  0.88897  0.04975  Biso   1.000  Zn
  Br37     1.0000 0.61178  0.75280  0.08460  Biso   1.000  Br
  Br38     1.0000 0.64196  0.90173  0.97930  Biso   1.000  Br
  Zn18     1.0000 0.81890  0.64640  0.22300  Biso   1.000  Zn
  Br39     1.0000 0.86030  0.66810  0.29430  Biso   1.000  Br
  Br40     1.0000 0.76100  0.73170  0.19730  Biso   1.000  Br
  Zn19     1.0000 0.91922  0.86411  0.40574  Biso   1.000  Zn
  Br41     1.0000 0.88497  0.75518  0.43917  Biso   1.000  Br
  Br42     1.0000 0.97114  0.84279  0.36692  Biso   1.000  Br
  N49      1.0000 0.66871  0.95620  0.09565  Biso   1.000  N
  C145     1.0000 0.67206  0.04640  0.09404  Biso   1.000  C
  H97      1.0000 0.65420  0.07890  0.07120  Biso   1.000  H
  C146     1.0000 0.70021  0.09460  0.12393  Biso   1.000  C
  H98      1.0000 0.70130  0.15910  0.12210  Biso   1.000  H
  C147     1.0000 0.72685  0.04800  0.15663  Biso   1.000  C
  C148     1.0000 0.72382  0.95370  0.15785  Biso   1.000  C
  H99      1.0000 0.74190  0.91940  0.17970  Biso   1.000  H
  C149     1.0000 0.69450  0.91070  0.12724  Biso   1.000  C
  H100     1.0000 0.69240  0.84620  0.12850  Biso   1.000  H
  C150     1.0000 0.75736  0.09590  0.19093  Biso   1.000  C
  N50      1.0000 0.76250  0.18510  0.18586  Biso   1.000  N
  C151     1.0000 0.79079  0.22230  0.21764  Biso   1.000  C
  N51      1.0000 0.81406  0.17650  0.25140  Biso   1.000  N
  C152     1.0000 0.80543  0.08880  0.25368  Biso   1.000  C
  N52      1.0000 0.77671  0.04460  0.22468  Biso   1.000  N
  C153     1.0000 0.79733  0.32240  0.21762  Biso   1.000  C
  C154     1.0000 0.77496  0.37950  0.18634  Biso   1.000  C
  H101     1.0000 0.75490  0.35550  0.16270  Biso   1.000  H
  C155     1.0000 0.78187  0.47200  0.18950  Biso   1.000  C
  H102     1.0000 0.76640  0.51100  0.16760  Biso   1.000  H
  N53      1.0000 0.80967  0.50880  0.22250  Biso   1.000  N
  C156     1.0000 0.83091  0.45350  0.25230  Biso   1.000  C
  H103     1.0000 0.85080  0.47910  0.27560  Biso   1.000  H
  C157     1.0000 0.82587  0.36120  0.25160  Biso   1.000  C
  H104     1.0000 0.84180  0.32410  0.27410  Biso   1.000  H
  C158     1.0000 0.82887  0.03620  0.29242  Biso   1.000  C
  C159     1.0000 0.82454  0.94290  0.29624  Biso   1.000  C
  H105     1.0000 0.80500  0.91070  0.27510  Biso   1.000  H
  C160     1.0000 0.84913  0.89740  0.33132  Biso   1.000  C
  H106     1.0000 0.84620  0.83330  0.33370  Biso   1.000  H
  N54      1.0000 0.87665  0.93970  0.36178  Biso   1.000  N
  C161     1.0000 0.87964  0.03000  0.35912  Biso   1.000  C
  H107     1.0000 0.89860  0.06090  0.38150  Biso   1.000  H
  C162     1.0000 0.85615  0.08010  0.32492  Biso   1.000  C
  H108     1.0000 0.85890  0.14450  0.32400  Biso   1.000  H
  N55      1.0000 0.93836  0.96350  0.45454  Biso   1.000  N
  C163     1.0000 0.96446  0.02800  0.44789  Biso   1.000  C
  H109     1.0000 0.97890  0.01960  0.42440  Biso   1.000  H
  C164     1.0000 0.97102  0.10570  0.47389  Biso   1.000  C
  H110     1.0000 0.98950  0.15040  0.46820  Biso   1.000  H
  C165     1.0000 0.95025  0.11790  0.50869  Biso   1.000  C
  C166     1.0000 0.92491  0.04860  0.51694  Biso   1.000  C
  H111     1.0000 0.91140  0.05280  0.54150  Biso   1.000  H
  C167     1.0000 0.91973  0.97360  0.48869  Biso   1.000  C
  H112     1.0000 0.90200  0.92700  0.49400  Biso   1.000  H
  C168     1.0000 0.95429  0.20210  0.53594  Biso   1.000  C
  N56      1.0000 0.98162  0.26280  0.52929  Biso   1.000  N
  C169     1.0000 0.98543  0.33460  0.55689  Biso   1.000  C
  N57      1.0000 0.96364  0.35070  0.58793  Biso   1.000  N
  C170     1.0000 0.93552  0.28860  0.58979  Biso   1.000  C
  N58      1.0000 0.93018  0.21150  0.56502  Biso   1.000  N
  C171     1.0000 0.01738  0.40150  0.55371  Biso   1.000  C
  C172     1.0000 0.03424  0.40590  0.51652  Biso   1.000  C
  H113     1.0000 0.02570  0.36580  0.49170  Biso   1.000  H
  C173     1.0000 0.06378  0.46870  0.51530  Biso   1.000  C
  H114     1.0000 0.07490  0.47200  0.48890  Biso   1.000  H
  N59      1.0000 0.07748  0.52520  0.54928  Biso   1.000  N
  C174     1.0000 0.06087  0.52040  0.58570  Biso   1.000  C
  H115     1.0000 0.07020  0.56060  0.61020  Biso   1.000  H
  C175     1.0000 0.03115  0.46050  0.58930  Biso   1.000  C
  H116     1.0000 0.02010  0.45930  0.61570  Biso   1.000  H
  C176     1.0000 0.90834  0.30470  0.62129  Biso   1.000  C
  C177     1.0000 0.87279  0.25900  0.61680  Biso   1.000  C
  H117     1.0000 0.86530  0.21530  0.59330  Biso   1.000  H
  C178     1.0000 0.84792  0.27670  0.64650  Biso   1.000  C
  H118     1.0000 0.82320  0.24520  0.64270  Biso   1.000  H
  N60      1.0000 0.85734  0.33640  0.68029  Biso   1.000  N
  C179     1.0000 0.89140  0.38080  0.68410  Biso   1.000  C
  H119     1.0000 0.89830  0.42390  0.70790  Biso   1.000  H
  C180     1.0000 0.91751  0.36780  0.65540  Biso   1.000  C
  H120     1.0000 0.94150  0.40210  0.65920  Biso   1.000  H
  Br43     1.0000 0.61440  0.74770  0.07900  Biso   1.000  Br
  Zn20     1.0000 0.82670  0.64670  0.23240  Biso   1.000  Zn
  Br44     1.0000 0.86997  0.65860  0.30340  Biso   1.000  Br
  Br45     1.0000 0.77069  0.73930  0.21094  Biso   1.000  Br
  Zn21     1.0000 0.12536  0.38897  0.04975  Biso   1.000  Zn
  Br46     1.0000 0.11178  0.25280  0.08460  Biso   1.000  Br
  Br47     1.0000 0.14196  0.40173  0.97930  Biso   1.000  Br
  Zn22     1.0000 0.31890  0.14640  0.22300  Biso   1.000  Zn
  Br48     1.0000 0.36030  0.16810  0.29430  Biso   1.000  Br
  Br49     1.0000 0.26100  0.23170  0.19730  Biso   1.000  Br
  Zn23     1.0000 0.41922  0.36411  0.40574  Biso   1.000  Zn
  Br50     1.0000 0.38497  0.25518  0.43917  Biso   1.000  Br
  Br51     1.0000 0.47114  0.34279  0.36692  Biso   1.000  Br
  N61      1.0000 0.16871  0.45620  0.09565  Biso   1.000  N
  C181     1.0000 0.17206  0.54640  0.09404  Biso   1.000  C
  H121     1.0000 0.15420  0.57890  0.07120  Biso   1.000  H
  C182     1.0000 0.20021  0.59460  0.12393  Biso   1.000  C
  H122     1.0000 0.20130  0.65910  0.12210  Biso   1.000  H
  C183     1.0000 0.22685  0.54800  0.15663  Biso   1.000  C
  C184     1.0000 0.22382  0.45370  0.15785  Biso   1.000  C
  H123     1.0000 0.24190  0.41940  0.17970  Biso   1.000  H
  C185     1.0000 0.19450  0.41070  0.12724  Biso   1.000  C
  H124     1.0000 0.19240  0.34620  0.12850  Biso   1.000  H
  C186     1.0000 0.25736  0.59590  0.19093  Biso   1.000  C
  N62      1.0000 0.26250  0.68510  0.18586  Biso   1.000  N
  C187     1.0000 0.29079  0.72230  0.21764  Biso   1.000  C
  N63      1.0000 0.31406  0.67650  0.25140  Biso   1.000  N
  C188     1.0000 0.30543  0.58880  0.25368  Biso   1.000  C
  N64      1.0000 0.27671  0.54460  0.22468  Biso   1.000  N
  C189     1.0000 0.29733  0.82240  0.21762  Biso   1.000  C
  C190     1.0000 0.27496  0.87950  0.18634  Biso   1.000  C
  H125     1.0000 0.25490  0.85550  0.16270  Biso   1.000  H
  C191     1.0000 0.28187  0.97200  0.18950  Biso   1.000  C
  H126     1.0000 0.26640  0.01100  0.16760  Biso   1.000  H
  N65      1.0000 0.30967  0.00880  0.22250  Biso   1.000  N
  C192     1.0000 0.33091  0.95350  0.25230  Biso   1.000  C
  H127     1.0000 0.35080  0.97910  0.27560  Biso   1.000  H
  C193     1.0000 0.32587  0.86120  0.25160  Biso   1.000  C
  H128     1.0000 0.34180  0.82410  0.27410  Biso   1.000  H
  C194     1.0000 0.32887  0.53620  0.29242  Biso   1.000  C
  C195     1.0000 0.32454  0.44290  0.29624  Biso   1.000  C
  H129     1.0000 0.30500  0.41070  0.27510  Biso   1.000  H
  C196     1.0000 0.34913  0.39740  0.33132  Biso   1.000  C
  H130     1.0000 0.34620  0.33330  0.33370  Biso   1.000  H
  N66      1.0000 0.37665  0.43970  0.36178  Biso   1.000  N
  C197     1.0000 0.37964  0.53000  0.35912  Biso   1.000  C
  H131     1.0000 0.39860  0.56090  0.38150  Biso   1.000  H
  C198     1.0000 0.35615  0.58010  0.32492  Biso   1.000  C
  H132     1.0000 0.35890  0.64450  0.32400  Biso   1.000  H
  N67      1.0000 0.43836  0.46350  0.45454  Biso   1.000  N
  C199     1.0000 0.46446  0.52800  0.44789  Biso   1.000  C
  H133     1.0000 0.47890  0.51960  0.42440  Biso   1.000  H
  C200     1.0000 0.47102  0.60570  0.47389  Biso   1.000  C
  H134     1.0000 0.48950  0.65040  0.46820  Biso   1.000  H
  C201     1.0000 0.45025  0.61790  0.50869  Biso   1.000  C
  C202     1.0000 0.42491  0.54860  0.51694  Biso   1.000  C
  H135     1.0000 0.41140  0.55280  0.54150  Biso   1.000  H
  C203     1.0000 0.41973  0.47360  0.48869  Biso   1.000  C
  H136     1.0000 0.40200  0.42700  0.49400  Biso   1.000  H
  C204     1.0000 0.45429  0.70210  0.53594  Biso   1.000  C
  N68      1.0000 0.48162  0.76280  0.52929  Biso   1.000  N
  C205     1.0000 0.48543  0.83460  0.55689  Biso   1.000  C
  N69      1.0000 0.46364  0.85070  0.58793  Biso   1.000  N
  C206     1.0000 0.43552  0.78860  0.58979  Biso   1.000  C
  N70      1.0000 0.43018  0.71150  0.56502  Biso   1.000  N
  C207     1.0000 0.51738  0.90150  0.55371  Biso   1.000  C
  C208     1.0000 0.53424  0.90590  0.51652  Biso   1.000  C
  H137     1.0000 0.52570  0.86580  0.49170  Biso   1.000  H
  C209     1.0000 0.56378  0.96870  0.51530  Biso   1.000  C
  H138     1.0000 0.57490  0.97200  0.48890  Biso   1.000  H
  N71      1.0000 0.57748  0.02520  0.54928  Biso   1.000  N
  C210     1.0000 0.56087  0.02040  0.58570  Biso   1.000  C
  H139     1.0000 0.57020  0.06060  0.61020  Biso   1.000  H
  C211     1.0000 0.53115  0.96050  0.58930  Biso   1.000  C
  H140     1.0000 0.52010  0.95930  0.61570  Biso   1.000  H
  C212     1.0000 0.40834  0.80470  0.62129  Biso   1.000  C
  C213     1.0000 0.37279  0.75900  0.61680  Biso   1.000  C
  H141     1.0000 0.36530  0.71530  0.59330  Biso   1.000  H
  C214     1.0000 0.34792  0.77670  0.64650  Biso   1.000  C
  H142     1.0000 0.32320  0.74520  0.64270  Biso   1.000  H
  N72      1.0000 0.35734  0.83640  0.68029  Biso   1.000  N
  C215     1.0000 0.39140  0.88080  0.68410  Biso   1.000  C
  H143     1.0000 0.39830  0.92390  0.70790  Biso   1.000  H
  C216     1.0000 0.41751  0.86780  0.65540  Biso   1.000  C
  H144     1.0000 0.44150  0.90210  0.65920  Biso   1.000  H
  Br52     1.0000 0.11440  0.24770  0.07900  Biso   1.000  Br
  Zn24     1.0000 0.32670  0.14670  0.23240  Biso   1.000  Zn
  Br53     1.0000 0.36997  0.15860  0.30340  Biso   1.000  Br
  Br54     1.0000 0.27069  0.23930  0.21094  Biso   1.000  Br
  Zn25     1.0000 0.62536  0.11103  0.54975  Biso   1.000  Zn
  Br55     1.0000 0.61178  0.24720  0.58460  Biso   1.000  Br
  Br56     1.0000 0.64196  0.09827  0.47930  Biso   1.000  Br
  Zn26     1.0000 0.81890  0.35360  0.72300  Biso   1.000  Zn
  Br57     1.0000 0.86030  0.33190  0.79430  Biso   1.000  Br
  Br58     1.0000 0.76100  0.26830  0.69730  Biso   1.000  Br
  Zn27     1.0000 0.91922  0.13589  0.90574  Biso   1.000  Zn
  Br59     1.0000 0.88497  0.24482  0.93917  Biso   1.000  Br
  Br60     1.0000 0.97114  0.15721  0.86692  Biso   1.000  Br
  N73      1.0000 0.66871  0.04380  0.59565  Biso   1.000  N
  C217     1.0000 0.67206  0.95360  0.59404  Biso   1.000  C
  H145     1.0000 0.65420  0.92110  0.57120  Biso   1.000  H
  C218     1.0000 0.70021  0.90540  0.62393  Biso   1.000  C
  H146     1.0000 0.70130  0.84090  0.62210  Biso   1.000  H
  C219     1.0000 0.72685  0.95200  0.65663  Biso   1.000  C
  C220     1.0000 0.72382  0.04630  0.65785  Biso   1.000  C
  H147     1.0000 0.74190  0.08060  0.67970  Biso   1.000  H
  C221     1.0000 0.69450  0.08930  0.62724  Biso   1.000  C
  H148     1.0000 0.69240  0.15380  0.62850  Biso   1.000  H
  C222     1.0000 0.75736  0.90410  0.69093  Biso   1.000  C
  N74      1.0000 0.76250  0.81490  0.68586  Biso   1.000  N
  C223     1.0000 0.79079  0.77770  0.71764  Biso   1.000  C
  N75      1.0000 0.81406  0.82350  0.75140  Biso   1.000  N
  C224     1.0000 0.80543  0.91120  0.75368  Biso   1.000  C
  N76      1.0000 0.77671  0.95540  0.72468  Biso   1.000  N
  C225     1.0000 0.79733  0.67760  0.71762  Biso   1.000  C
  C226     1.0000 0.77496  0.62050  0.68634  Biso   1.000  C
  H149     1.0000 0.75490  0.64450  0.66270  Biso   1.000  H
  C227     1.0000 0.78187  0.52800  0.68950  Biso   1.000  C
  H150     1.0000 0.76640  0.48900  0.66760  Biso   1.000  H
  N77      1.0000 0.80967  0.49120  0.72250  Biso   1.000  N
  C228     1.0000 0.83091  0.54650  0.75230  Biso   1.000  C
  H151     1.0000 0.85080  0.52090  0.77560  Biso   1.000  H
  C229     1.0000 0.82587  0.63880  0.75160  Biso   1.000  C
  H152     1.0000 0.84180  0.67590  0.77410  Biso   1.000  H
  C230     1.0000 0.82887  0.96380  0.79242  Biso   1.000  C
  C231     1.0000 0.82454  0.05710  0.79624  Biso   1.000  C
  H153     1.0000 0.80500  0.08930  0.77510  Biso   1.000  H
  C232     1.0000 0.84913  0.10260  0.83132  Biso   1.000  C
  H154     1.0000 0.84620  0.16670  0.83370  Biso   1.000  H
  N78      1.0000 0.87665  0.06030  0.86178  Biso   1.000  N
  C233     1.0000 0.87964  0.97000  0.85912  Biso   1.000  C
  H155     1.0000 0.89860  0.93910  0.88150  Biso   1.000  H
  C234     1.0000 0.85615  0.91990  0.82492  Biso   1.000  C
  H156     1.0000 0.85890  0.85550  0.82400  Biso   1.000  H
  N79      1.0000 0.93836  0.03650  0.95454  Biso   1.000  N
  C235     1.0000 0.96446  0.97200  0.94789  Biso   1.000  C
  H157     1.0000 0.97890  0.98040  0.92440  Biso   1.000  H
  C236     1.0000 0.97102  0.89430  0.97389  Biso   1.000  C
  H158     1.0000 0.98950  0.84960  0.96820  Biso   1.000  H
  C237     1.0000 0.95025  0.88210  0.00869  Biso   1.000  C
  C238     1.0000 0.92491  0.95140  0.01694  Biso   1.000  C
  H159     1.0000 0.91140  0.94720  0.04150  Biso   1.000  H
  C239     1.0000 0.91973  0.02640  0.98869  Biso   1.000  C
  H160     1.0000 0.90200  0.07300  0.99400  Biso   1.000  H
  C240     1.0000 0.95429  0.79790  0.03594  Biso   1.000  C
  N80      1.0000 0.98162  0.73720  0.02929  Biso   1.000  N
  C241     1.0000 0.98543  0.66540  0.05689  Biso   1.000  C
  N81      1.0000 0.96364  0.64930  0.08793  Biso   1.000  N
  C242     1.0000 0.93552  0.71140  0.08979  Biso   1.000  C
  N82      1.0000 0.93018  0.78850  0.06502  Biso   1.000  N
  C243     1.0000 0.01738  0.59850  0.05371  Biso   1.000  C
  C244     1.0000 0.03424  0.59410  0.01652  Biso   1.000  C
  H161     1.0000 0.02570  0.63420  0.99170  Biso   1.000  H
  C245     1.0000 0.06378  0.53130  0.01530  Biso   1.000  C
  H162     1.0000 0.07490  0.52800  0.98890  Biso   1.000  H
  N83      1.0000 0.07748  0.47480  0.04928  Biso   1.000  N
  C246     1.0000 0.06087  0.47960  0.08570  Biso   1.000  C
  H163     1.0000 0.07020  0.43940  0.11020  Biso   1.000  H
  C247     1.0000 0.03115  0.53950  0.08930  Biso   1.000  C
  H164     1.0000 0.02010  0.54070  0.11570  Biso   1.000  H
  C248     1.0000 0.90834  0.69530  0.12129  Biso   1.000  C
  C249     1.0000 0.87279  0.74100  0.11680  Biso   1.000  C
  H165     1.0000 0.86530  0.78470  0.09330  Biso   1.000  H
  C250     1.0000 0.84792  0.72330  0.14650  Biso   1.000  C
  H166     1.0000 0.82320  0.75480  0.14270  Biso   1.000  H
  N84      1.0000 0.85734  0.66360  0.18029  Biso   1.000  N
  C251     1.0000 0.89140  0.61920  0.18410  Biso   1.000  C
  H167     1.0000 0.89830  0.57610  0.20790  Biso   1.000  H
  C252     1.0000 0.91751  0.63220  0.15540  Biso   1.000  C
  H168     1.0000 0.94150  0.59790  0.15920  Biso   1.000  H
  Br61     1.0000 0.61440  0.25230  0.57900  Biso   1.000  Br
  Zn28     1.0000 0.82670  0.35330  0.73240  Biso   1.000  Zn
  Br62     1.0000 0.86997  0.34140  0.80340  Biso   1.000  Br
  Br63     1.0000 0.77069  0.26070  0.71094  Biso   1.000  Br
  Zn29     1.0000 0.12536  0.61103  0.54975  Biso   1.000  Zn
  Br64     1.0000 0.11178  0.74720  0.58460  Biso   1.000  Br
  Br65     1.0000 0.14196  0.59827  0.47930  Biso   1.000  Br
  Zn30     1.0000 0.31890  0.85360  0.72300  Biso   1.000  Zn
  Br66     1.0000 0.36030  0.83190  0.79430  Biso   1.000  Br
  Br67     1.0000 0.26100  0.76830  0.69730  Biso   1.000  Br
  Zn31     1.0000 0.41922  0.63589  0.90574  Biso   1.000  Zn
  Br68     1.0000 0.38497  0.74482  0.93917  Biso   1.000  Br
  Br69     1.0000 0.47114  0.65721  0.86692  Biso   1.000  Br
  N85      1.0000 0.16871  0.54380  0.59565  Biso   1.000  N
  C253     1.0000 0.17206  0.45360  0.59404  Biso   1.000  C
  H169     1.0000 0.15420  0.42110  0.57120  Biso   1.000  H
  C254     1.0000 0.20021  0.40540  0.62393  Biso   1.000  C
  H170     1.0000 0.20130  0.34090  0.62210  Biso   1.000  H
  C255     1.0000 0.22685  0.45200  0.65663  Biso   1.000  C
  C256     1.0000 0.22382  0.54630  0.65785  Biso   1.000  C
  H171     1.0000 0.24190  0.58060  0.67970  Biso   1.000  H
  C257     1.0000 0.19450  0.58930  0.62724  Biso   1.000  C
  H172     1.0000 0.19240  0.65380  0.62850  Biso   1.000  H
  C258     1.0000 0.25736  0.40410  0.69093  Biso   1.000  C
  N86      1.0000 0.26250  0.31490  0.68586  Biso   1.000  N
  C259     1.0000 0.29079  0.27770  0.71764  Biso   1.000  C
  N87      1.0000 0.31406  0.32350  0.75140  Biso   1.000  N
  C260     1.0000 0.30543  0.41120  0.75368  Biso   1.000  C
  N88      1.0000 0.27671  0.45540  0.72468  Biso   1.000  N
  C261     1.0000 0.29733  0.17760  0.71762  Biso   1.000  C
  C262     1.0000 0.27496  0.12050  0.68634  Biso   1.000  C
  H173     1.0000 0.25490  0.14450  0.66270  Biso   1.000  H
  C263     1.0000 0.28187  0.02800  0.68950  Biso   1.000  C
  H174     1.0000 0.26640  0.98900  0.66760  Biso   1.000  H
  N89      1.0000 0.30967  0.99120  0.72250  Biso   1.000  N
  C264     1.0000 0.33091  0.04650  0.75230  Biso   1.000  C
  H175     1.0000 0.35080  0.02090  0.77560  Biso   1.000  H
  C265     1.0000 0.32587  0.13880  0.75160  Biso   1.000  C
  H176     1.0000 0.34180  0.17590  0.77410  Biso   1.000  H
  C266     1.0000 0.32887  0.46380  0.79242  Biso   1.000  C
  C267     1.0000 0.32454  0.55710  0.79624  Biso   1.000  C
  H177     1.0000 0.30500  0.58930  0.77510  Biso   1.000  H
  C268     1.0000 0.34913  0.60260  0.83132  Biso   1.000  C
  H178     1.0000 0.34620  0.66670  0.83370  Biso   1.000  H
  N90      1.0000 0.37665  0.56030  0.86178  Biso   1.000  N
  C269     1.0000 0.37964  0.47000  0.85912  Biso   1.000  C
  H179     1.0000 0.39860  0.43910  0.88150  Biso   1.000  H
  C270     1.0000 0.35615  0.41990  0.82492  Biso   1.000  C
  H180     1.0000 0.35890  0.35550  0.82400  Biso   1.000  H
  N91      1.0000 0.43836  0.53650  0.95454  Biso   1.000  N
  C271     1.0000 0.46446  0.47200  0.94789  Biso   1.000  C
  H181     1.0000 0.47890  0.48040  0.92440  Biso   1.000  H
  C272     1.0000 0.47102  0.39430  0.97389  Biso   1.000  C
  H182     1.0000 0.48950  0.34960  0.96820  Biso   1.000  H
  C273     1.0000 0.45025  0.38210  0.00869  Biso   1.000  C
  C274     1.0000 0.42491  0.45140  0.01694  Biso   1.000  C
  H183     1.0000 0.41140  0.44720  0.04150  Biso   1.000  H
  C275     1.0000 0.41973  0.52640  0.98869  Biso   1.000  C
  H184     1.0000 0.40200  0.57300  0.99400  Biso   1.000  H
  C276     1.0000 0.45429  0.29790  0.03594  Biso   1.000  C
  N92      1.0000 0.48162  0.23720  0.02929  Biso   1.000  N
  C277     1.0000 0.48543  0.16540  0.05689  Biso   1.000  C
  N93      1.0000 0.46364  0.14930  0.08793  Biso   1.000  N
  C278     1.0000 0.43552  0.21140  0.08979  Biso   1.000  C
  N94      1.0000 0.43018  0.28850  0.06502  Biso   1.000  N
  C279     1.0000 0.51738  0.09850  0.05371  Biso   1.000  C
  C280     1.0000 0.53424  0.09410  0.01652  Biso   1.000  C
  H185     1.0000 0.52570  0.13420  0.99170  Biso   1.000  H
  C281     1.0000 0.56378  0.03130  0.01530  Biso   1.000  C
  H186     1.0000 0.57490  0.02800  0.98890  Biso   1.000  H
  N95      1.0000 0.57748  0.97480  0.04928  Biso   1.000  N
  C282     1.0000 0.56087  0.97960  0.08570  Biso   1.000  C
  H187     1.0000 0.57020  0.93940  0.11020  Biso   1.000  H
  C283     1.0000 0.53115  0.03950  0.08930  Biso   1.000  C
  H188     1.0000 0.52010  0.04070  0.11570  Biso   1.000  H
  C284     1.0000 0.40834  0.19530  0.12129  Biso   1.000  C
  C285     1.0000 0.37279  0.24100  0.11680  Biso   1.000  C
  H189     1.0000 0.36530  0.28470  0.09330  Biso   1.000  H
  C286     1.0000 0.34792  0.22330  0.14650  Biso   1.000  C
  H190     1.0000 0.32320  0.25480  0.14270  Biso   1.000  H
  N96      1.0000 0.35734  0.16360  0.18029  Biso   1.000  N
  C287     1.0000 0.39140  0.11920  0.18410  Biso   1.000  C
  H191     1.0000 0.39830  0.07610  0.20790  Biso   1.000  H
  C288     1.0000 0.41751  0.13220  0.15540  Biso   1.000  C
  H192     1.0000 0.44150  0.09790  0.15920  Biso   1.000  H
  Br70     1.0000 0.11440  0.75230  0.57900  Biso   1.000  Br
  Zn32     1.0000 0.32670  0.85330  0.73240  Biso   1.000  Zn
  Br71     1.0000 0.36997  0.84140  0.80340  Biso   1.000  Br
  Br72     1.0000 0.27069  0.76070  0.71094  Biso   1.000  Br
