data_image0
_cell_length_a       38.059
_cell_length_b       14.2182
_cell_length_c       34.848
_cell_angle_alpha    90
_cell_angle_beta     110.753
_cell_angle_gamma    90

_symmetry_space_group_name_H-M    "P 1"
_symmetry_int_tables_number       1

loop_
  _symmetry_equiv_pos_as_xyz
  'x, y, z'

loop_
  _atom_site_label
  _atom_site_occupancy
  _atom_site_fract_x
  _atom_site_fract_y
  _atom_site_fract_z
  _atom_site_thermal_displace_type
  _atom_site_B_iso_or_equiv
  _atom_site_type_symbol
  Zn1      1.0000 0.12834  0.37680  0.07065  Biso   1.000  Zn
  Zn2      1.0000 0.89936  0.08698  0.92215  Biso   1.000  Zn
  Zn3      1.0000 0.16638  0.15363  0.27101  Biso   1.000  Zn
  I1       1.0000 0.18748  0.30740  0.06080  Biso   1.000  I
  I2       1.0000 0.07794  0.28180  0.07721  Biso   1.000  I
  I3       1.0000 0.22507  0.25642  0.29606  Biso   1.000  I
  I4       1.0000 0.12154  0.17351  0.19813  Biso   1.000  I
  I5       1.0000 0.89482  0.06620  0.99422  Biso   1.000  I
  I6       1.0000 0.90829  0.24446  0.89128  Biso   1.000  I
  N1       1.0000 0.10768  0.48350  0.02820  Biso   1.000  N
  C1       1.0000 0.08044  0.54070  0.02860  Biso   1.000  C
  H1       1.0000 0.06950  0.53080  0.04890  Biso   1.000  H
  C2       1.0000 0.06713  0.61280  0.00170  Biso   1.000  C
  H2       1.0000 0.04750  0.65200  0.00340  Biso   1.000  H
  C3       1.0000 0.08248  0.62820  0.97173  Biso   1.000  C
  C4       1.0000 0.10972  0.56680  0.97030  Biso   1.000  C
  H3       1.0000 0.12000  0.57280  0.94920  Biso   1.000  H
  C5       1.0000 0.12225  0.49620  0.99920  Biso   1.000  C
  H4       1.0000 0.14180  0.45560  0.99820  Biso   1.000  H
  C6       1.0000 0.07056  0.70680  0.94255  Biso   1.000  C
  N2       1.0000 0.04147  0.75890  0.94272  Biso   1.000  N
  C7       1.0000 0.03155  0.82760  0.91502  Biso   1.000  C
  N3       1.0000 0.04753  0.84460  0.88737  Biso   1.000  N
  C8       1.0000 0.07686  0.78980  0.89104  Biso   1.000  C
  N4       1.0000 0.08980  0.72070  0.91798  Biso   1.000  N
  C9       1.0000 0.00070  0.89000  0.91595  Biso   1.000  C
  C10      1.0000 0.99285  0.89780  0.95149  Biso   1.000  C
  H5       1.0000 0.00730  0.86410  0.97540  Biso   1.000  H
  C11      1.0000 0.96396  0.95470  0.95210  Biso   1.000  C
  H6       1.0000 0.95920  0.96060  0.97700  Biso   1.000  H
  N5       1.0000 0.94226  0.00250  0.91902  Biso   1.000  N
  C12      1.0000 0.94937  0.99420  0.88480  Biso   1.000  C
  H7       1.0000 0.93390  0.02720  0.86110  Biso   1.000  H
  C13      1.0000 0.97827  0.94000  0.88180  Biso   1.000  C
  H8       1.0000 0.98280  0.93680  0.85680  Biso   1.000  H
  C14      1.0000 0.09757  0.80590  0.86279  Biso   1.000  C
  C15      1.0000 0.13482  0.77980  0.87450  Biso   1.000  C
  H9       1.0000 0.14740  0.75300  0.90080  Biso   1.000  H
  C16      1.0000 0.15364  0.79330  0.84760  Biso   1.000  C
  H10      1.0000 0.17930  0.77520  0.85580  Biso   1.000  H
  N6       1.0000 0.13704  0.83070  0.81042  Biso   1.000  N
  C17      1.0000 0.10105  0.85560  0.79930  Biso   1.000  C
  H11      1.0000 0.08900  0.88140  0.77260  Biso   1.000  H
  C18      1.0000 0.08086  0.84590  0.82430  Biso   1.000  C
  H12      1.0000 0.05550  0.86640  0.81560  Biso   1.000  H
  N7       1.0000 0.15196  0.45070  0.12490  Biso   1.000  N
  C19      1.0000 0.16593  0.40200  0.15998  Biso   1.000  C
  H13      1.0000 0.16330  0.33550  0.15930  Biso   1.000  H
  C20      1.0000 0.18393  0.44550  0.19673  Biso   1.000  C
  H14      1.0000 0.19420  0.40950  0.22110  Biso   1.000  H
  C21      1.0000 0.18697  0.54290  0.19793  Biso   1.000  C
  C22      1.0000 0.17110  0.59230  0.16180  Biso   1.000  C
  H15      1.0000 0.17160  0.65910  0.16160  Biso   1.000  H
  C23      1.0000 0.15490  0.54330  0.12680  Biso   1.000  C
  H16      1.0000 0.14500  0.57760  0.10190  Biso   1.000  H
  C24      1.0000 0.20742  0.59510  0.23631  Biso   1.000  C
  N8       1.0000 0.23667  0.55300  0.26336  Biso   1.000  N
  C25      1.0000 0.25593  0.60760  0.29552  Biso   1.000  C
  N9       1.0000 0.24774  0.69630  0.30131  Biso   1.000  N
  C26      1.0000 0.21657  0.72900  0.27259  Biso   1.000  C
  N10      1.0000 0.19519  0.68180  0.23952  Biso   1.000  N
  C27      1.0000 0.20426  0.82630  0.27676  Biso   1.000  C
  C28      1.0000 0.22658  0.89040  0.30459  Biso   1.000  C
  H17      1.0000 0.25000  0.87090  0.32410  Biso   1.000  H
  C29      1.0000 0.21516  0.98200  0.30428  Biso   1.000  C
  H18      1.0000 0.23130  0.02530  0.32320  Biso   1.000  H
  N11      1.0000 0.18192  0.01250  0.27813  Biso   1.000  N
  C30      1.0000 0.15903  0.94920  0.25290  Biso   1.000  C
  H19      1.0000 0.13480  0.96890  0.23550  Biso   1.000  H
  C31      1.0000 0.16916  0.85720  0.25140  Biso   1.000  C
  H20      1.0000 0.15220  0.81460  0.23290  Biso   1.000  H
  C32      1.0000 0.28899  0.56280  0.32582  Biso   1.000  C
  C33      1.0000 0.31215  0.61060  0.36060  Biso   1.000  C
  H21      1.0000 0.30660  0.67340  0.36580  Biso   1.000  H
  C34      1.0000 0.34303  0.56490  0.38720  Biso   1.000  C
  H22      1.0000 0.35850  0.59740  0.41100  Biso   1.000  H
  N12      1.0000 0.35237  0.47670  0.38099  Biso   1.000  N
  C35      1.0000 0.32975  0.43160  0.34830  Biso   1.000  C
  H23      1.0000 0.33560  0.36840  0.34410  Biso   1.000  H
  C36      1.0000 0.29864  0.47100  0.32040  Biso   1.000  C
  H24      1.0000 0.28360  0.43590  0.29720  Biso   1.000  H
  I7       1.0000 0.17610  0.28760  0.05310  Biso   1.000  I
  I8       1.0000 0.06800  0.30170  0.07650  Biso   1.000  I
  I9       1.0000 0.89660  0.08350  0.98580  Biso   1.000  I
  I10      1.0000 0.90500  0.23760  0.88560  Biso   1.000  I
  Zn4      1.0000 0.62834  0.87680  0.07065  Biso   1.000  Zn
  Zn5      1.0000 0.39936  0.58698  0.92215  Biso   1.000  Zn
  Zn6      1.0000 0.66638  0.65363  0.27101  Biso   1.000  Zn
  I11      1.0000 0.68748  0.80740  0.06080  Biso   1.000  I
  I12      1.0000 0.57794  0.78180  0.07721  Biso   1.000  I
  I13      1.0000 0.72507  0.75642  0.29606  Biso   1.000  I
  I14      1.0000 0.62154  0.67351  0.19813  Biso   1.000  I
  I15      1.0000 0.39482  0.56620  0.99422  Biso   1.000  I
  I16      1.0000 0.40829  0.74446  0.89128  Biso   1.000  I
  N13      1.0000 0.60768  0.98350  0.02820  Biso   1.000  N
  C37      1.0000 0.58044  0.04070  0.02860  Biso   1.000  C
  H25      1.0000 0.56950  0.03080  0.04890  Biso   1.000  H
  C38      1.0000 0.56713  0.11280  0.00170  Biso   1.000  C
  H26      1.0000 0.54750  0.15200  0.00340  Biso   1.000  H
  C39      1.0000 0.58248  0.12820  0.97173  Biso   1.000  C
  C40      1.0000 0.60972  0.06680  0.97030  Biso   1.000  C
  H27      1.0000 0.62000  0.07280  0.94920  Biso   1.000  H
  C41      1.0000 0.62225  0.99620  0.99920  Biso   1.000  C
  H28      1.0000 0.64180  0.95560  0.99820  Biso   1.000  H
  C42      1.0000 0.57056  0.20680  0.94255  Biso   1.000  C
  N14      1.0000 0.54147  0.25890  0.94272  Biso   1.000  N
  C43      1.0000 0.53155  0.32760  0.91502  Biso   1.000  C
  N15      1.0000 0.54753  0.34460  0.88737  Biso   1.000  N
  C44      1.0000 0.57686  0.28980  0.89104  Biso   1.000  C
  N16      1.0000 0.58980  0.22070  0.91798  Biso   1.000  N
  C45      1.0000 0.50070  0.39000  0.91595  Biso   1.000  C
  C46      1.0000 0.49285  0.39780  0.95149  Biso   1.000  C
  H29      1.0000 0.50730  0.36410  0.97540  Biso   1.000  H
  C47      1.0000 0.46396  0.45470  0.95210  Biso   1.000  C
  H30      1.0000 0.45920  0.46060  0.97700  Biso   1.000  H
  N17      1.0000 0.44226  0.50250  0.91902  Biso   1.000  N
  C48      1.0000 0.44937  0.49420  0.88480  Biso   1.000  C
  H31      1.0000 0.43390  0.52720  0.86110  Biso   1.000  H
  C49      1.0000 0.47827  0.44000  0.88180  Biso   1.000  C
  H32      1.0000 0.48280  0.43680  0.85680  Biso   1.000  H
  C50      1.0000 0.59757  0.30590  0.86279  Biso   1.000  C
  C51      1.0000 0.63482  0.27980  0.87450  Biso   1.000  C
  H33      1.0000 0.64740  0.25300  0.90080  Biso   1.000  H
  C52      1.0000 0.65364  0.29330  0.84760  Biso   1.000  C
  H34      1.0000 0.67930  0.27520  0.85580  Biso   1.000  H
  N18      1.0000 0.63704  0.33070  0.81042  Biso   1.000  N
  C53      1.0000 0.60105  0.35560  0.79930  Biso   1.000  C
  H35      1.0000 0.58900  0.38140  0.77260  Biso   1.000  H
  C54      1.0000 0.58086  0.34590  0.82430  Biso   1.000  C
  H36      1.0000 0.55550  0.36640  0.81560  Biso   1.000  H
  N19      1.0000 0.65196  0.95070  0.12490  Biso   1.000  N
  C55      1.0000 0.66593  0.90200  0.15998  Biso   1.000  C
  H37      1.0000 0.66330  0.83550  0.15930  Biso   1.000  H
  C56      1.0000 0.68393  0.94550  0.19673  Biso   1.000  C
  H38      1.0000 0.69420  0.90950  0.22110  Biso   1.000  H
  C57      1.0000 0.68697  0.04290  0.19793  Biso   1.000  C
  C58      1.0000 0.67110  0.09230  0.16180  Biso   1.000  C
  H39      1.0000 0.67160  0.15910  0.16160  Biso   1.000  H
  C59      1.0000 0.65490  0.04330  0.12680  Biso   1.000  C
  H40      1.0000 0.64500  0.07760  0.10190  Biso   1.000  H
  C60      1.0000 0.70742  0.09510  0.23631  Biso   1.000  C
  N20      1.0000 0.73667  0.05300  0.26336  Biso   1.000  N
  C61      1.0000 0.75593  0.10760  0.29552  Biso   1.000  C
  N21      1.0000 0.74774  0.19630  0.30131  Biso   1.000  N
  C62      1.0000 0.71657  0.22900  0.27259  Biso   1.000  C
  N22      1.0000 0.69519  0.18180  0.23952  Biso   1.000  N
  C63      1.0000 0.70426  0.32630  0.27676  Biso   1.000  C
  C64      1.0000 0.72658  0.39040  0.30459  Biso   1.000  C
  H41      1.0000 0.75000  0.37090  0.32410  Biso   1.000  H
  C65      1.0000 0.71516  0.48200  0.30428  Biso   1.000  C
  H42      1.0000 0.73130  0.52530  0.32320  Biso   1.000  H
  N23      1.0000 0.68192  0.51250  0.27813  Biso   1.000  N
  C66      1.0000 0.65903  0.44920  0.25290  Biso   1.000  C
  H43      1.0000 0.63480  0.46890  0.23550  Biso   1.000  H
  C67      1.0000 0.66916  0.35720  0.25140  Biso   1.000  C
  H44      1.0000 0.65220  0.31460  0.23290  Biso   1.000  H
  C68      1.0000 0.78899  0.06280  0.32582  Biso   1.000  C
  C69      1.0000 0.81215  0.11060  0.36060  Biso   1.000  C
  H45      1.0000 0.80660  0.17340  0.36580  Biso   1.000  H
  C70      1.0000 0.84303  0.06490  0.38720  Biso   1.000  C
  H46      1.0000 0.85850  0.09740  0.41100  Biso   1.000  H
  N24      1.0000 0.85237  0.97670  0.38099  Biso   1.000  N
  C71      1.0000 0.82975  0.93160  0.34830  Biso   1.000  C
  H47      1.0000 0.83560  0.86840  0.34410  Biso   1.000  H
  C72      1.0000 0.79864  0.97100  0.32040  Biso   1.000  C
  H48      1.0000 0.78360  0.93590  0.29720  Biso   1.000  H
  I17      1.0000 0.67610  0.78760  0.05310  Biso   1.000  I
  I18      1.0000 0.56800  0.80170  0.07650  Biso   1.000  I
  I19      1.0000 0.39660  0.58350  0.98580  Biso   1.000  I
  I20      1.0000 0.40500  0.73760  0.88560  Biso   1.000  I
  Zn7      1.0000 0.12834  0.62320  0.57065  Biso   1.000  Zn
  Zn8      1.0000 0.89936  0.91302  0.42215  Biso   1.000  Zn
  Zn9      1.0000 0.16638  0.84637  0.77101  Biso   1.000  Zn
  I21      1.0000 0.18748  0.69260  0.56080  Biso   1.000  I
  I22      1.0000 0.07794  0.71820  0.57721  Biso   1.000  I
  I23      1.0000 0.22507  0.74358  0.79606  Biso   1.000  I
  I24      1.0000 0.12154  0.82649  0.69813  Biso   1.000  I
  I25      1.0000 0.89482  0.93380  0.49422  Biso   1.000  I
  I26      1.0000 0.90829  0.75554  0.39128  Biso   1.000  I
  N25      1.0000 0.10768  0.51650  0.52820  Biso   1.000  N
  C73      1.0000 0.08044  0.45930  0.52860  Biso   1.000  C
  H49      1.0000 0.06950  0.46920  0.54890  Biso   1.000  H
  C74      1.0000 0.06713  0.38720  0.50170  Biso   1.000  C
  H50      1.0000 0.04750  0.34800  0.50340  Biso   1.000  H
  C75      1.0000 0.08248  0.37180  0.47173  Biso   1.000  C
  C76      1.0000 0.10972  0.43320  0.47030  Biso   1.000  C
  H51      1.0000 0.12000  0.42720  0.44920  Biso   1.000  H
  C77      1.0000 0.12225  0.50380  0.49920  Biso   1.000  C
  H52      1.0000 0.14180  0.54440  0.49820  Biso   1.000  H
  C78      1.0000 0.07056  0.29320  0.44255  Biso   1.000  C
  N26      1.0000 0.04147  0.24110  0.44272  Biso   1.000  N
  C79      1.0000 0.03155  0.17240  0.41502  Biso   1.000  C
  N27      1.0000 0.04753  0.15540  0.38737  Biso   1.000  N
  C80      1.0000 0.07686  0.21020  0.39104  Biso   1.000  C
  N28      1.0000 0.08980  0.27930  0.41798  Biso   1.000  N
  C81      1.0000 0.00070  0.11000  0.41595  Biso   1.000  C
  C82      1.0000 0.99285  0.10220  0.45149  Biso   1.000  C
  H53      1.0000 0.00730  0.13590  0.47540  Biso   1.000  H
  C83      1.0000 0.96396  0.04530  0.45210  Biso   1.000  C
  H54      1.0000 0.95920  0.03940  0.47700  Biso   1.000  H
  N29      1.0000 0.94226  0.99750  0.41902  Biso   1.000  N
  C84      1.0000 0.94937  0.00580  0.38480  Biso   1.000  C
  H55      1.0000 0.93390  0.97280  0.36110  Biso   1.000  H
  C85      1.0000 0.97827  0.06000  0.38180  Biso   1.000  C
  H56      1.0000 0.98280  0.06320  0.35680  Biso   1.000  H
  C86      1.0000 0.09757  0.19410  0.36279  Biso   1.000  C
  C87      1.0000 0.13482  0.22020  0.37450  Biso   1.000  C
  H57      1.0000 0.14740  0.24700  0.40080  Biso   1.000  H
  C88      1.0000 0.15364  0.20670  0.34760  Biso   1.000  C
  H58      1.0000 0.17930  0.22480  0.35580  Biso   1.000  H
  N30      1.0000 0.13704  0.16930  0.31042  Biso   1.000  N
  C89      1.0000 0.10105  0.14440  0.29930  Biso   1.000  C
  H59      1.0000 0.08900  0.11860  0.27260  Biso   1.000  H
  C90      1.0000 0.08086  0.15410  0.32430  Biso   1.000  C
  H60      1.0000 0.05550  0.13360  0.31560  Biso   1.000  H
  N31      1.0000 0.15196  0.54930  0.62490  Biso   1.000  N
  C91      1.0000 0.16593  0.59800  0.65998  Biso   1.000  C
  H61      1.0000 0.16330  0.66450  0.65930  Biso   1.000  H
  C92      1.0000 0.18393  0.55450  0.69673  Biso   1.000  C
  H62      1.0000 0.19420  0.59050  0.72110  Biso   1.000  H
  C93      1.0000 0.18697  0.45710  0.69793  Biso   1.000  C
  C94      1.0000 0.17110  0.40770  0.66180  Biso   1.000  C
  H63      1.0000 0.17160  0.34090  0.66160  Biso   1.000  H
  C95      1.0000 0.15490  0.45670  0.62680  Biso   1.000  C
  H64      1.0000 0.14500  0.42240  0.60190  Biso   1.000  H
  C96      1.0000 0.20742  0.40490  0.73631  Biso   1.000  C
  N32      1.0000 0.23667  0.44700  0.76336  Biso   1.000  N
  C97      1.0000 0.25593  0.39240  0.79552  Biso   1.000  C
  N33      1.0000 0.24774  0.30370  0.80131  Biso   1.000  N
  C98      1.0000 0.21657  0.27100  0.77259  Biso   1.000  C
  N34      1.0000 0.19519  0.31820  0.73952  Biso   1.000  N
  C99      1.0000 0.20426  0.17370  0.77676  Biso   1.000  C
  C100     1.0000 0.22658  0.10960  0.80459  Biso   1.000  C
  H65      1.0000 0.25000  0.12910  0.82410  Biso   1.000  H
  C101     1.0000 0.21516  0.01800  0.80428  Biso   1.000  C
  H66      1.0000 0.23130  0.97470  0.82320  Biso   1.000  H
  N35      1.0000 0.18192  0.98750  0.77813  Biso   1.000  N
  C102     1.0000 0.15903  0.05080  0.75290  Biso   1.000  C
  H67      1.0000 0.13480  0.03110  0.73550  Biso   1.000  H
  C103     1.0000 0.16916  0.14280  0.75140  Biso   1.000  C
  H68      1.0000 0.15220  0.18540  0.73290  Biso   1.000  H
  C104     1.0000 0.28899  0.43720  0.82582  Biso   1.000  C
  C105     1.0000 0.31215  0.38940  0.86060  Biso   1.000  C
  H69      1.0000 0.30660  0.32660  0.86580  Biso   1.000  H
  C106     1.0000 0.34303  0.43510  0.88720  Biso   1.000  C
  H70      1.0000 0.35850  0.40260  0.91100  Biso   1.000  H
  N36      1.0000 0.35237  0.52330  0.88099  Biso   1.000  N
  C107     1.0000 0.32975  0.56840  0.84830  Biso   1.000  C
  H71      1.0000 0.33560  0.63160  0.84410  Biso   1.000  H
  C108     1.0000 0.29864  0.52900  0.82040  Biso   1.000  C
  H72      1.0000 0.28360  0.56410  0.79720  Biso   1.000  H
  I27      1.0000 0.17610  0.71240  0.55310  Biso   1.000  I
  I28      1.0000 0.06800  0.69830  0.57650  Biso   1.000  I
  I29      1.0000 0.89660  0.91650  0.48580  Biso   1.000  I
  I30      1.0000 0.90500  0.76240  0.38560  Biso   1.000  I
  Zn10     1.0000 0.62834  0.12320  0.57065  Biso   1.000  Zn
  Zn11     1.0000 0.39936  0.41302  0.42215  Biso   1.000  Zn
  Zn12     1.0000 0.66638  0.34637  0.77101  Biso   1.000  Zn
  I31      1.0000 0.68748  0.19260  0.56080  Biso   1.000  I
  I32      1.0000 0.57794  0.21820  0.57721  Biso   1.000  I
  I33      1.0000 0.72507  0.24358  0.79606  Biso   1.000  I
  I34      1.0000 0.62154  0.32649  0.69813  Biso   1.000  I
  I35      1.0000 0.39482  0.43380  0.49422  Biso   1.000  I
  I36      1.0000 0.40829  0.25554  0.39128  Biso   1.000  I
  N37      1.0000 0.60768  0.01650  0.52820  Biso   1.000  N
  C109     1.0000 0.58044  0.95930  0.52860  Biso   1.000  C
  H73      1.0000 0.56950  0.96920  0.54890  Biso   1.000  H
  C110     1.0000 0.56713  0.88720  0.50170  Biso   1.000  C
  H74      1.0000 0.54750  0.84800  0.50340  Biso   1.000  H
  C111     1.0000 0.58248  0.87180  0.47173  Biso   1.000  C
  C112     1.0000 0.60972  0.93320  0.47030  Biso   1.000  C
  H75      1.0000 0.62000  0.92720  0.44920  Biso   1.000  H
  C113     1.0000 0.62225  0.00380  0.49920  Biso   1.000  C
  H76      1.0000 0.64180  0.04440  0.49820  Biso   1.000  H
  C114     1.0000 0.57056  0.79320  0.44255  Biso   1.000  C
  N38      1.0000 0.54147  0.74110  0.44272  Biso   1.000  N
  C115     1.0000 0.53155  0.67240  0.41502  Biso   1.000  C
  N39      1.0000 0.54753  0.65540  0.38737  Biso   1.000  N
  C116     1.0000 0.57686  0.71020  0.39104  Biso   1.000  C
  N40      1.0000 0.58980  0.77930  0.41798  Biso   1.000  N
  C117     1.0000 0.50070  0.61000  0.41595  Biso   1.000  C
  C118     1.0000 0.49285  0.60220  0.45149  Biso   1.000  C
  H77      1.0000 0.50730  0.63590  0.47540  Biso   1.000  H
  C119     1.0000 0.46396  0.54530  0.45210  Biso   1.000  C
  H78      1.0000 0.45920  0.53940  0.47700  Biso   1.000  H
  N41      1.0000 0.44226  0.49750  0.41902  Biso   1.000  N
  C120     1.0000 0.44937  0.50580  0.38480  Biso   1.000  C
  H79      1.0000 0.43390  0.47280  0.36110  Biso   1.000  H
  C121     1.0000 0.47827  0.56000  0.38180  Biso   1.000  C
  H80      1.0000 0.48280  0.56320  0.35680  Biso   1.000  H
  C122     1.0000 0.59757  0.69410  0.36279  Biso   1.000  C
  C123     1.0000 0.63482  0.72020  0.37450  Biso   1.000  C
  H81      1.0000 0.64740  0.74700  0.40080  Biso   1.000  H
  C124     1.0000 0.65364  0.70670  0.34760  Biso   1.000  C
  H82      1.0000 0.67930  0.72480  0.35580  Biso   1.000  H
  N42      1.0000 0.63704  0.66930  0.31042  Biso   1.000  N
  C125     1.0000 0.60105  0.64440  0.29930  Biso   1.000  C
  H83      1.0000 0.58900  0.61860  0.27260  Biso   1.000  H
  C126     1.0000 0.58086  0.65410  0.32430  Biso   1.000  C
  H84      1.0000 0.55550  0.63360  0.31560  Biso   1.000  H
  N43      1.0000 0.65196  0.04930  0.62490  Biso   1.000  N
  C127     1.0000 0.66593  0.09800  0.65998  Biso   1.000  C
  H85      1.0000 0.66330  0.16450  0.65930  Biso   1.000  H
  C128     1.0000 0.68393  0.05450  0.69673  Biso   1.000  C
  H86      1.0000 0.69420  0.09050  0.72110  Biso   1.000  H
  C129     1.0000 0.68697  0.95710  0.69793  Biso   1.000  C
  C130     1.0000 0.67110  0.90770  0.66180  Biso   1.000  C
  H87      1.0000 0.67160  0.84090  0.66160  Biso   1.000  H
  C131     1.0000 0.65490  0.95670  0.62680  Biso   1.000  C
  H88      1.0000 0.64500  0.92240  0.60190  Biso   1.000  H
  C132     1.0000 0.70742  0.90490  0.73631  Biso   1.000  C
  N44      1.0000 0.73667  0.94700  0.76336  Biso   1.000  N
  C133     1.0000 0.75593  0.89240  0.79552  Biso   1.000  C
  N45      1.0000 0.74774  0.80370  0.80131  Biso   1.000  N
  C134     1.0000 0.71657  0.77100  0.77259  Biso   1.000  C
  N46      1.0000 0.69519  0.81820  0.73952  Biso   1.000  N
  C135     1.0000 0.70426  0.67370  0.77676  Biso   1.000  C
  C136     1.0000 0.72658  0.60960  0.80459  Biso   1.000  C
  H89      1.0000 0.75000  0.62910  0.82410  Biso   1.000  H
  C137     1.0000 0.71516  0.51800  0.80428  Biso   1.000  C
  H90      1.0000 0.73130  0.47470  0.82320  Biso   1.000  H
  N47      1.0000 0.68192  0.48750  0.77813  Biso   1.000  N
  C138     1.0000 0.65903  0.55080  0.75290  Biso   1.000  C
  H91      1.0000 0.63480  0.53110  0.73550  Biso   1.000  H
  C139     1.0000 0.66916  0.64280  0.75140  Biso   1.000  C
  H92      1.0000 0.65220  0.68540  0.73290  Biso   1.000  H
  C140     1.0000 0.78899  0.93720  0.82582  Biso   1.000  C
  C141     1.0000 0.81215  0.88940  0.86060  Biso   1.000  C
  H93      1.0000 0.80660  0.82660  0.86580  Biso   1.000  H
  C142     1.0000 0.84303  0.93510  0.88720  Biso   1.000  C
  H94      1.0000 0.85850  0.90260  0.91100  Biso   1.000  H
  N48      1.0000 0.85237  0.02330  0.88099  Biso   1.000  N
  C143     1.0000 0.82975  0.06840  0.84830  Biso   1.000  C
  H95      1.0000 0.83560  0.13160  0.84410  Biso   1.000  H
  C144     1.0000 0.79864  0.02900  0.82040  Biso   1.000  C
  H96      1.0000 0.78360  0.06410  0.79720  Biso   1.000  H
  I37      1.0000 0.67610  0.21240  0.55310  Biso   1.000  I
  I38      1.0000 0.56800  0.19830  0.57650  Biso   1.000  I
  I39      1.0000 0.39660  0.41650  0.48580  Biso   1.000  I
  I40      1.0000 0.40500  0.26240  0.38560  Biso   1.000  I
  Zn13     1.0000 0.87166  0.37680  0.42935  Biso   1.000  Zn
  Zn14     1.0000 0.10064  0.08698  0.57785  Biso   1.000  Zn
  Zn15     1.0000 0.83362  0.15363  0.22899  Biso   1.000  Zn
  I41      1.0000 0.81252  0.30740  0.43920  Biso   1.000  I
  I42      1.0000 0.92206  0.28180  0.42279  Biso   1.000  I
  I43      1.0000 0.77493  0.25642  0.20394  Biso   1.000  I
  I44      1.0000 0.87846  0.17351  0.30187  Biso   1.000  I
  I45      1.0000 0.10518  0.06620  0.50578  Biso   1.000  I
  I46      1.0000 0.09171  0.24446  0.60872  Biso   1.000  I
  N49      1.0000 0.89232  0.48350  0.47180  Biso   1.000  N
  C145     1.0000 0.91956  0.54070  0.47140  Biso   1.000  C
  H97      1.0000 0.93050  0.53080  0.45110  Biso   1.000  H
  C146     1.0000 0.93287  0.61280  0.49830  Biso   1.000  C
  H98      1.0000 0.95250  0.65200  0.49660  Biso   1.000  H
  C147     1.0000 0.91752  0.62820  0.52827  Biso   1.000  C
  C148     1.0000 0.89028  0.56680  0.52970  Biso   1.000  C
  H99      1.0000 0.88000  0.57280  0.55080  Biso   1.000  H
  C149     1.0000 0.87775  0.49620  0.50080  Biso   1.000  C
  H100     1.0000 0.85820  0.45560  0.50180  Biso   1.000  H
  C150     1.0000 0.92944  0.70680  0.55745  Biso   1.000  C
  N50      1.0000 0.95853  0.75890  0.55728  Biso   1.000  N
  C151     1.0000 0.96845  0.82760  0.58498  Biso   1.000  C
  N51      1.0000 0.95247  0.84460  0.61263  Biso   1.000  N
  C152     1.0000 0.92314  0.78980  0.60896  Biso   1.000  C
  N52      1.0000 0.91020  0.72070  0.58202  Biso   1.000  N
  C153     1.0000 0.99930  0.89000  0.58405  Biso   1.000  C
  C154     1.0000 0.00715  0.89780  0.54851  Biso   1.000  C
  H101     1.0000 0.99270  0.86410  0.52460  Biso   1.000  H
  C155     1.0000 0.03604  0.95470  0.54790  Biso   1.000  C
  H102     1.0000 0.04080  0.96060  0.52300  Biso   1.000  H
  N53      1.0000 0.05774  0.00250  0.58098  Biso   1.000  N
  C156     1.0000 0.05063  0.99420  0.61520  Biso   1.000  C
  H103     1.0000 0.06610  0.02720  0.63890  Biso   1.000  H
  C157     1.0000 0.02173  0.94000  0.61820  Biso   1.000  C
  H104     1.0000 0.01720  0.93680  0.64320  Biso   1.000  H
  C158     1.0000 0.90243  0.80590  0.63721  Biso   1.000  C
  C159     1.0000 0.86518  0.77980  0.62550  Biso   1.000  C
  H105     1.0000 0.85260  0.75300  0.59920  Biso   1.000  H
  C160     1.0000 0.84636  0.79330  0.65240  Biso   1.000  C
  H106     1.0000 0.82070  0.77520  0.64420  Biso   1.000  H
  N54      1.0000 0.86296  0.83070  0.68958  Biso   1.000  N
  C161     1.0000 0.89895  0.85560  0.70070  Biso   1.000  C
  H107     1.0000 0.91100  0.88140  0.72740  Biso   1.000  H
  C162     1.0000 0.91914  0.84590  0.67570  Biso   1.000  C
  H108     1.0000 0.94450  0.86640  0.68440  Biso   1.000  H
  N55      1.0000 0.84804  0.45070  0.37510  Biso   1.000  N
  C163     1.0000 0.83407  0.40200  0.34002  Biso   1.000  C
  H109     1.0000 0.83670  0.33550  0.34070  Biso   1.000  H
  C164     1.0000 0.81607  0.44550  0.30327  Biso   1.000  C
  H110     1.0000 0.80580  0.40950  0.27890  Biso   1.000  H
  C165     1.0000 0.81303  0.54290  0.30207  Biso   1.000  C
  C166     1.0000 0.82890  0.59230  0.33820  Biso   1.000  C
  H111     1.0000 0.82840  0.65910  0.33840  Biso   1.000  H
  C167     1.0000 0.84510  0.54330  0.37320  Biso   1.000  C
  H112     1.0000 0.85500  0.57760  0.39810  Biso   1.000  H
  C168     1.0000 0.79258  0.59510  0.26369  Biso   1.000  C
  N56      1.0000 0.76333  0.55300  0.23664  Biso   1.000  N
  C169     1.0000 0.74407  0.60760  0.20448  Biso   1.000  C
  N57      1.0000 0.75226  0.69630  0.19869  Biso   1.000  N
  C170     1.0000 0.78343  0.72900  0.22741  Biso   1.000  C
  N58      1.0000 0.80481  0.68180  0.26048  Biso   1.000  N
  C171     1.0000 0.79574  0.82630  0.22324  Biso   1.000  C
  C172     1.0000 0.77342  0.89040  0.19541  Biso   1.000  C
  H113     1.0000 0.75000  0.87090  0.17590  Biso   1.000  H
  C173     1.0000 0.78484  0.98200  0.19572  Biso   1.000  C
  H114     1.0000 0.76870  0.02530  0.17680  Biso   1.000  H
  N59      1.0000 0.81808  0.01250  0.22187  Biso   1.000  N
  C174     1.0000 0.84097  0.94920  0.24710  Biso   1.000  C
  H115     1.0000 0.86520  0.96890  0.26450  Biso   1.000  H
  C175     1.0000 0.83084  0.85720  0.24860  Biso   1.000  C
  H116     1.0000 0.84780  0.81460  0.26710  Biso   1.000  H
  C176     1.0000 0.71101  0.56280  0.17418  Biso   1.000  C
  C177     1.0000 0.68785  0.61060  0.13940  Biso   1.000  C
  H117     1.0000 0.69340  0.67340  0.13420  Biso   1.000  H
  C178     1.0000 0.65697  0.56490  0.11280  Biso   1.000  C
  H118     1.0000 0.64150  0.59740  0.08900  Biso   1.000  H
  N60      1.0000 0.64763  0.47670  0.11901  Biso   1.000  N
  C179     1.0000 0.67025  0.43160  0.15170  Biso   1.000  C
  H119     1.0000 0.66440  0.36840  0.15590  Biso   1.000  H
  C180     1.0000 0.70136  0.47100  0.17960  Biso   1.000  C
  H120     1.0000 0.71640  0.43590  0.20280  Biso   1.000  H
  I47      1.0000 0.82390  0.28760  0.44690  Biso   1.000  I
  I48      1.0000 0.93200  0.30170  0.42350  Biso   1.000  I
  I49      1.0000 0.10340  0.08350  0.51420  Biso   1.000  I
  I50      1.0000 0.09500  0.23760  0.61440  Biso   1.000  I
  Zn16     1.0000 0.37166  0.87680  0.42935  Biso   1.000  Zn
  Zn17     1.0000 0.60064  0.58698  0.57785  Biso   1.000  Zn
  Zn18     1.0000 0.33362  0.65363  0.22899  Biso   1.000  Zn
  I51      1.0000 0.31252  0.80740  0.43920  Biso   1.000  I
  I52      1.0000 0.42206  0.78180  0.42279  Biso   1.000  I
  I53      1.0000 0.27493  0.75642  0.20394  Biso   1.000  I
  I54      1.0000 0.37846  0.67351  0.30187  Biso   1.000  I
  I55      1.0000 0.60518  0.56620  0.50578  Biso   1.000  I
  I56      1.0000 0.59171  0.74446  0.60872  Biso   1.000  I
  N61      1.0000 0.39232  0.98350  0.47180  Biso   1.000  N
  C181     1.0000 0.41956  0.04070  0.47140  Biso   1.000  C
  H121     1.0000 0.43050  0.03080  0.45110  Biso   1.000  H
  C182     1.0000 0.43287  0.11280  0.49830  Biso   1.000  C
  H122     1.0000 0.45250  0.15200  0.49660  Biso   1.000  H
  C183     1.0000 0.41752  0.12820  0.52827  Biso   1.000  C
  C184     1.0000 0.39028  0.06680  0.52970  Biso   1.000  C
  H123     1.0000 0.38000  0.07280  0.55080  Biso   1.000  H
  C185     1.0000 0.37775  0.99620  0.50080  Biso   1.000  C
  H124     1.0000 0.35820  0.95560  0.50180  Biso   1.000  H
  C186     1.0000 0.42944  0.20680  0.55745  Biso   1.000  C
  N62      1.0000 0.45853  0.25890  0.55728  Biso   1.000  N
  C187     1.0000 0.46845  0.32760  0.58498  Biso   1.000  C
  N63      1.0000 0.45247  0.34460  0.61263  Biso   1.000  N
  C188     1.0000 0.42314  0.28980  0.60896  Biso   1.000  C
  N64      1.0000 0.41020  0.22070  0.58202  Biso   1.000  N
  C189     1.0000 0.49930  0.39000  0.58405  Biso   1.000  C
  C190     1.0000 0.50715  0.39780  0.54851  Biso   1.000  C
  H125     1.0000 0.49270  0.36410  0.52460  Biso   1.000  H
  C191     1.0000 0.53604  0.45470  0.54790  Biso   1.000  C
  H126     1.0000 0.54080  0.46060  0.52300  Biso   1.000  H
  N65      1.0000 0.55774  0.50250  0.58098  Biso   1.000  N
  C192     1.0000 0.55063  0.49420  0.61520  Biso   1.000  C
  H127     1.0000 0.56610  0.52720  0.63890  Biso   1.000  H
  C193     1.0000 0.52173  0.44000  0.61820  Biso   1.000  C
  H128     1.0000 0.51720  0.43680  0.64320  Biso   1.000  H
  C194     1.0000 0.40243  0.30590  0.63721  Biso   1.000  C
  C195     1.0000 0.36518  0.27980  0.62550  Biso   1.000  C
  H129     1.0000 0.35260  0.25300  0.59920  Biso   1.000  H
  C196     1.0000 0.34636  0.29330  0.65240  Biso   1.000  C
  H130     1.0000 0.32070  0.27520  0.64420  Biso   1.000  H
  N66      1.0000 0.36296  0.33070  0.68958  Biso   1.000  N
  C197     1.0000 0.39895  0.35560  0.70070  Biso   1.000  C
  H131     1.0000 0.41100  0.38140  0.72740  Biso   1.000  H
  C198     1.0000 0.41914  0.34590  0.67570  Biso   1.000  C
  H132     1.0000 0.44450  0.36640  0.68440  Biso   1.000  H
  N67      1.0000 0.34804  0.95070  0.37510  Biso   1.000  N
  C199     1.0000 0.33407  0.90200  0.34002  Biso   1.000  C
  H133     1.0000 0.33670  0.83550  0.34070  Biso   1.000  H
  C200     1.0000 0.31607  0.94550  0.30327  Biso   1.000  C
  H134     1.0000 0.30580  0.90950  0.27890  Biso   1.000  H
  C201     1.0000 0.31303  0.04290  0.30207  Biso   1.000  C
  C202     1.0000 0.32890  0.09230  0.33820  Biso   1.000  C
  H135     1.0000 0.32840  0.15910  0.33840  Biso   1.000  H
  C203     1.0000 0.34510  0.04330  0.37320  Biso   1.000  C
  H136     1.0000 0.35500  0.07760  0.39810  Biso   1.000  H
  C204     1.0000 0.29258  0.09510  0.26369  Biso   1.000  C
  N68      1.0000 0.26333  0.05300  0.23664  Biso   1.000  N
  C205     1.0000 0.24407  0.10760  0.20448  Biso   1.000  C
  N69      1.0000 0.25226  0.19630  0.19869  Biso   1.000  N
  C206     1.0000 0.28343  0.22900  0.22741  Biso   1.000  C
  N70      1.0000 0.30481  0.18180  0.26048  Biso   1.000  N
  C207     1.0000 0.29574  0.32630  0.22324  Biso   1.000  C
  C208     1.0000 0.27342  0.39040  0.19541  Biso   1.000  C
  H137     1.0000 0.25000  0.37090  0.17590  Biso   1.000  H
  C209     1.0000 0.28484  0.48200  0.19572  Biso   1.000  C
  H138     1.0000 0.26870  0.52530  0.17680  Biso   1.000  H
  N71      1.0000 0.31808  0.51250  0.22187  Biso   1.000  N
  C210     1.0000 0.34097  0.44920  0.24710  Biso   1.000  C
  H139     1.0000 0.36520  0.46890  0.26450  Biso   1.000  H
  C211     1.0000 0.33084  0.35720  0.24860  Biso   1.000  C
  H140     1.0000 0.34780  0.31460  0.26710  Biso   1.000  H
  C212     1.0000 0.21101  0.06280  0.17418  Biso   1.000  C
  C213     1.0000 0.18785  0.11060  0.13940  Biso   1.000  C
  H141     1.0000 0.19340  0.17340  0.13420  Biso   1.000  H
  C214     1.0000 0.15697  0.06490  0.11280  Biso   1.000  C
  H142     1.0000 0.14150  0.09740  0.08900  Biso   1.000  H
  N72      1.0000 0.14763  0.97670  0.11901  Biso   1.000  N
  C215     1.0000 0.17025  0.93160  0.15170  Biso   1.000  C
  H143     1.0000 0.16440  0.86840  0.15590  Biso   1.000  H
  C216     1.0000 0.20136  0.97100  0.17960  Biso   1.000  C
  H144     1.0000 0.21640  0.93590  0.20280  Biso   1.000  H
  I57      1.0000 0.32390  0.78760  0.44690  Biso   1.000  I
  I58      1.0000 0.43200  0.80170  0.42350  Biso   1.000  I
  I59      1.0000 0.60340  0.58350  0.51420  Biso   1.000  I
  I60      1.0000 0.59500  0.73760  0.61440  Biso   1.000  I
  Zn19     1.0000 0.87166  0.62320  0.92935  Biso   1.000  Zn
  Zn20     1.0000 0.10064  0.91302  0.07785  Biso   1.000  Zn
  Zn21     1.0000 0.83362  0.84637  0.72899  Biso   1.000  Zn
  I61      1.0000 0.81252  0.69260  0.93920  Biso   1.000  I
  I62      1.0000 0.92206  0.71820  0.92279  Biso   1.000  I
  I63      1.0000 0.77493  0.74358  0.70394  Biso   1.000  I
  I64      1.0000 0.87846  0.82649  0.80187  Biso   1.000  I
  I65      1.0000 0.10518  0.93380  0.00578  Biso   1.000  I
  I66      1.0000 0.09171  0.75554  0.10872  Biso   1.000  I
  N73      1.0000 0.89232  0.51650  0.97180  Biso   1.000  N
  C217     1.0000 0.91956  0.45930  0.97140  Biso   1.000  C
  H145     1.0000 0.93050  0.46920  0.95110  Biso   1.000  H
  C218     1.0000 0.93287  0.38720  0.99830  Biso   1.000  C
  H146     1.0000 0.95250  0.34800  0.99660  Biso   1.000  H
  C219     1.0000 0.91752  0.37180  0.02827  Biso   1.000  C
  C220     1.0000 0.89028  0.43320  0.02970  Biso   1.000  C
  H147     1.0000 0.88000  0.42720  0.05080  Biso   1.000  H
  C221     1.0000 0.87775  0.50380  0.00080  Biso   1.000  C
  H148     1.0000 0.85820  0.54440  0.00180  Biso   1.000  H
  C222     1.0000 0.92944  0.29320  0.05745  Biso   1.000  C
  N74      1.0000 0.95853  0.24110  0.05728  Biso   1.000  N
  C223     1.0000 0.96845  0.17240  0.08498  Biso   1.000  C
  N75      1.0000 0.95247  0.15540  0.11263  Biso   1.000  N
  C224     1.0000 0.92314  0.21020  0.10896  Biso   1.000  C
  N76      1.0000 0.91020  0.27930  0.08202  Biso   1.000  N
  C225     1.0000 0.99930  0.11000  0.08405  Biso   1.000  C
  C226     1.0000 0.00715  0.10220  0.04851  Biso   1.000  C
  H149     1.0000 0.99270  0.13590  0.02460  Biso   1.000  H
  C227     1.0000 0.03604  0.04530  0.04790  Biso   1.000  C
  H150     1.0000 0.04080  0.03940  0.02300  Biso   1.000  H
  N77      1.0000 0.05774  0.99750  0.08098  Biso   1.000  N
  C228     1.0000 0.05063  0.00580  0.11520  Biso   1.000  C
  H151     1.0000 0.06610  0.97280  0.13890  Biso   1.000  H
  C229     1.0000 0.02173  0.06000  0.11820  Biso   1.000  C
  H152     1.0000 0.01720  0.06320  0.14320  Biso   1.000  H
  C230     1.0000 0.90243  0.19410  0.13721  Biso   1.000  C
  C231     1.0000 0.86518  0.22020  0.12550  Biso   1.000  C
  H153     1.0000 0.85260  0.24700  0.09920  Biso   1.000  H
  C232     1.0000 0.84636  0.20670  0.15240  Biso   1.000  C
  H154     1.0000 0.82070  0.22480  0.14420  Biso   1.000  H
  N78      1.0000 0.86296  0.16930  0.18958  Biso   1.000  N
  C233     1.0000 0.89895  0.14440  0.20070  Biso   1.000  C
  H155     1.0000 0.91100  0.11860  0.22740  Biso   1.000  H
  C234     1.0000 0.91914  0.15410  0.17570  Biso   1.000  C
  H156     1.0000 0.94450  0.13360  0.18440  Biso   1.000  H
  N79      1.0000 0.84804  0.54930  0.87510  Biso   1.000  N
  C235     1.0000 0.83407  0.59800  0.84002  Biso   1.000  C
  H157     1.0000 0.83670  0.66450  0.84070  Biso   1.000  H
  C236     1.0000 0.81607  0.55450  0.80327  Biso   1.000  C
  H158     1.0000 0.80580  0.59050  0.77890  Biso   1.000  H
  C237     1.0000 0.81303  0.45710  0.80207  Biso   1.000  C
  C238     1.0000 0.82890  0.40770  0.83820  Biso   1.000  C
  H159     1.0000 0.82840  0.34090  0.83840  Biso   1.000  H
  C239     1.0000 0.84510  0.45670  0.87320  Biso   1.000  C
  H160     1.0000 0.85500  0.42240  0.89810  Biso   1.000  H
  C240     1.0000 0.79258  0.40490  0.76369  Biso   1.000  C
  N80      1.0000 0.76333  0.44700  0.73664  Biso   1.000  N
  C241     1.0000 0.74407  0.39240  0.70448  Biso   1.000  C
  N81      1.0000 0.75226  0.30370  0.69869  Biso   1.000  N
  C242     1.0000 0.78343  0.27100  0.72741  Biso   1.000  C
  N82      1.0000 0.80481  0.31820  0.76048  Biso   1.000  N
  C243     1.0000 0.79574  0.17370  0.72324  Biso   1.000  C
  C244     1.0000 0.77342  0.10960  0.69541  Biso   1.000  C
  H161     1.0000 0.75000  0.12910  0.67590  Biso   1.000  H
  C245     1.0000 0.78484  0.01800  0.69572  Biso   1.000  C
  H162     1.0000 0.76870  0.97470  0.67680  Biso   1.000  H
  N83      1.0000 0.81808  0.98750  0.72187  Biso   1.000  N
  C246     1.0000 0.84097  0.05080  0.74710  Biso   1.000  C
  H163     1.0000 0.86520  0.03110  0.76450  Biso   1.000  H
  C247     1.0000 0.83084  0.14280  0.74860  Biso   1.000  C
  H164     1.0000 0.84780  0.18540  0.76710  Biso   1.000  H
  C248     1.0000 0.71101  0.43720  0.67418  Biso   1.000  C
  C249     1.0000 0.68785  0.38940  0.63940  Biso   1.000  C
  H165     1.0000 0.69340  0.32660  0.63420  Biso   1.000  H
  C250     1.0000 0.65697  0.43510  0.61280  Biso   1.000  C
  H166     1.0000 0.64150  0.40260  0.58900  Biso   1.000  H
  N84      1.0000 0.64763  0.52330  0.61901  Biso   1.000  N
  C251     1.0000 0.67025  0.56840  0.65170  Biso   1.000  C
  H167     1.0000 0.66440  0.63160  0.65590  Biso   1.000  H
  C252     1.0000 0.70136  0.52900  0.67960  Biso   1.000  C
  H168     1.0000 0.71640  0.56410  0.70280  Biso   1.000  H
  I67      1.0000 0.82390  0.71240  0.94690  Biso   1.000  I
  I68      1.0000 0.93200  0.69830  0.92350  Biso   1.000  I
  I69      1.0000 0.10340  0.91650  0.01420  Biso   1.000  I
  I70      1.0000 0.09500  0.76240  0.11440  Biso   1.000  I
  Zn22     1.0000 0.37166  0.12320  0.92935  Biso   1.000  Zn
  Zn23     1.0000 0.60064  0.41302  0.07785  Biso   1.000  Zn
  Zn24     1.0000 0.33362  0.34637  0.72899  Biso   1.000  Zn
  I71      1.0000 0.31252  0.19260  0.93920  Biso   1.000  I
  I72      1.0000 0.42206  0.21820  0.92279  Biso   1.000  I
  I73      1.0000 0.27493  0.24358  0.70394  Biso   1.000  I
  I74      1.0000 0.37846  0.32649  0.80187  Biso   1.000  I
  I75      1.0000 0.60518  0.43380  0.00578  Biso   1.000  I
  I76      1.0000 0.59171  0.25554  0.10872  Biso   1.000  I
  N85      1.0000 0.39232  0.01650  0.97180  Biso   1.000  N
  C253     1.0000 0.41956  0.95930  0.97140  Biso   1.000  C
  H169     1.0000 0.43050  0.96920  0.95110  Biso   1.000  H
  C254     1.0000 0.43287  0.88720  0.99830  Biso   1.000  C
  H170     1.0000 0.45250  0.84800  0.99660  Biso   1.000  H
  C255     1.0000 0.41752  0.87180  0.02827  Biso   1.000  C
  C256     1.0000 0.39028  0.93320  0.02970  Biso   1.000  C
  H171     1.0000 0.38000  0.92720  0.05080  Biso   1.000  H
  C257     1.0000 0.37775  0.00380  0.00080  Biso   1.000  C
  H172     1.0000 0.35820  0.04440  0.00180  Biso   1.000  H
  C258     1.0000 0.42944  0.79320  0.05745  Biso   1.000  C
  N86      1.0000 0.45853  0.74110  0.05728  Biso   1.000  N
  C259     1.0000 0.46845  0.67240  0.08498  Biso   1.000  C
  N87      1.0000 0.45247  0.65540  0.11263  Biso   1.000  N
  C260     1.0000 0.42314  0.71020  0.10896  Biso   1.000  C
  N88      1.0000 0.41020  0.77930  0.08202  Biso   1.000  N
  C261     1.0000 0.49930  0.61000  0.08405  Biso   1.000  C
  C262     1.0000 0.50715  0.60220  0.04851  Biso   1.000  C
  H173     1.0000 0.49270  0.63590  0.02460  Biso   1.000  H
  C263     1.0000 0.53604  0.54530  0.04790  Biso   1.000  C
  H174     1.0000 0.54080  0.53940  0.02300  Biso   1.000  H
  N89      1.0000 0.55774  0.49750  0.08098  Biso   1.000  N
  C264     1.0000 0.55063  0.50580  0.11520  Biso   1.000  C
  H175     1.0000 0.56610  0.47280  0.13890  Biso   1.000  H
  C265     1.0000 0.52173  0.56000  0.11820  Biso   1.000  C
  H176     1.0000 0.51720  0.56320  0.14320  Biso   1.000  H
  C266     1.0000 0.40243  0.69410  0.13721  Biso   1.000  C
  C267     1.0000 0.36518  0.72020  0.12550  Biso   1.000  C
  H177     1.0000 0.35260  0.74700  0.09920  Biso   1.000  H
  C268     1.0000 0.34636  0.70670  0.15240  Biso   1.000  C
  H178     1.0000 0.32070  0.72480  0.14420  Biso   1.000  H
  N90      1.0000 0.36296  0.66930  0.18958  Biso   1.000  N
  C269     1.0000 0.39895  0.64440  0.20070  Biso   1.000  C
  H179     1.0000 0.41100  0.61860  0.22740  Biso   1.000  H
  C270     1.0000 0.41914  0.65410  0.17570  Biso   1.000  C
  H180     1.0000 0.44450  0.63360  0.18440  Biso   1.000  H
  N91      1.0000 0.34804  0.04930  0.87510  Biso   1.000  N
  C271     1.0000 0.33407  0.09800  0.84002  Biso   1.000  C
  H181     1.0000 0.33670  0.16450  0.84070  Biso   1.000  H
  C272     1.0000 0.31607  0.05450  0.80327  Biso   1.000  C
  H182     1.0000 0.30580  0.09050  0.77890  Biso   1.000  H
  C273     1.0000 0.31303  0.95710  0.80207  Biso   1.000  C
  C274     1.0000 0.32890  0.90770  0.83820  Biso   1.000  C
  H183     1.0000 0.32840  0.84090  0.83840  Biso   1.000  H
  C275     1.0000 0.34510  0.95670  0.87320  Biso   1.000  C
  H184     1.0000 0.35500  0.92240  0.89810  Biso   1.000  H
  C276     1.0000 0.29258  0.90490  0.76369  Biso   1.000  C
  N92      1.0000 0.26333  0.94700  0.73664  Biso   1.000  N
  C277     1.0000 0.24407  0.89240  0.70448  Biso   1.000  C
  N93      1.0000 0.25226  0.80370  0.69869  Biso   1.000  N
  C278     1.0000 0.28343  0.77100  0.72741  Biso   1.000  C
  N94      1.0000 0.30481  0.81820  0.76048  Biso   1.000  N
  C279     1.0000 0.29574  0.67370  0.72324  Biso   1.000  C
  C280     1.0000 0.27342  0.60960  0.69541  Biso   1.000  C
  H185     1.0000 0.25000  0.62910  0.67590  Biso   1.000  H
  C281     1.0000 0.28484  0.51800  0.69572  Biso   1.000  C
  H186     1.0000 0.26870  0.47470  0.67680  Biso   1.000  H
  N95      1.0000 0.31808  0.48750  0.72187  Biso   1.000  N
  C282     1.0000 0.34097  0.55080  0.74710  Biso   1.000  C
  H187     1.0000 0.36520  0.53110  0.76450  Biso   1.000  H
  C283     1.0000 0.33084  0.64280  0.74860  Biso   1.000  C
  H188     1.0000 0.34780  0.68540  0.76710  Biso   1.000  H
  C284     1.0000 0.21101  0.93720  0.67418  Biso   1.000  C
  C285     1.0000 0.18785  0.88940  0.63940  Biso   1.000  C
  H189     1.0000 0.19340  0.82660  0.63420  Biso   1.000  H
  C286     1.0000 0.15697  0.93510  0.61280  Biso   1.000  C
  H190     1.0000 0.14150  0.90260  0.58900  Biso   1.000  H
  N96      1.0000 0.14763  0.02330  0.61901  Biso   1.000  N
  C287     1.0000 0.17025  0.06840  0.65170  Biso   1.000  C
  H191     1.0000 0.16440  0.13160  0.65590  Biso   1.000  H
  C288     1.0000 0.20136  0.02900  0.67960  Biso   1.000  C
  H192     1.0000 0.21640  0.06410  0.70280  Biso   1.000  H
  I77      1.0000 0.32390  0.21240  0.94690  Biso   1.000  I
  I78      1.0000 0.43200  0.19830  0.92350  Biso   1.000  I
  I79      1.0000 0.60340  0.41650  0.01420  Biso   1.000  I
  I80      1.0000 0.59500  0.26240  0.11440  Biso   1.000  I
