data_image0
_cell_length_a       35.0063
_cell_length_b       15.0958
_cell_length_c       30.2162
_cell_angle_alpha    90
_cell_angle_beta     102.088
_cell_angle_gamma    90

_symmetry_space_group_name_H-M    "P 1"
_symmetry_int_tables_number       1

loop_
  _symmetry_equiv_pos_as_xyz
  'x, y, z'

loop_
  _atom_site_label
  _atom_site_occupancy
  _atom_site_fract_x
  _atom_site_fract_y
  _atom_site_fract_z
  _atom_site_thermal_displace_type
  _atom_site_B_iso_or_equiv
  _atom_site_type_symbol
  Zn1      1.0000 0.37178  0.90828  0.44920  Biso   1.000  Zn
  I1       1.0000 0.35327  0.93000  0.52422  Biso   1.000  I
  I2       1.0000 0.38350  0.76080  0.41850  Biso   1.000  I
  Zn2      1.0000 0.17360  0.64140  0.27240  Biso   1.000  Zn
  I3       1.0000 0.12869  0.66270  0.19539  Biso   1.000  I
  I4       1.0000 0.23283  0.73980  0.29605  Biso   1.000  I
  Zn3      1.0000 0.08051  0.88034  0.09369  Biso   1.000  Zn
  I5       1.0000 0.11580  0.76599  0.05670  Biso   1.000  I
  I6       1.0000 0.02662  0.85478  0.13634  Biso   1.000  I
  N1       1.0000 0.32926  0.97170  0.40280  Biso   1.000  N
  C1       1.0000 0.32350  0.05750  0.40610  Biso   1.000  C
  H1       1.0000 0.33940  0.08890  0.43040  Biso   1.000  H
  C2       1.0000 0.29560  0.10430  0.37630  Biso   1.000  C
  H2       1.0000 0.29340  0.16660  0.37950  Biso   1.000  H
  C3       1.0000 0.27100  0.06040  0.34200  Biso   1.000  C
  C4       1.0000 0.27620  0.97010  0.33880  Biso   1.000  C
  H3       1.0000 0.26000  0.93680  0.31550  Biso   1.000  H
  C5       1.0000 0.30520  0.92890  0.37020  Biso   1.000  C
  H4       1.0000 0.30800  0.86650  0.36830  Biso   1.000  H
  C6       1.0000 0.24000  0.10680  0.30920  Biso   1.000  C
  N2       1.0000 0.23472  0.19200  0.31410  Biso   1.000  N
  C7       1.0000 0.20650  0.22810  0.28300  Biso   1.000  C
  N3       1.0000 0.18314  0.18390  0.24910  Biso   1.000  N
  C8       1.0000 0.19200  0.09800  0.24690  Biso   1.000  C
  N4       1.0000 0.22108  0.05660  0.27500  Biso   1.000  N
  C9       1.0000 0.19970  0.32570  0.28350  Biso   1.000  C
  C10      1.0000 0.22240  0.38120  0.31460  Biso   1.000  C
  H5       1.0000 0.24230  0.35800  0.33800  Biso   1.000  H
  C11      1.0000 0.21560  0.47090  0.31100  Biso   1.000  C
  H6       1.0000 0.23180  0.50910  0.33190  Biso   1.000  H
  N5       1.0000 0.18770  0.50670  0.28000  Biso   1.000  N
  C12      1.0000 0.16580  0.45280  0.25010  Biso   1.000  C
  H7       1.0000 0.14560  0.47760  0.22750  Biso   1.000  H
  C13      1.0000 0.17140  0.36340  0.25070  Biso   1.000  C
  H8       1.0000 0.15570  0.32720  0.22830  Biso   1.000  H
  C14      1.0000 0.16890  0.04720  0.20840  Biso   1.000  C
  C15      1.0000 0.17530  0.95800  0.20170  Biso   1.000  C
  H9       1.0000 0.19600  0.92750  0.22090  Biso   1.000  H
  C16      1.0000 0.15100  0.91420  0.16650  Biso   1.000  C
  H10      1.0000 0.15540  0.85300  0.16230  Biso   1.000  H
  N6       1.0000 0.12197  0.95320  0.13860  Biso   1.000  N
  C17      1.0000 0.11660  0.03830  0.14470  Biso   1.000  C
  H11      1.0000 0.09570  0.06710  0.12480  Biso   1.000  H
  C18      1.0000 0.13950  0.08780  0.17810  Biso   1.000  C
  H12      1.0000 0.13510  0.14960  0.18020  Biso   1.000  H
  N7       1.0000 0.06208  0.97840  0.04570  Biso   1.000  N
  C19      1.0000 0.03490  0.03840  0.05000  Biso   1.000  C
  H13      1.0000 0.01960  0.02870  0.07200  Biso   1.000  H
  C20      1.0000 0.02840  0.11330  0.02390  Biso   1.000  C
  H14      1.0000 0.00920  0.15500  0.02850  Biso   1.000  H
  C21      1.0000 0.04944  0.12790  0.99140  Biso   1.000  C
  C22      1.0000 0.07580  0.06400  0.98520  Biso   1.000  C
  H15      1.0000 0.09010  0.07040  0.96190  Biso   1.000  H
  C23      1.0000 0.08140  0.99150  0.01260  Biso   1.000  C
  H16      1.0000 0.09990  0.94830  0.00790  Biso   1.000  H
  C24      1.0000 0.04525  0.21030  0.96440  Biso   1.000  C
  N8       1.0000 0.01792  0.26800  0.97050  Biso   1.000  N
  C25      1.0000 0.01408  0.33810  0.94230  Biso   1.000  C
  N9       1.0000 0.03515  0.35450  0.91160  Biso   1.000  N
  C26      1.0000 0.06330  0.29550  0.91080  Biso   1.000  C
  N10      1.0000 0.06913  0.22240  0.93560  Biso   1.000  N
  C27      1.0000 0.98170  0.40020  0.94480  Biso   1.000  C
  C28      1.0000 0.96600  0.40540  0.98290  Biso   1.000  C
  H17      1.0000 0.97640  0.36980  0.00850  Biso   1.000  H
  C29      1.0000 0.93580  0.46100  0.98410  Biso   1.000  C
  H18      1.0000 0.92560  0.46340  0.01090  Biso   1.000  H
  N11      1.0000 0.91966  0.51280  0.94900  Biso   1.000  N
  C30      1.0000 0.93460  0.50640  0.91270  Biso   1.000  C
  H19      1.0000 0.92350  0.54200  0.88730  Biso   1.000  H
  C31      1.0000 0.96530  0.45160  0.90890  Biso   1.000  C
  H20      1.0000 0.97480  0.44980  0.88170  Biso   1.000  H
  C32      1.0000 0.09000  0.31200  0.87950  Biso   1.000  C
  C33      1.0000 0.12380  0.26520  0.88360  Biso   1.000  C
  H21      1.0000 0.13000  0.22020  0.90590  Biso   1.000  H
  C34      1.0000 0.14920  0.28340  0.85530  Biso   1.000  C
  H22      1.0000 0.17320  0.25200  0.85930  Biso   1.000  H
  N12      1.0000 0.14080  0.34420  0.82230  Biso   1.000  N
  C35      1.0000 0.10800  0.38910  0.81890  Biso   1.000  C
  H23      1.0000 0.10180  0.43250  0.79580  Biso   1.000  H
  C36      1.0000 0.08260  0.37630  0.84700  Biso   1.000  C
  H24      1.0000 0.05990  0.41200  0.84400  Biso   1.000  H
  I7       1.0000 0.38740  0.76280  0.41000  Biso   1.000  I
  Zn4      1.0000 0.17920  0.64170  0.28110  Biso   1.000  Zn
  I8       1.0000 0.13860  0.67640  0.20320  Biso   1.000  I
  I9       1.0000 0.24140  0.72480  0.31230  Biso   1.000  I
  Zn5      1.0000 0.87178  0.40828  0.44920  Biso   1.000  Zn
  I10      1.0000 0.85327  0.43000  0.52422  Biso   1.000  I
  I11      1.0000 0.88350  0.26080  0.41850  Biso   1.000  I
  Zn6      1.0000 0.67360  0.14140  0.27240  Biso   1.000  Zn
  I12      1.0000 0.62869  0.16270  0.19539  Biso   1.000  I
  I13      1.0000 0.73283  0.23980  0.29605  Biso   1.000  I
  Zn7      1.0000 0.58051  0.38034  0.09369  Biso   1.000  Zn
  I14      1.0000 0.61580  0.26599  0.05670  Biso   1.000  I
  I15      1.0000 0.52662  0.35478  0.13634  Biso   1.000  I
  N13      1.0000 0.82926  0.47170  0.40280  Biso   1.000  N
  C37      1.0000 0.82350  0.55750  0.40610  Biso   1.000  C
  H25      1.0000 0.83940  0.58890  0.43040  Biso   1.000  H
  C38      1.0000 0.79560  0.60430  0.37630  Biso   1.000  C
  H26      1.0000 0.79340  0.66660  0.37950  Biso   1.000  H
  C39      1.0000 0.77100  0.56040  0.34200  Biso   1.000  C
  C40      1.0000 0.77620  0.47010  0.33880  Biso   1.000  C
  H27      1.0000 0.76000  0.43680  0.31550  Biso   1.000  H
  C41      1.0000 0.80520  0.42890  0.37020  Biso   1.000  C
  H28      1.0000 0.80800  0.36650  0.36830  Biso   1.000  H
  C42      1.0000 0.74000  0.60680  0.30920  Biso   1.000  C
  N14      1.0000 0.73472  0.69200  0.31410  Biso   1.000  N
  C43      1.0000 0.70650  0.72810  0.28300  Biso   1.000  C
  N15      1.0000 0.68314  0.68390  0.24910  Biso   1.000  N
  C44      1.0000 0.69200  0.59800  0.24690  Biso   1.000  C
  N16      1.0000 0.72108  0.55660  0.27500  Biso   1.000  N
  C45      1.0000 0.69970  0.82570  0.28350  Biso   1.000  C
  C46      1.0000 0.72240  0.88120  0.31460  Biso   1.000  C
  H29      1.0000 0.74230  0.85800  0.33800  Biso   1.000  H
  C47      1.0000 0.71560  0.97090  0.31100  Biso   1.000  C
  H30      1.0000 0.73180  0.00910  0.33190  Biso   1.000  H
  N17      1.0000 0.68770  0.00670  0.28000  Biso   1.000  N
  C48      1.0000 0.66580  0.95280  0.25010  Biso   1.000  C
  H31      1.0000 0.64560  0.97760  0.22750  Biso   1.000  H
  C49      1.0000 0.67140  0.86340  0.25070  Biso   1.000  C
  H32      1.0000 0.65570  0.82720  0.22830  Biso   1.000  H
  C50      1.0000 0.66890  0.54720  0.20840  Biso   1.000  C
  C51      1.0000 0.67530  0.45800  0.20170  Biso   1.000  C
  H33      1.0000 0.69600  0.42750  0.22090  Biso   1.000  H
  C52      1.0000 0.65100  0.41420  0.16650  Biso   1.000  C
  H34      1.0000 0.65540  0.35300  0.16230  Biso   1.000  H
  N18      1.0000 0.62197  0.45320  0.13860  Biso   1.000  N
  C53      1.0000 0.61660  0.53830  0.14470  Biso   1.000  C
  H35      1.0000 0.59570  0.56710  0.12480  Biso   1.000  H
  C54      1.0000 0.63950  0.58780  0.17810  Biso   1.000  C
  H36      1.0000 0.63510  0.64960  0.18020  Biso   1.000  H
  N19      1.0000 0.56208  0.47840  0.04570  Biso   1.000  N
  C55      1.0000 0.53490  0.53840  0.05000  Biso   1.000  C
  H37      1.0000 0.51960  0.52870  0.07200  Biso   1.000  H
  C56      1.0000 0.52840  0.61330  0.02390  Biso   1.000  C
  H38      1.0000 0.50920  0.65500  0.02850  Biso   1.000  H
  C57      1.0000 0.54944  0.62790  0.99140  Biso   1.000  C
  C58      1.0000 0.57580  0.56400  0.98520  Biso   1.000  C
  H39      1.0000 0.59010  0.57040  0.96190  Biso   1.000  H
  C59      1.0000 0.58140  0.49150  0.01260  Biso   1.000  C
  H40      1.0000 0.59990  0.44830  0.00790  Biso   1.000  H
  C60      1.0000 0.54525  0.71030  0.96440  Biso   1.000  C
  N20      1.0000 0.51792  0.76800  0.97050  Biso   1.000  N
  C61      1.0000 0.51408  0.83810  0.94230  Biso   1.000  C
  N21      1.0000 0.53515  0.85450  0.91160  Biso   1.000  N
  C62      1.0000 0.56330  0.79550  0.91080  Biso   1.000  C
  N22      1.0000 0.56913  0.72240  0.93560  Biso   1.000  N
  C63      1.0000 0.48170  0.90020  0.94480  Biso   1.000  C
  C64      1.0000 0.46600  0.90540  0.98290  Biso   1.000  C
  H41      1.0000 0.47640  0.86980  0.00850  Biso   1.000  H
  C65      1.0000 0.43580  0.96100  0.98410  Biso   1.000  C
  H42      1.0000 0.42560  0.96340  0.01090  Biso   1.000  H
  N23      1.0000 0.41966  0.01280  0.94900  Biso   1.000  N
  C66      1.0000 0.43460  0.00640  0.91270  Biso   1.000  C
  H43      1.0000 0.42350  0.04200  0.88730  Biso   1.000  H
  C67      1.0000 0.46530  0.95160  0.90890  Biso   1.000  C
  H44      1.0000 0.47480  0.94980  0.88170  Biso   1.000  H
  C68      1.0000 0.59000  0.81200  0.87950  Biso   1.000  C
  C69      1.0000 0.62380  0.76520  0.88360  Biso   1.000  C
  H45      1.0000 0.63000  0.72020  0.90590  Biso   1.000  H
  C70      1.0000 0.64920  0.78340  0.85530  Biso   1.000  C
  H46      1.0000 0.67320  0.75200  0.85930  Biso   1.000  H
  N24      1.0000 0.64080  0.84420  0.82230  Biso   1.000  N
  C71      1.0000 0.60800  0.88910  0.81890  Biso   1.000  C
  H47      1.0000 0.60180  0.93250  0.79580  Biso   1.000  H
  C72      1.0000 0.58260  0.87630  0.84700  Biso   1.000  C
  H48      1.0000 0.55990  0.91200  0.84400  Biso   1.000  H
  I16      1.0000 0.88740  0.26280  0.41000  Biso   1.000  I
  Zn8      1.0000 0.67920  0.14170  0.28110  Biso   1.000  Zn
  I17      1.0000 0.63860  0.17640  0.20320  Biso   1.000  I
  I18      1.0000 0.74140  0.22480  0.31230  Biso   1.000  I
  Zn9      1.0000 0.37178  0.09172  0.94920  Biso   1.000  Zn
  I19      1.0000 0.35327  0.07000  0.02422  Biso   1.000  I
  I20      1.0000 0.38350  0.23920  0.91850  Biso   1.000  I
  Zn10     1.0000 0.17360  0.35860  0.77240  Biso   1.000  Zn
  I21      1.0000 0.12869  0.33730  0.69539  Biso   1.000  I
  I22      1.0000 0.23283  0.26020  0.79605  Biso   1.000  I
  Zn11     1.0000 0.08051  0.11966  0.59369  Biso   1.000  Zn
  I23      1.0000 0.11580  0.23401  0.55670  Biso   1.000  I
  I24      1.0000 0.02662  0.14522  0.63634  Biso   1.000  I
  N25      1.0000 0.32926  0.02830  0.90280  Biso   1.000  N
  C73      1.0000 0.32350  0.94250  0.90610  Biso   1.000  C
  H49      1.0000 0.33940  0.91110  0.93040  Biso   1.000  H
  C74      1.0000 0.29560  0.89570  0.87630  Biso   1.000  C
  H50      1.0000 0.29340  0.83340  0.87950  Biso   1.000  H
  C75      1.0000 0.27100  0.93960  0.84200  Biso   1.000  C
  C76      1.0000 0.27620  0.02990  0.83880  Biso   1.000  C
  H51      1.0000 0.26000  0.06320  0.81550  Biso   1.000  H
  C77      1.0000 0.30520  0.07110  0.87020  Biso   1.000  C
  H52      1.0000 0.30800  0.13350  0.86830  Biso   1.000  H
  C78      1.0000 0.24000  0.89320  0.80920  Biso   1.000  C
  N26      1.0000 0.23472  0.80800  0.81410  Biso   1.000  N
  C79      1.0000 0.20650  0.77190  0.78300  Biso   1.000  C
  N27      1.0000 0.18314  0.81610  0.74910  Biso   1.000  N
  C80      1.0000 0.19200  0.90200  0.74690  Biso   1.000  C
  N28      1.0000 0.22108  0.94340  0.77500  Biso   1.000  N
  C81      1.0000 0.19970  0.67430  0.78350  Biso   1.000  C
  C82      1.0000 0.22240  0.61880  0.81460  Biso   1.000  C
  H53      1.0000 0.24230  0.64200  0.83800  Biso   1.000  H
  C83      1.0000 0.21560  0.52910  0.81100  Biso   1.000  C
  H54      1.0000 0.23180  0.49090  0.83190  Biso   1.000  H
  N29      1.0000 0.18770  0.49330  0.78000  Biso   1.000  N
  C84      1.0000 0.16580  0.54720  0.75010  Biso   1.000  C
  H55      1.0000 0.14560  0.52240  0.72750  Biso   1.000  H
  C85      1.0000 0.17140  0.63660  0.75070  Biso   1.000  C
  H56      1.0000 0.15570  0.67280  0.72830  Biso   1.000  H
  C86      1.0000 0.16890  0.95280  0.70840  Biso   1.000  C
  C87      1.0000 0.17530  0.04200  0.70170  Biso   1.000  C
  H57      1.0000 0.19600  0.07250  0.72090  Biso   1.000  H
  C88      1.0000 0.15100  0.08580  0.66650  Biso   1.000  C
  H58      1.0000 0.15540  0.14700  0.66230  Biso   1.000  H
  N30      1.0000 0.12197  0.04680  0.63860  Biso   1.000  N
  C89      1.0000 0.11660  0.96170  0.64470  Biso   1.000  C
  H59      1.0000 0.09570  0.93290  0.62480  Biso   1.000  H
  C90      1.0000 0.13950  0.91220  0.67810  Biso   1.000  C
  H60      1.0000 0.13510  0.85040  0.68020  Biso   1.000  H
  N31      1.0000 0.06208  0.02160  0.54570  Biso   1.000  N
  C91      1.0000 0.03490  0.96160  0.55000  Biso   1.000  C
  H61      1.0000 0.01960  0.97130  0.57200  Biso   1.000  H
  C92      1.0000 0.02840  0.88670  0.52390  Biso   1.000  C
  H62      1.0000 0.00920  0.84500  0.52850  Biso   1.000  H
  C93      1.0000 0.04944  0.87210  0.49140  Biso   1.000  C
  C94      1.0000 0.07580  0.93600  0.48520  Biso   1.000  C
  H63      1.0000 0.09010  0.92960  0.46190  Biso   1.000  H
  C95      1.0000 0.08140  0.00850  0.51260  Biso   1.000  C
  H64      1.0000 0.09990  0.05170  0.50790  Biso   1.000  H
  C96      1.0000 0.04525  0.78970  0.46440  Biso   1.000  C
  N32      1.0000 0.01792  0.73200  0.47050  Biso   1.000  N
  C97      1.0000 0.01408  0.66190  0.44230  Biso   1.000  C
  N33      1.0000 0.03515  0.64550  0.41160  Biso   1.000  N
  C98      1.0000 0.06330  0.70450  0.41080  Biso   1.000  C
  N34      1.0000 0.06913  0.77760  0.43560  Biso   1.000  N
  C99      1.0000 0.98170  0.59980  0.44480  Biso   1.000  C
  C100     1.0000 0.96600  0.59460  0.48290  Biso   1.000  C
  H65      1.0000 0.97640  0.63020  0.50850  Biso   1.000  H
  C101     1.0000 0.93580  0.53900  0.48410  Biso   1.000  C
  H66      1.0000 0.92560  0.53660  0.51090  Biso   1.000  H
  N35      1.0000 0.91966  0.48720  0.44900  Biso   1.000  N
  C102     1.0000 0.93460  0.49360  0.41270  Biso   1.000  C
  H67      1.0000 0.92350  0.45800  0.38730  Biso   1.000  H
  C103     1.0000 0.96530  0.54840  0.40890  Biso   1.000  C
  H68      1.0000 0.97480  0.55020  0.38170  Biso   1.000  H
  C104     1.0000 0.09000  0.68800  0.37950  Biso   1.000  C
  C105     1.0000 0.12380  0.73480  0.38360  Biso   1.000  C
  H69      1.0000 0.13000  0.77980  0.40590  Biso   1.000  H
  C106     1.0000 0.14920  0.71660  0.35530  Biso   1.000  C
  H70      1.0000 0.17320  0.74800  0.35930  Biso   1.000  H
  N36      1.0000 0.14080  0.65580  0.32230  Biso   1.000  N
  C107     1.0000 0.10800  0.61090  0.31890  Biso   1.000  C
  H71      1.0000 0.10180  0.56750  0.29580  Biso   1.000  H
  C108     1.0000 0.08260  0.62370  0.34700  Biso   1.000  C
  H72      1.0000 0.05990  0.58800  0.34400  Biso   1.000  H
  I25      1.0000 0.38740  0.23720  0.91000  Biso   1.000  I
  Zn12     1.0000 0.17920  0.35830  0.78110  Biso   1.000  Zn
  I26      1.0000 0.13860  0.32360  0.70320  Biso   1.000  I
  I27      1.0000 0.24140  0.27520  0.81230  Biso   1.000  I
  Zn13     1.0000 0.87178  0.59172  0.94920  Biso   1.000  Zn
  I28      1.0000 0.85327  0.57000  0.02422  Biso   1.000  I
  I29      1.0000 0.88350  0.73920  0.91850  Biso   1.000  I
  Zn14     1.0000 0.67360  0.85860  0.77240  Biso   1.000  Zn
  I30      1.0000 0.62869  0.83730  0.69539  Biso   1.000  I
  I31      1.0000 0.73283  0.76020  0.79605  Biso   1.000  I
  Zn15     1.0000 0.58051  0.61966  0.59369  Biso   1.000  Zn
  I32      1.0000 0.61580  0.73401  0.55670  Biso   1.000  I
  I33      1.0000 0.52662  0.64522  0.63634  Biso   1.000  I
  N37      1.0000 0.82926  0.52830  0.90280  Biso   1.000  N
  C109     1.0000 0.82350  0.44250  0.90610  Biso   1.000  C
  H73      1.0000 0.83940  0.41110  0.93040  Biso   1.000  H
  C110     1.0000 0.79560  0.39570  0.87630  Biso   1.000  C
  H74      1.0000 0.79340  0.33340  0.87950  Biso   1.000  H
  C111     1.0000 0.77100  0.43960  0.84200  Biso   1.000  C
  C112     1.0000 0.77620  0.52990  0.83880  Biso   1.000  C
  H75      1.0000 0.76000  0.56320  0.81550  Biso   1.000  H
  C113     1.0000 0.80520  0.57110  0.87020  Biso   1.000  C
  H76      1.0000 0.80800  0.63350  0.86830  Biso   1.000  H
  C114     1.0000 0.74000  0.39320  0.80920  Biso   1.000  C
  N38      1.0000 0.73472  0.30800  0.81410  Biso   1.000  N
  C115     1.0000 0.70650  0.27190  0.78300  Biso   1.000  C
  N39      1.0000 0.68314  0.31610  0.74910  Biso   1.000  N
  C116     1.0000 0.69200  0.40200  0.74690  Biso   1.000  C
  N40      1.0000 0.72108  0.44340  0.77500  Biso   1.000  N
  C117     1.0000 0.69970  0.17430  0.78350  Biso   1.000  C
  C118     1.0000 0.72240  0.11880  0.81460  Biso   1.000  C
  H77      1.0000 0.74230  0.14200  0.83800  Biso   1.000  H
  C119     1.0000 0.71560  0.02910  0.81100  Biso   1.000  C
  H78      1.0000 0.73180  0.99090  0.83190  Biso   1.000  H
  N41      1.0000 0.68770  0.99330  0.78000  Biso   1.000  N
  C120     1.0000 0.66580  0.04720  0.75010  Biso   1.000  C
  H79      1.0000 0.64560  0.02240  0.72750  Biso   1.000  H
  C121     1.0000 0.67140  0.13660  0.75070  Biso   1.000  C
  H80      1.0000 0.65570  0.17280  0.72830  Biso   1.000  H
  C122     1.0000 0.66890  0.45280  0.70840  Biso   1.000  C
  C123     1.0000 0.67530  0.54200  0.70170  Biso   1.000  C
  H81      1.0000 0.69600  0.57250  0.72090  Biso   1.000  H
  C124     1.0000 0.65100  0.58580  0.66650  Biso   1.000  C
  H82      1.0000 0.65540  0.64700  0.66230  Biso   1.000  H
  N42      1.0000 0.62197  0.54680  0.63860  Biso   1.000  N
  C125     1.0000 0.61660  0.46170  0.64470  Biso   1.000  C
  H83      1.0000 0.59570  0.43290  0.62480  Biso   1.000  H
  C126     1.0000 0.63950  0.41220  0.67810  Biso   1.000  C
  H84      1.0000 0.63510  0.35040  0.68020  Biso   1.000  H
  N43      1.0000 0.56208  0.52160  0.54570  Biso   1.000  N
  C127     1.0000 0.53490  0.46160  0.55000  Biso   1.000  C
  H85      1.0000 0.51960  0.47130  0.57200  Biso   1.000  H
  C128     1.0000 0.52840  0.38670  0.52390  Biso   1.000  C
  H86      1.0000 0.50920  0.34500  0.52850  Biso   1.000  H
  C129     1.0000 0.54944  0.37210  0.49140  Biso   1.000  C
  C130     1.0000 0.57580  0.43600  0.48520  Biso   1.000  C
  H87      1.0000 0.59010  0.42960  0.46190  Biso   1.000  H
  C131     1.0000 0.58140  0.50850  0.51260  Biso   1.000  C
  H88      1.0000 0.59990  0.55170  0.50790  Biso   1.000  H
  C132     1.0000 0.54525  0.28970  0.46440  Biso   1.000  C
  N44      1.0000 0.51792  0.23200  0.47050  Biso   1.000  N
  C133     1.0000 0.51408  0.16190  0.44230  Biso   1.000  C
  N45      1.0000 0.53515  0.14550  0.41160  Biso   1.000  N
  C134     1.0000 0.56330  0.20450  0.41080  Biso   1.000  C
  N46      1.0000 0.56913  0.27760  0.43560  Biso   1.000  N
  C135     1.0000 0.48170  0.09980  0.44480  Biso   1.000  C
  C136     1.0000 0.46600  0.09460  0.48290  Biso   1.000  C
  H89      1.0000 0.47640  0.13020  0.50850  Biso   1.000  H
  C137     1.0000 0.43580  0.03900  0.48410  Biso   1.000  C
  H90      1.0000 0.42560  0.03660  0.51090  Biso   1.000  H
  N47      1.0000 0.41966  0.98720  0.44900  Biso   1.000  N
  C138     1.0000 0.43460  0.99360  0.41270  Biso   1.000  C
  H91      1.0000 0.42350  0.95800  0.38730  Biso   1.000  H
  C139     1.0000 0.46530  0.04840  0.40890  Biso   1.000  C
  H92      1.0000 0.47480  0.05020  0.38170  Biso   1.000  H
  C140     1.0000 0.59000  0.18800  0.37950  Biso   1.000  C
  C141     1.0000 0.62380  0.23480  0.38360  Biso   1.000  C
  H93      1.0000 0.63000  0.27980  0.40590  Biso   1.000  H
  C142     1.0000 0.64920  0.21660  0.35530  Biso   1.000  C
  H94      1.0000 0.67320  0.24800  0.35930  Biso   1.000  H
  N48      1.0000 0.64080  0.15580  0.32230  Biso   1.000  N
  C143     1.0000 0.60800  0.11090  0.31890  Biso   1.000  C
  H95      1.0000 0.60180  0.06750  0.29580  Biso   1.000  H
  C144     1.0000 0.58260  0.12370  0.34700  Biso   1.000  C
  H96      1.0000 0.55990  0.08800  0.34400  Biso   1.000  H
  I34      1.0000 0.88740  0.73720  0.91000  Biso   1.000  I
  Zn16     1.0000 0.67920  0.85830  0.78110  Biso   1.000  Zn
  I35      1.0000 0.63860  0.82360  0.70320  Biso   1.000  I
  I36      1.0000 0.74140  0.77520  0.81230  Biso   1.000  I
  Zn17     1.0000 0.62822  0.90828  0.05080  Biso   1.000  Zn
  I37      1.0000 0.64673  0.93000  0.97578  Biso   1.000  I
  I38      1.0000 0.61650  0.76080  0.08150  Biso   1.000  I
  Zn18     1.0000 0.82640  0.64140  0.22760  Biso   1.000  Zn
  I39      1.0000 0.87131  0.66270  0.30461  Biso   1.000  I
  I40      1.0000 0.76717  0.73980  0.20395  Biso   1.000  I
  Zn19     1.0000 0.91949  0.88034  0.40631  Biso   1.000  Zn
  I41      1.0000 0.88420  0.76599  0.44330  Biso   1.000  I
  I42      1.0000 0.97338  0.85478  0.36366  Biso   1.000  I
  N49      1.0000 0.67074  0.97170  0.09720  Biso   1.000  N
  C145     1.0000 0.67650  0.05750  0.09390  Biso   1.000  C
  H97      1.0000 0.66060  0.08890  0.06960  Biso   1.000  H
  C146     1.0000 0.70440  0.10430  0.12370  Biso   1.000  C
  H98      1.0000 0.70660  0.16660  0.12050  Biso   1.000  H
  C147     1.0000 0.72900  0.06040  0.15800  Biso   1.000  C
  C148     1.0000 0.72380  0.97010  0.16120  Biso   1.000  C
  H99      1.0000 0.74000  0.93680  0.18450  Biso   1.000  H
  C149     1.0000 0.69480  0.92890  0.12980  Biso   1.000  C
  H100     1.0000 0.69200  0.86650  0.13170  Biso   1.000  H
  C150     1.0000 0.76000  0.10680  0.19080  Biso   1.000  C
  N50      1.0000 0.76528  0.19200  0.18590  Biso   1.000  N
  C151     1.0000 0.79350  0.22810  0.21700  Biso   1.000  C
  N51      1.0000 0.81686  0.18390  0.25090  Biso   1.000  N
  C152     1.0000 0.80800  0.09800  0.25310  Biso   1.000  C
  N52      1.0000 0.77892  0.05660  0.22500  Biso   1.000  N
  C153     1.0000 0.80030  0.32570  0.21650  Biso   1.000  C
  C154     1.0000 0.77760  0.38120  0.18540  Biso   1.000  C
  H101     1.0000 0.75770  0.35800  0.16200  Biso   1.000  H
  C155     1.0000 0.78440  0.47090  0.18900  Biso   1.000  C
  H102     1.0000 0.76820  0.50910  0.16810  Biso   1.000  H
  N53      1.0000 0.81230  0.50670  0.22000  Biso   1.000  N
  C156     1.0000 0.83420  0.45280  0.24990  Biso   1.000  C
  H103     1.0000 0.85440  0.47760  0.27250  Biso   1.000  H
  C157     1.0000 0.82860  0.36340  0.24930  Biso   1.000  C
  H104     1.0000 0.84430  0.32720  0.27170  Biso   1.000  H
  C158     1.0000 0.83110  0.04720  0.29160  Biso   1.000  C
  C159     1.0000 0.82470  0.95800  0.29830  Biso   1.000  C
  H105     1.0000 0.80400  0.92750  0.27910  Biso   1.000  H
  C160     1.0000 0.84900  0.91420  0.33350  Biso   1.000  C
  H106     1.0000 0.84460  0.85300  0.33770  Biso   1.000  H
  N54      1.0000 0.87803  0.95320  0.36140  Biso   1.000  N
  C161     1.0000 0.88340  0.03830  0.35530  Biso   1.000  C
  H107     1.0000 0.90430  0.06710  0.37520  Biso   1.000  H
  C162     1.0000 0.86050  0.08780  0.32190  Biso   1.000  C
  H108     1.0000 0.86490  0.14960  0.31980  Biso   1.000  H
  N55      1.0000 0.93792  0.97840  0.45430  Biso   1.000  N
  C163     1.0000 0.96510  0.03840  0.45000  Biso   1.000  C
  H109     1.0000 0.98040  0.02870  0.42800  Biso   1.000  H
  C164     1.0000 0.97160  0.11330  0.47610  Biso   1.000  C
  H110     1.0000 0.99080  0.15500  0.47150  Biso   1.000  H
  C165     1.0000 0.95056  0.12790  0.50860  Biso   1.000  C
  C166     1.0000 0.92420  0.06400  0.51480  Biso   1.000  C
  H111     1.0000 0.90990  0.07040  0.53810  Biso   1.000  H
  C167     1.0000 0.91860  0.99150  0.48740  Biso   1.000  C
  H112     1.0000 0.90010  0.94830  0.49210  Biso   1.000  H
  C168     1.0000 0.95475  0.21030  0.53560  Biso   1.000  C
  N56      1.0000 0.98208  0.26800  0.52950  Biso   1.000  N
  C169     1.0000 0.98592  0.33810  0.55770  Biso   1.000  C
  N57      1.0000 0.96485  0.35450  0.58840  Biso   1.000  N
  C170     1.0000 0.93670  0.29550  0.58920  Biso   1.000  C
  N58      1.0000 0.93087  0.22240  0.56440  Biso   1.000  N
  C171     1.0000 0.01830  0.40020  0.55520  Biso   1.000  C
  C172     1.0000 0.03400  0.40540  0.51710  Biso   1.000  C
  H113     1.0000 0.02360  0.36980  0.49150  Biso   1.000  H
  C173     1.0000 0.06420  0.46100  0.51590  Biso   1.000  C
  H114     1.0000 0.07440  0.46340  0.48910  Biso   1.000  H
  N59      1.0000 0.08034  0.51280  0.55100  Biso   1.000  N
  C174     1.0000 0.06540  0.50640  0.58730  Biso   1.000  C
  H115     1.0000 0.07650  0.54200  0.61270  Biso   1.000  H
  C175     1.0000 0.03470  0.45160  0.59110  Biso   1.000  C
  H116     1.0000 0.02520  0.44980  0.61830  Biso   1.000  H
  C176     1.0000 0.91000  0.31200  0.62050  Biso   1.000  C
  C177     1.0000 0.87620  0.26520  0.61640  Biso   1.000  C
  H117     1.0000 0.87000  0.22020  0.59410  Biso   1.000  H
  C178     1.0000 0.85080  0.28340  0.64470  Biso   1.000  C
  H118     1.0000 0.82680  0.25200  0.64070  Biso   1.000  H
  N60      1.0000 0.85920  0.34420  0.67770  Biso   1.000  N
  C179     1.0000 0.89200  0.38910  0.68110  Biso   1.000  C
  H119     1.0000 0.89820  0.43250  0.70420  Biso   1.000  H
  C180     1.0000 0.91740  0.37630  0.65300  Biso   1.000  C
  H120     1.0000 0.94010  0.41200  0.65600  Biso   1.000  H
  I43      1.0000 0.61260  0.76280  0.09000  Biso   1.000  I
  Zn20     1.0000 0.82080  0.64170  0.21890  Biso   1.000  Zn
  I44      1.0000 0.86140  0.67640  0.29680  Biso   1.000  I
  I45      1.0000 0.75860  0.72480  0.18770  Biso   1.000  I
  Zn21     1.0000 0.12822  0.40828  0.05080  Biso   1.000  Zn
  I46      1.0000 0.14673  0.43000  0.97578  Biso   1.000  I
  I47      1.0000 0.11650  0.26080  0.08150  Biso   1.000  I
  Zn22     1.0000 0.32640  0.14140  0.22760  Biso   1.000  Zn
  I48      1.0000 0.37131  0.16270  0.30461  Biso   1.000  I
  I49      1.0000 0.26717  0.23980  0.20395  Biso   1.000  I
  Zn23     1.0000 0.41949  0.38034  0.40631  Biso   1.000  Zn
  I50      1.0000 0.38420  0.26599  0.44330  Biso   1.000  I
  I51      1.0000 0.47338  0.35478  0.36366  Biso   1.000  I
  N61      1.0000 0.17074  0.47170  0.09720  Biso   1.000  N
  C181     1.0000 0.17650  0.55750  0.09390  Biso   1.000  C
  H121     1.0000 0.16060  0.58890  0.06960  Biso   1.000  H
  C182     1.0000 0.20440  0.60430  0.12370  Biso   1.000  C
  H122     1.0000 0.20660  0.66660  0.12050  Biso   1.000  H
  C183     1.0000 0.22900  0.56040  0.15800  Biso   1.000  C
  C184     1.0000 0.22380  0.47010  0.16120  Biso   1.000  C
  H123     1.0000 0.24000  0.43680  0.18450  Biso   1.000  H
  C185     1.0000 0.19480  0.42890  0.12980  Biso   1.000  C
  H124     1.0000 0.19200  0.36650  0.13170  Biso   1.000  H
  C186     1.0000 0.26000  0.60680  0.19080  Biso   1.000  C
  N62      1.0000 0.26528  0.69200  0.18590  Biso   1.000  N
  C187     1.0000 0.29350  0.72810  0.21700  Biso   1.000  C
  N63      1.0000 0.31686  0.68390  0.25090  Biso   1.000  N
  C188     1.0000 0.30800  0.59800  0.25310  Biso   1.000  C
  N64      1.0000 0.27892  0.55660  0.22500  Biso   1.000  N
  C189     1.0000 0.30030  0.82570  0.21650  Biso   1.000  C
  C190     1.0000 0.27760  0.88120  0.18540  Biso   1.000  C
  H125     1.0000 0.25770  0.85800  0.16200  Biso   1.000  H
  C191     1.0000 0.28440  0.97090  0.18900  Biso   1.000  C
  H126     1.0000 0.26820  0.00910  0.16810  Biso   1.000  H
  N65      1.0000 0.31230  0.00670  0.22000  Biso   1.000  N
  C192     1.0000 0.33420  0.95280  0.24990  Biso   1.000  C
  H127     1.0000 0.35440  0.97760  0.27250  Biso   1.000  H
  C193     1.0000 0.32860  0.86340  0.24930  Biso   1.000  C
  H128     1.0000 0.34430  0.82720  0.27170  Biso   1.000  H
  C194     1.0000 0.33110  0.54720  0.29160  Biso   1.000  C
  C195     1.0000 0.32470  0.45800  0.29830  Biso   1.000  C
  H129     1.0000 0.30400  0.42750  0.27910  Biso   1.000  H
  C196     1.0000 0.34900  0.41420  0.33350  Biso   1.000  C
  H130     1.0000 0.34460  0.35300  0.33770  Biso   1.000  H
  N66      1.0000 0.37803  0.45320  0.36140  Biso   1.000  N
  C197     1.0000 0.38340  0.53830  0.35530  Biso   1.000  C
  H131     1.0000 0.40430  0.56710  0.37520  Biso   1.000  H
  C198     1.0000 0.36050  0.58780  0.32190  Biso   1.000  C
  H132     1.0000 0.36490  0.64960  0.31980  Biso   1.000  H
  N67      1.0000 0.43792  0.47840  0.45430  Biso   1.000  N
  C199     1.0000 0.46510  0.53840  0.45000  Biso   1.000  C
  H133     1.0000 0.48040  0.52870  0.42800  Biso   1.000  H
  C200     1.0000 0.47160  0.61330  0.47610  Biso   1.000  C
  H134     1.0000 0.49080  0.65500  0.47150  Biso   1.000  H
  C201     1.0000 0.45056  0.62790  0.50860  Biso   1.000  C
  C202     1.0000 0.42420  0.56400  0.51480  Biso   1.000  C
  H135     1.0000 0.40990  0.57040  0.53810  Biso   1.000  H
  C203     1.0000 0.41860  0.49150  0.48740  Biso   1.000  C
  H136     1.0000 0.40010  0.44830  0.49210  Biso   1.000  H
  C204     1.0000 0.45475  0.71030  0.53560  Biso   1.000  C
  N68      1.0000 0.48208  0.76800  0.52950  Biso   1.000  N
  C205     1.0000 0.48592  0.83810  0.55770  Biso   1.000  C
  N69      1.0000 0.46485  0.85450  0.58840  Biso   1.000  N
  C206     1.0000 0.43670  0.79550  0.58920  Biso   1.000  C
  N70      1.0000 0.43087  0.72240  0.56440  Biso   1.000  N
  C207     1.0000 0.51830  0.90020  0.55520  Biso   1.000  C
  C208     1.0000 0.53400  0.90540  0.51710  Biso   1.000  C
  H137     1.0000 0.52360  0.86980  0.49150  Biso   1.000  H
  C209     1.0000 0.56420  0.96100  0.51590  Biso   1.000  C
  H138     1.0000 0.57440  0.96340  0.48910  Biso   1.000  H
  N71      1.0000 0.58034  0.01280  0.55100  Biso   1.000  N
  C210     1.0000 0.56540  0.00640  0.58730  Biso   1.000  C
  H139     1.0000 0.57650  0.04200  0.61270  Biso   1.000  H
  C211     1.0000 0.53470  0.95160  0.59110  Biso   1.000  C
  H140     1.0000 0.52520  0.94980  0.61830  Biso   1.000  H
  C212     1.0000 0.41000  0.81200  0.62050  Biso   1.000  C
  C213     1.0000 0.37620  0.76520  0.61640  Biso   1.000  C
  H141     1.0000 0.37000  0.72020  0.59410  Biso   1.000  H
  C214     1.0000 0.35080  0.78340  0.64470  Biso   1.000  C
  H142     1.0000 0.32680  0.75200  0.64070  Biso   1.000  H
  N72      1.0000 0.35920  0.84420  0.67770  Biso   1.000  N
  C215     1.0000 0.39200  0.88910  0.68110  Biso   1.000  C
  H143     1.0000 0.39820  0.93250  0.70420  Biso   1.000  H
  C216     1.0000 0.41740  0.87630  0.65300  Biso   1.000  C
  H144     1.0000 0.44010  0.91200  0.65600  Biso   1.000  H
  I52      1.0000 0.11260  0.26280  0.09000  Biso   1.000  I
  Zn24     1.0000 0.32080  0.14170  0.21890  Biso   1.000  Zn
  I53      1.0000 0.36140  0.17640  0.29680  Biso   1.000  I
  I54      1.0000 0.25860  0.22480  0.18770  Biso   1.000  I
  Zn25     1.0000 0.62822  0.09172  0.55080  Biso   1.000  Zn
  I55      1.0000 0.64673  0.07000  0.47578  Biso   1.000  I
  I56      1.0000 0.61650  0.23920  0.58150  Biso   1.000  I
  Zn26     1.0000 0.82640  0.35860  0.72760  Biso   1.000  Zn
  I57      1.0000 0.87131  0.33730  0.80461  Biso   1.000  I
  I58      1.0000 0.76717  0.26020  0.70395  Biso   1.000  I
  Zn27     1.0000 0.91949  0.11966  0.90631  Biso   1.000  Zn
  I59      1.0000 0.88420  0.23401  0.94330  Biso   1.000  I
  I60      1.0000 0.97338  0.14522  0.86366  Biso   1.000  I
  N73      1.0000 0.67074  0.02830  0.59720  Biso   1.000  N
  C217     1.0000 0.67650  0.94250  0.59390  Biso   1.000  C
  H145     1.0000 0.66060  0.91110  0.56960  Biso   1.000  H
  C218     1.0000 0.70440  0.89570  0.62370  Biso   1.000  C
  H146     1.0000 0.70660  0.83340  0.62050  Biso   1.000  H
  C219     1.0000 0.72900  0.93960  0.65800  Biso   1.000  C
  C220     1.0000 0.72380  0.02990  0.66120  Biso   1.000  C
  H147     1.0000 0.74000  0.06320  0.68450  Biso   1.000  H
  C221     1.0000 0.69480  0.07110  0.62980  Biso   1.000  C
  H148     1.0000 0.69200  0.13350  0.63170  Biso   1.000  H
  C222     1.0000 0.76000  0.89320  0.69080  Biso   1.000  C
  N74      1.0000 0.76528  0.80800  0.68590  Biso   1.000  N
  C223     1.0000 0.79350  0.77190  0.71700  Biso   1.000  C
  N75      1.0000 0.81686  0.81610  0.75090  Biso   1.000  N
  C224     1.0000 0.80800  0.90200  0.75310  Biso   1.000  C
  N76      1.0000 0.77892  0.94340  0.72500  Biso   1.000  N
  C225     1.0000 0.80030  0.67430  0.71650  Biso   1.000  C
  C226     1.0000 0.77760  0.61880  0.68540  Biso   1.000  C
  H149     1.0000 0.75770  0.64200  0.66200  Biso   1.000  H
  C227     1.0000 0.78440  0.52910  0.68900  Biso   1.000  C
  H150     1.0000 0.76820  0.49090  0.66810  Biso   1.000  H
  N77      1.0000 0.81230  0.49330  0.72000  Biso   1.000  N
  C228     1.0000 0.83420  0.54720  0.74990  Biso   1.000  C
  H151     1.0000 0.85440  0.52240  0.77250  Biso   1.000  H
  C229     1.0000 0.82860  0.63660  0.74930  Biso   1.000  C
  H152     1.0000 0.84430  0.67280  0.77170  Biso   1.000  H
  C230     1.0000 0.83110  0.95280  0.79160  Biso   1.000  C
  C231     1.0000 0.82470  0.04200  0.79830  Biso   1.000  C
  H153     1.0000 0.80400  0.07250  0.77910  Biso   1.000  H
  C232     1.0000 0.84900  0.08580  0.83350  Biso   1.000  C
  H154     1.0000 0.84460  0.14700  0.83770  Biso   1.000  H
  N78      1.0000 0.87803  0.04680  0.86140  Biso   1.000  N
  C233     1.0000 0.88340  0.96170  0.85530  Biso   1.000  C
  H155     1.0000 0.90430  0.93290  0.87520  Biso   1.000  H
  C234     1.0000 0.86050  0.91220  0.82190  Biso   1.000  C
  H156     1.0000 0.86490  0.85040  0.81980  Biso   1.000  H
  N79      1.0000 0.93792  0.02160  0.95430  Biso   1.000  N
  C235     1.0000 0.96510  0.96160  0.95000  Biso   1.000  C
  H157     1.0000 0.98040  0.97130  0.92800  Biso   1.000  H
  C236     1.0000 0.97160  0.88670  0.97610  Biso   1.000  C
  H158     1.0000 0.99080  0.84500  0.97150  Biso   1.000  H
  C237     1.0000 0.95056  0.87210  0.00860  Biso   1.000  C
  C238     1.0000 0.92420  0.93600  0.01480  Biso   1.000  C
  H159     1.0000 0.90990  0.92960  0.03810  Biso   1.000  H
  C239     1.0000 0.91860  0.00850  0.98740  Biso   1.000  C
  H160     1.0000 0.90010  0.05170  0.99210  Biso   1.000  H
  C240     1.0000 0.95475  0.78970  0.03560  Biso   1.000  C
  N80      1.0000 0.98208  0.73200  0.02950  Biso   1.000  N
  C241     1.0000 0.98592  0.66190  0.05770  Biso   1.000  C
  N81      1.0000 0.96485  0.64550  0.08840  Biso   1.000  N
  C242     1.0000 0.93670  0.70450  0.08920  Biso   1.000  C
  N82      1.0000 0.93087  0.77760  0.06440  Biso   1.000  N
  C243     1.0000 0.01830  0.59980  0.05520  Biso   1.000  C
  C244     1.0000 0.03400  0.59460  0.01710  Biso   1.000  C
  H161     1.0000 0.02360  0.63020  0.99150  Biso   1.000  H
  C245     1.0000 0.06420  0.53900  0.01590  Biso   1.000  C
  H162     1.0000 0.07440  0.53660  0.98910  Biso   1.000  H
  N83      1.0000 0.08034  0.48720  0.05100  Biso   1.000  N
  C246     1.0000 0.06540  0.49360  0.08730  Biso   1.000  C
  H163     1.0000 0.07650  0.45800  0.11270  Biso   1.000  H
  C247     1.0000 0.03470  0.54840  0.09110  Biso   1.000  C
  H164     1.0000 0.02520  0.55020  0.11830  Biso   1.000  H
  C248     1.0000 0.91000  0.68800  0.12050  Biso   1.000  C
  C249     1.0000 0.87620  0.73480  0.11640  Biso   1.000  C
  H165     1.0000 0.87000  0.77980  0.09410  Biso   1.000  H
  C250     1.0000 0.85080  0.71660  0.14470  Biso   1.000  C
  H166     1.0000 0.82680  0.74800  0.14070  Biso   1.000  H
  N84      1.0000 0.85920  0.65580  0.17770  Biso   1.000  N
  C251     1.0000 0.89200  0.61090  0.18110  Biso   1.000  C
  H167     1.0000 0.89820  0.56750  0.20420  Biso   1.000  H
  C252     1.0000 0.91740  0.62370  0.15300  Biso   1.000  C
  H168     1.0000 0.94010  0.58800  0.15600  Biso   1.000  H
  I61      1.0000 0.61260  0.23720  0.59000  Biso   1.000  I
  Zn28     1.0000 0.82080  0.35830  0.71890  Biso   1.000  Zn
  I62      1.0000 0.86140  0.32360  0.79680  Biso   1.000  I
  I63      1.0000 0.75860  0.27520  0.68770  Biso   1.000  I
  Zn29     1.0000 0.12822  0.59172  0.55080  Biso   1.000  Zn
  I64      1.0000 0.14673  0.57000  0.47578  Biso   1.000  I
  I65      1.0000 0.11650  0.73920  0.58150  Biso   1.000  I
  Zn30     1.0000 0.32640  0.85860  0.72760  Biso   1.000  Zn
  I66      1.0000 0.37131  0.83730  0.80461  Biso   1.000  I
  I67      1.0000 0.26717  0.76020  0.70395  Biso   1.000  I
  Zn31     1.0000 0.41949  0.61966  0.90631  Biso   1.000  Zn
  I68      1.0000 0.38420  0.73401  0.94330  Biso   1.000  I
  I69      1.0000 0.47338  0.64522  0.86366  Biso   1.000  I
  N85      1.0000 0.17074  0.52830  0.59720  Biso   1.000  N
  C253     1.0000 0.17650  0.44250  0.59390  Biso   1.000  C
  H169     1.0000 0.16060  0.41110  0.56960  Biso   1.000  H
  C254     1.0000 0.20440  0.39570  0.62370  Biso   1.000  C
  H170     1.0000 0.20660  0.33340  0.62050  Biso   1.000  H
  C255     1.0000 0.22900  0.43960  0.65800  Biso   1.000  C
  C256     1.0000 0.22380  0.52990  0.66120  Biso   1.000  C
  H171     1.0000 0.24000  0.56320  0.68450  Biso   1.000  H
  C257     1.0000 0.19480  0.57110  0.62980  Biso   1.000  C
  H172     1.0000 0.19200  0.63350  0.63170  Biso   1.000  H
  C258     1.0000 0.26000  0.39320  0.69080  Biso   1.000  C
  N86      1.0000 0.26528  0.30800  0.68590  Biso   1.000  N
  C259     1.0000 0.29350  0.27190  0.71700  Biso   1.000  C
  N87      1.0000 0.31686  0.31610  0.75090  Biso   1.000  N
  C260     1.0000 0.30800  0.40200  0.75310  Biso   1.000  C
  N88      1.0000 0.27892  0.44340  0.72500  Biso   1.000  N
  C261     1.0000 0.30030  0.17430  0.71650  Biso   1.000  C
  C262     1.0000 0.27760  0.11880  0.68540  Biso   1.000  C
  H173     1.0000 0.25770  0.14200  0.66200  Biso   1.000  H
  C263     1.0000 0.28440  0.02910  0.68900  Biso   1.000  C
  H174     1.0000 0.26820  0.99090  0.66810  Biso   1.000  H
  N89      1.0000 0.31230  0.99330  0.72000  Biso   1.000  N
  C264     1.0000 0.33420  0.04720  0.74990  Biso   1.000  C
  H175     1.0000 0.35440  0.02240  0.77250  Biso   1.000  H
  C265     1.0000 0.32860  0.13660  0.74930  Biso   1.000  C
  H176     1.0000 0.34430  0.17280  0.77170  Biso   1.000  H
  C266     1.0000 0.33110  0.45280  0.79160  Biso   1.000  C
  C267     1.0000 0.32470  0.54200  0.79830  Biso   1.000  C
  H177     1.0000 0.30400  0.57250  0.77910  Biso   1.000  H
  C268     1.0000 0.34900  0.58580  0.83350  Biso   1.000  C
  H178     1.0000 0.34460  0.64700  0.83770  Biso   1.000  H
  N90      1.0000 0.37803  0.54680  0.86140  Biso   1.000  N
  C269     1.0000 0.38340  0.46170  0.85530  Biso   1.000  C
  H179     1.0000 0.40430  0.43290  0.87520  Biso   1.000  H
  C270     1.0000 0.36050  0.41220  0.82190  Biso   1.000  C
  H180     1.0000 0.36490  0.35040  0.81980  Biso   1.000  H
  N91      1.0000 0.43792  0.52160  0.95430  Biso   1.000  N
  C271     1.0000 0.46510  0.46160  0.95000  Biso   1.000  C
  H181     1.0000 0.48040  0.47130  0.92800  Biso   1.000  H
  C272     1.0000 0.47160  0.38670  0.97610  Biso   1.000  C
  H182     1.0000 0.49080  0.34500  0.97150  Biso   1.000  H
  C273     1.0000 0.45056  0.37210  0.00860  Biso   1.000  C
  C274     1.0000 0.42420  0.43600  0.01480  Biso   1.000  C
  H183     1.0000 0.40990  0.42960  0.03810  Biso   1.000  H
  C275     1.0000 0.41860  0.50850  0.98740  Biso   1.000  C
  H184     1.0000 0.40010  0.55170  0.99210  Biso   1.000  H
  C276     1.0000 0.45475  0.28970  0.03560  Biso   1.000  C
  N92      1.0000 0.48208  0.23200  0.02950  Biso   1.000  N
  C277     1.0000 0.48592  0.16190  0.05770  Biso   1.000  C
  N93      1.0000 0.46485  0.14550  0.08840  Biso   1.000  N
  C278     1.0000 0.43670  0.20450  0.08920  Biso   1.000  C
  N94      1.0000 0.43087  0.27760  0.06440  Biso   1.000  N
  C279     1.0000 0.51830  0.09980  0.05520  Biso   1.000  C
  C280     1.0000 0.53400  0.09460  0.01710  Biso   1.000  C
  H185     1.0000 0.52360  0.13020  0.99150  Biso   1.000  H
  C281     1.0000 0.56420  0.03900  0.01590  Biso   1.000  C
  H186     1.0000 0.57440  0.03660  0.98910  Biso   1.000  H
  N95      1.0000 0.58034  0.98720  0.05100  Biso   1.000  N
  C282     1.0000 0.56540  0.99360  0.08730  Biso   1.000  C
  H187     1.0000 0.57650  0.95800  0.11270  Biso   1.000  H
  C283     1.0000 0.53470  0.04840  0.09110  Biso   1.000  C
  H188     1.0000 0.52520  0.05020  0.11830  Biso   1.000  H
  C284     1.0000 0.41000  0.18800  0.12050  Biso   1.000  C
  C285     1.0000 0.37620  0.23480  0.11640  Biso   1.000  C
  H189     1.0000 0.37000  0.27980  0.09410  Biso   1.000  H
  C286     1.0000 0.35080  0.21660  0.14470  Biso   1.000  C
  H190     1.0000 0.32680  0.24800  0.14070  Biso   1.000  H
  N96      1.0000 0.35920  0.15580  0.17770  Biso   1.000  N
  C287     1.0000 0.39200  0.11090  0.18110  Biso   1.000  C
  H191     1.0000 0.39820  0.06750  0.20420  Biso   1.000  H
  C288     1.0000 0.41740  0.12370  0.15300  Biso   1.000  C
  H192     1.0000 0.44010  0.08800  0.15600  Biso   1.000  H
  I70      1.0000 0.11260  0.73720  0.59000  Biso   1.000  I
  Zn32     1.0000 0.32080  0.85830  0.71890  Biso   1.000  Zn
  I71      1.0000 0.36140  0.82360  0.79680  Biso   1.000  I
  I72      1.0000 0.25860  0.77520  0.68770  Biso   1.000  I
