data_image0
_cell_length_a       19.458
_cell_length_b       22.577
_cell_length_c       45.763
_cell_angle_alpha    90
_cell_angle_beta     96.352
_cell_angle_gamma    90

_symmetry_space_group_name_H-M    "P 1"
_symmetry_int_tables_number       1

loop_
  _symmetry_equiv_pos_as_xyz
  'x, y, z'

loop_
  _atom_site_label
  _atom_site_occupancy
  _atom_site_fract_x
  _atom_site_fract_y
  _atom_site_fract_z
  _atom_site_thermal_displace_type
  _atom_site_B_iso_or_equiv
  _atom_site_type_symbol
  Rh1      1.0000 0.48822  0.98561  0.42632  Biso   1.000  Rh
  Rh2      1.0000 0.52571  0.89217  0.45118  Biso   1.000  Rh
  Rh3      1.0000 0.96425  0.35529  0.48121  Biso   1.000  Rh
  Rh4      1.0000 0.87636  0.39992  0.50915  Biso   1.000  Rh
  Rh5      1.0000 0.32589  0.40014  0.23437  Biso   1.000  Rh
  Rh6      1.0000 0.38134  0.40579  0.18892  Biso   1.000  Rh
  N1       1.0000 0.42250  0.93790  0.39890  Biso   1.000  N
  N2       1.0000 0.46700  0.84910  0.41930  Biso   1.000  N
  N3       1.0000 0.56400  0.97260  0.39970  Biso   1.000  N
  N4       1.0000 0.60780  0.89460  0.42780  Biso   1.000  N
  N5       1.0000 0.95680  0.28120  0.50550  Biso   1.000  N
  N6       1.0000 0.88680  0.32950  0.53632  Biso   1.000  N
  N7       1.0000 0.88610  0.32760  0.45120  Biso   1.000  N
  N8       1.0000 0.80330  0.35830  0.48150  Biso   1.000  N
  N9       1.0000 0.26370  0.46730  0.22010  Biso   1.000  N
  N10      1.0000 0.30350  0.46170  0.17360  Biso   1.000  N
  N11      1.0000 0.25950  0.33970  0.21360  Biso   1.000  N
  N12      1.0000 0.32880  0.33220  0.17473  Biso   1.000  N
  N13      1.0000 0.44440  0.07890  0.41390  Biso   1.000  N
  N14      1.0000 0.32270  0.26000  0.37130  Biso   1.000  N
  N15      1.0000 0.22840  0.31950  0.38092  Biso   1.000  N
  N16      1.0000 0.27130  0.24760  0.41582  Biso   1.000  N
  N17      1.0000 0.06050  0.33230  0.45700  Biso   1.000  N
  N18      1.0000 0.29950  0.38720  0.28230  Biso   1.000  N
  N19      1.0000 0.80460  0.45770  0.53276  Biso   1.000  N
  N20      1.0000 0.64350  0.62820  0.53606  Biso   1.000  N
  N21      1.0000 0.54960  0.65680  0.56181  Biso   1.000  N
  N22      1.0000 0.61390  0.56950  0.57555  Biso   1.000  N
  N23      1.0000 0.43970  0.58520  0.64868  Biso   1.000  N
  N24      1.0000 0.55000  0.80940  0.48070  Biso   1.000  N
  O1       1.0000 0.60600  0.10310  0.29920  Biso   1.000  O
  O2       1.0000 0.82660  0.73710  0.46190  Biso   1.000  O
  O3       1.0000 0.05310  0.05140  0.47920  Biso   1.000  O
  O4       1.0000 0.76980  0.32640  0.64240  Biso   1.000  O
  O5       1.0000 0.90550  0.26010  0.33460  Biso   1.000  O
  O6       1.0000 0.52750  0.40410  0.49420  Biso   1.000  O
  O7       1.0000 0.07350  0.58400  0.28310  Biso   1.000  O
  O8       1.0000 0.26080  0.55380  0.05950  Biso   1.000  O
  O9       1.0000 0.42020  0.20040  0.08320  Biso   1.000  O
  O10      1.0000 0.55770  0.02870  0.45633  Biso   1.000  O
  O11      1.0000 0.58300  0.94480  0.48284  Biso   1.000  O
  O12      1.0000 0.58340  0.00890  0.54392  Biso   1.000  O
  O13      1.0000 0.55850  0.09870  0.52489  Biso   1.000  O
  O14      1.0000 0.96530  0.43540  0.45911  Biso   1.000  O
  O15      1.0000 0.87370  0.46940  0.47981  Biso   1.000  O
  O16      1.0000 0.96370  0.60820  0.48638  Biso   1.000  O
  O17      1.0000 0.04550  0.55770  0.46589  Biso   1.000  O
  O18      1.0000 0.39110  0.33000  0.24570  Biso   1.000  O
  O19      1.0000 0.45990  0.35100  0.21072  Biso   1.000  O
  O20      1.0000 0.40280  0.45820  0.25187  Biso   1.000  O
  O21      1.0000 0.43880  0.47670  0.20776  Biso   1.000  O
  C1       1.0000 0.58790  0.00010  0.47810  Biso   1.000  C
  C2       1.0000 0.98310  0.57110  0.46880  Biso   1.000  C
  C3       1.0000 0.92220  0.47460  0.46360  Biso   1.000  C
  C4       1.0000 0.92760  0.53570  0.44920  Biso   1.000  C
  C5       1.0000 0.58910  0.04930  0.52530  Biso   1.000  C
  C6       1.0000 0.63440  0.03560  0.50080  Biso   1.000  C
  C7       1.0000 0.44600  0.32500  0.23380  Biso   1.000  C
  C8       1.0000 0.44260  0.48270  0.23550  Biso   1.000  C
  C9       1.0000 0.43310  0.10200  0.38690  Biso   1.000  C
  C10      1.0000 0.39280  0.15340  0.38030  Biso   1.000  C
  C11      1.0000 0.36310  0.18110  0.40360  Biso   1.000  C
  C12      1.0000 0.37550  0.15680  0.43230  Biso   1.000  C
  C13      1.0000 0.41830  0.10640  0.43630  Biso   1.000  C
  C14      1.0000 0.31780  0.23280  0.39690  Biso   1.000  C
  C15      1.0000 0.27820  0.30370  0.36440  Biso   1.000  C
  C16      1.0000 0.22800  0.29080  0.40670  Biso   1.000  C
  C17      1.0000 0.17260  0.30600  0.42500  Biso   1.000  C
  C18      1.0000 0.16950  0.28200  0.45270  Biso   1.000  C
  C19      1.0000 0.11280  0.29560  0.46850  Biso   1.000  C
  C20      1.0000 0.06790  0.35990  0.43160  Biso   1.000  C
  C21      1.0000 0.12080  0.34690  0.41440  Biso   1.000  C
  C22      1.0000 0.28410  0.33450  0.33670  Biso   1.000  C
  C23      1.0000 0.34900  0.33710  0.32590  Biso   1.000  C
  C24      1.0000 0.35470  0.36570  0.29940  Biso   1.000  C
  C25      1.0000 0.23620  0.38520  0.29240  Biso   1.000  C
  C26      1.0000 0.22610  0.35960  0.32000  Biso   1.000  C
  C27      1.0000 0.81520  0.51610  0.52910  Biso   1.000  C
  C28      1.0000 0.76680  0.55750  0.53590  Biso   1.000  C
  C29      1.0000 0.70680  0.53890  0.54820  Biso   1.000  C
  C30      1.0000 0.69810  0.47860  0.55330  Biso   1.000  C
  C31      1.0000 0.74900  0.43940  0.54520  Biso   1.000  C
  C32      1.0000 0.65130  0.58140  0.55360  Biso   1.000  C
  C33      1.0000 0.59000  0.66450  0.54070  Biso   1.000  C
  C34      1.0000 0.56440  0.60870  0.57880  Biso   1.000  C
  C35      1.0000 0.52070  0.59770  0.60300  Biso   1.000  C
  C36      1.0000 0.54860  0.57720  0.63030  Biso   1.000  C
  C37      1.0000 0.50650  0.57210  0.65270  Biso   1.000  C
  C38      1.0000 0.41070  0.60130  0.62150  Biso   1.000  C
  C39      1.0000 0.44840  0.61120  0.59820  Biso   1.000  C
  C40      1.0000 0.57610  0.71430  0.52030  Biso   1.000  C
  C41      1.0000 0.60830  0.71810  0.49460  Biso   1.000  C
  C42      1.0000 0.59460  0.76500  0.47530  Biso   1.000  C
  C43      1.0000 0.51780  0.80430  0.50510  Biso   1.000  C
  C44      1.0000 0.52790  0.75780  0.52530  Biso   1.000  C
  C45      1.0000 0.42420  0.87830  0.39930  Biso   1.000  C
  C46      1.0000 0.61030  0.93020  0.40500  Biso   1.000  C
  C47      1.0000 0.92240  0.28280  0.52950  Biso   1.000  C
  C48      1.0000 0.82080  0.33550  0.45640  Biso   1.000  C
  C49      1.0000 0.26040  0.48450  0.19140  Biso   1.000  C
  C50      1.0000 0.27770  0.31210  0.18950  Biso   1.000  C
  C51      1.0000 0.35660  0.96030  0.38020  Biso   1.000  C
  C52      1.0000 0.31080  0.99670  0.39340  Biso   1.000  C
  C53      1.0000 0.25300  0.02070  0.37570  Biso   1.000  C
  C54      1.0000 0.26240  0.01190  0.34370  Biso   1.000  C
  C55      1.0000 0.29650  0.97190  0.33060  Biso   1.000  C
  C56      1.0000 0.35210  0.94700  0.35080  Biso   1.000  C
  C57      1.0000 0.37730  0.96760  0.37530  Biso   1.000  C
  C58      1.0000 0.32400  0.00050  0.38500  Biso   1.000  C
  C59      1.0000 0.27460  0.02850  0.36450  Biso   1.000  C
  C60      1.0000 0.29130  0.01630  0.33380  Biso   1.000  C
  C61      1.0000 0.33980  0.98680  0.32330  Biso   1.000  C
  C62      1.0000 0.38740  0.96030  0.34610  Biso   1.000  C
  C63      1.0000 0.46170  0.78560  0.41930  Biso   1.000  C
  C64      1.0000 0.40110  0.76060  0.42700  Biso   1.000  C
  C65      1.0000 0.39430  0.69650  0.42310  Biso   1.000  C
  C66      1.0000 0.44400  0.66500  0.41390  Biso   1.000  C
  C67      1.0000 0.50440  0.68830  0.40340  Biso   1.000  C
  C68      1.0000 0.51210  0.75120  0.40830  Biso   1.000  C
  O22      1.0000 0.43360  0.60090  0.41290  Biso   1.000  O
  C69      1.0000 0.48490  0.56340  0.40520  Biso   1.000  C
  C70      1.0000 0.46200  0.78570  0.41220  Biso   1.000  C
  C71      1.0000 0.44200  0.74690  0.43350  Biso   1.000  C
  C72      1.0000 0.45700  0.68400  0.42770  Biso   1.000  C
  C73      1.0000 0.49900  0.67010  0.40850  Biso   1.000  C
  C74      1.0000 0.52100  0.70730  0.38580  Biso   1.000  C
  C75      1.0000 0.50600  0.76830  0.39160  Biso   1.000  C
  O23      1.0000 0.50760  0.60680  0.40050  Biso   1.000  O
  C76      1.0000 0.49500  0.56520  0.42180  Biso   1.000  C
  C77      1.0000 0.57480  0.00890  0.37430  Biso   1.000  C
  C78      1.0000 0.56960  0.97750  0.34670  Biso   1.000  C
  C79      1.0000 0.57860  0.01720  0.32060  Biso   1.000  C
  C80      1.0000 0.59600  0.07350  0.32590  Biso   1.000  C
  C81      1.0000 0.60480  0.10110  0.35230  Biso   1.000  C
  C82      1.0000 0.59180  0.06680  0.37690  Biso   1.000  C
  C83      1.0000 0.62940  0.16380  0.30250  Biso   1.000  C
  C84      1.0000 0.66760  0.85450  0.43470  Biso   1.000  C
  C85      1.0000 0.68530  0.81480  0.41380  Biso   1.000  C
  C86      1.0000 0.74200  0.77490  0.42240  Biso   1.000  C
  C87      1.0000 0.77180  0.77860  0.45080  Biso   1.000  C
  C88      1.0000 0.75590  0.81780  0.47080  Biso   1.000  C
  C89      1.0000 0.70200  0.85790  0.46320  Biso   1.000  C
  C90      1.0000 0.85180  0.69710  0.44130  Biso   1.000  C
  C91      1.0000 0.98690  0.22370  0.50020  Biso   1.000  C
  C92      1.0000 0.98190  0.20290  0.47230  Biso   1.000  C
  C93      1.0000 0.00830  0.14330  0.46660  Biso   1.000  C
  C94      1.0000 0.03920  0.11850  0.49120  Biso   1.000  C
  C95      1.0000 0.05350  0.13710  0.51850  Biso   1.000  C
  C96      1.0000 0.02490  0.19500  0.52230  Biso   1.000  C
  C97      1.0000 0.09400  0.03600  0.50620  Biso   1.000  C
  C98      1.0000 0.85590  0.32630  0.56330  Biso   1.000  C
  C99      1.0000 0.87220  0.36970  0.58420  Biso   1.000  C
  C100     1.0000 0.84050  0.36740  0.61160  Biso   1.000  C
  C101     1.0000 0.79650  0.32340  0.61360  Biso   1.000  C
  C102     1.0000 0.77650  0.28120  0.59520  Biso   1.000  C
  C103     1.0000 0.80890  0.28340  0.56740  Biso   1.000  C
  C104     1.0000 0.71930  0.28650  0.64300  Biso   1.000  C
  C105     1.0000 0.89230  0.30900  0.42220  Biso   1.000  C
  C106     1.0000 0.87340  0.24640  0.41570  Biso   1.000  C
  C107     1.0000 0.87950  0.22860  0.38440  Biso   1.000  C
  C108     1.0000 0.90130  0.27620  0.36620  Biso   1.000  C
  C109     1.0000 0.90660  0.33590  0.36910  Biso   1.000  C
  C110     1.0000 0.89890  0.35130  0.40100  Biso   1.000  C
  C111     1.0000 0.88110  0.19900  0.32580  Biso   1.000  C
  C112     1.0000 0.73180  0.36840  0.48310  Biso   1.000  C
  C113     1.0000 0.69190  0.32650  0.49640  Biso   1.000  C
  C114     1.0000 0.62130  0.34040  0.49900  Biso   1.000  C
  C115     1.0000 0.59600  0.39030  0.49050  Biso   1.000  C
  C116     1.0000 0.63140  0.43390  0.47750  Biso   1.000  C
  C117     1.0000 0.70250  0.42150  0.47370  Biso   1.000  C
  C118     1.0000 0.50400  0.39950  0.52010  Biso   1.000  C
  C119     1.0000 0.50000  0.45100  0.49720  Biso   1.000  C
  C120     1.0000 0.21730  0.49480  0.23610  Biso   1.000  C
  C121     1.0000 0.23940  0.51930  0.26300  Biso   1.000  C
  C122     1.0000 0.19420  0.54950  0.28020  Biso   1.000  C
  C123     1.0000 0.12510  0.55220  0.26820  Biso   1.000  C
  C124     1.0000 0.09730  0.52900  0.24160  Biso   1.000  C
  C125     1.0000 0.14560  0.50020  0.22510  Biso   1.000  C
  C126     1.0000 0.08910  0.60960  0.31190  Biso   1.000  C
  C127     1.0000 0.29610  0.48700  0.14470  Biso   1.000  C
  C128     1.0000 0.24570  0.46240  0.12380  Biso   1.000  C
  C129     1.0000 0.23470  0.48640  0.09500  Biso   1.000  C
  C130     1.0000 0.27390  0.53100  0.08960  Biso   1.000  C
  C131     1.0000 0.32970  0.55720  0.10860  Biso   1.000  C
  C132     1.0000 0.33980  0.53080  0.13820  Biso   1.000  C
  C133     1.0000 0.30410  0.59780  0.04940  Biso   1.000  C
  C134     1.0000 0.21680  0.29880  0.23020  Biso   1.000  C
  C135     1.0000 0.24950  0.25440  0.24910  Biso   1.000  C
  C136     1.0000 0.20560  0.21680  0.26610  Biso   1.000  C
  C137     1.0000 0.13350  0.23990  0.26350  Biso   1.000  C
  C138     1.0000 0.10560  0.27830  0.24850  Biso   1.000  C
  C139     1.0000 0.14960  0.31650  0.23210  Biso   1.000  C
  O24      1.0000 0.08700  0.19800  0.27850  Biso   1.000  O
  C140     1.0000 0.21070  0.32280  0.23180  Biso   1.000  C
  C141     1.0000 0.22400  0.26650  0.24560  Biso   1.000  C
  C142     1.0000 0.17900  0.24600  0.26790  Biso   1.000  C
  C143     1.0000 0.11600  0.28500  0.26580  Biso   1.000  C
  C144     1.0000 0.09590  0.32200  0.24840  Biso   1.000  C
  C145     1.0000 0.14590  0.34930  0.23050  Biso   1.000  C
  O25      1.0000 0.06300  0.26400  0.28580  Biso   1.000  O
  C146     1.0000 0.09800  0.21900  0.29820  Biso   1.000  C
  C147     1.0000 0.34690  0.29640  0.15180  Biso   1.000  C
  C148     1.0000 0.29860  0.28020  0.12710  Biso   1.000  C
  C149     1.0000 0.32310  0.24530  0.10340  Biso   1.000  C
  C150     1.0000 0.38870  0.23200  0.10530  Biso   1.000  C
  C151     1.0000 0.43930  0.24640  0.12790  Biso   1.000  C
  C152     1.0000 0.41590  0.27960  0.15140  Biso   1.000  C
  C153     1.0000 0.37200  0.18100  0.05830  Biso   1.000  C
  Rh7      1.0000 0.51178  0.98561  0.07368  Biso   1.000  Rh
  Rh8      1.0000 0.47429  0.89217  0.04882  Biso   1.000  Rh
  Rh9      1.0000 0.03575  0.35529  0.01879  Biso   1.000  Rh
  Rh10     1.0000 0.12364  0.39992  0.99085  Biso   1.000  Rh
  Rh11     1.0000 0.67411  0.40014  0.26563  Biso   1.000  Rh
  Rh12     1.0000 0.61866  0.40579  0.31108  Biso   1.000  Rh
  N25      1.0000 0.57750  0.93790  0.10110  Biso   1.000  N
  N26      1.0000 0.53300  0.84910  0.08070  Biso   1.000  N
  N27      1.0000 0.43600  0.97260  0.10030  Biso   1.000  N
  N28      1.0000 0.39220  0.89460  0.07220  Biso   1.000  N
  N29      1.0000 0.04320  0.28120  0.99450  Biso   1.000  N
  N30      1.0000 0.11320  0.32950  0.96368  Biso   1.000  N
  N31      1.0000 0.11390  0.32760  0.04880  Biso   1.000  N
  N32      1.0000 0.19670  0.35830  0.01850  Biso   1.000  N
  N33      1.0000 0.73630  0.46730  0.27990  Biso   1.000  N
  N34      1.0000 0.69650  0.46170  0.32640  Biso   1.000  N
  N35      1.0000 0.74050  0.33970  0.28640  Biso   1.000  N
  N36      1.0000 0.67120  0.33220  0.32527  Biso   1.000  N
  N37      1.0000 0.55560  0.07890  0.08610  Biso   1.000  N
  N38      1.0000 0.67730  0.26000  0.12870  Biso   1.000  N
  N39      1.0000 0.77160  0.31950  0.11908  Biso   1.000  N
  N40      1.0000 0.72870  0.24760  0.08418  Biso   1.000  N
  N41      1.0000 0.93950  0.33230  0.04300  Biso   1.000  N
  N42      1.0000 0.70050  0.38720  0.21770  Biso   1.000  N
  N43      1.0000 0.19540  0.45770  0.96724  Biso   1.000  N
  N44      1.0000 0.35650  0.62820  0.96394  Biso   1.000  N
  N45      1.0000 0.45040  0.65680  0.93819  Biso   1.000  N
  N46      1.0000 0.38610  0.56950  0.92445  Biso   1.000  N
  N47      1.0000 0.56030  0.58520  0.85132  Biso   1.000  N
  N48      1.0000 0.45000  0.80940  0.01930  Biso   1.000  N
  O26      1.0000 0.39400  0.10310  0.20080  Biso   1.000  O
  O27      1.0000 0.17340  0.73710  0.03810  Biso   1.000  O
  O28      1.0000 0.94690  0.05140  0.02080  Biso   1.000  O
  O29      1.0000 0.23020  0.32640  0.85760  Biso   1.000  O
  O30      1.0000 0.09450  0.26010  0.16540  Biso   1.000  O
  O31      1.0000 0.47250  0.40410  0.00580  Biso   1.000  O
  O32      1.0000 0.92650  0.58400  0.21690  Biso   1.000  O
  O33      1.0000 0.73920  0.55380  0.44050  Biso   1.000  O
  O34      1.0000 0.57980  0.20040  0.41680  Biso   1.000  O
  O35      1.0000 0.44230  0.02870  0.04367  Biso   1.000  O
  O36      1.0000 0.41700  0.94480  0.01716  Biso   1.000  O
  O37      1.0000 0.41660  0.00890  0.95608  Biso   1.000  O
  O38      1.0000 0.44150  0.09870  0.97511  Biso   1.000  O
  O39      1.0000 0.03470  0.43540  0.04089  Biso   1.000  O
  O40      1.0000 0.12630  0.46940  0.02019  Biso   1.000  O
  O41      1.0000 0.03630  0.60820  0.01362  Biso   1.000  O
  O42      1.0000 0.95450  0.55770  0.03411  Biso   1.000  O
  O43      1.0000 0.60890  0.33000  0.25430  Biso   1.000  O
  O44      1.0000 0.54010  0.35100  0.28928  Biso   1.000  O
  O45      1.0000 0.59720  0.45820  0.24813  Biso   1.000  O
  O46      1.0000 0.56120  0.47670  0.29224  Biso   1.000  O
  C154     1.0000 0.41210  0.00010  0.02190  Biso   1.000  C
  C155     1.0000 0.01690  0.57110  0.03120  Biso   1.000  C
  C156     1.0000 0.07780  0.47460  0.03640  Biso   1.000  C
  C157     1.0000 0.07240  0.53570  0.05080  Biso   1.000  C
  C158     1.0000 0.41090  0.04930  0.97470  Biso   1.000  C
  C159     1.0000 0.36560  0.03560  0.99920  Biso   1.000  C
  C160     1.0000 0.55400  0.32500  0.26620  Biso   1.000  C
  C161     1.0000 0.55740  0.48270  0.26450  Biso   1.000  C
  C162     1.0000 0.56690  0.10200  0.11310  Biso   1.000  C
  C163     1.0000 0.60720  0.15340  0.11970  Biso   1.000  C
  C164     1.0000 0.63690  0.18110  0.09640  Biso   1.000  C
  C165     1.0000 0.62450  0.15680  0.06770  Biso   1.000  C
  C166     1.0000 0.58170  0.10640  0.06370  Biso   1.000  C
  C167     1.0000 0.68220  0.23280  0.10310  Biso   1.000  C
  C168     1.0000 0.72180  0.30370  0.13560  Biso   1.000  C
  C169     1.0000 0.77200  0.29080  0.09330  Biso   1.000  C
  C170     1.0000 0.82740  0.30600  0.07500  Biso   1.000  C
  C171     1.0000 0.83050  0.28200  0.04730  Biso   1.000  C
  C172     1.0000 0.88720  0.29560  0.03150  Biso   1.000  C
  C173     1.0000 0.93210  0.35990  0.06840  Biso   1.000  C
  C174     1.0000 0.87920  0.34690  0.08560  Biso   1.000  C
  C175     1.0000 0.71590  0.33450  0.16330  Biso   1.000  C
  C176     1.0000 0.65100  0.33710  0.17410  Biso   1.000  C
  C177     1.0000 0.64530  0.36570  0.20060  Biso   1.000  C
  C178     1.0000 0.76380  0.38520  0.20760  Biso   1.000  C
  C179     1.0000 0.77390  0.35960  0.18000  Biso   1.000  C
  C180     1.0000 0.18480  0.51610  0.97090  Biso   1.000  C
  C181     1.0000 0.23320  0.55750  0.96410  Biso   1.000  C
  C182     1.0000 0.29320  0.53890  0.95180  Biso   1.000  C
  C183     1.0000 0.30190  0.47860  0.94670  Biso   1.000  C
  C184     1.0000 0.25100  0.43940  0.95480  Biso   1.000  C
  C185     1.0000 0.34870  0.58140  0.94640  Biso   1.000  C
  C186     1.0000 0.41000  0.66450  0.95930  Biso   1.000  C
  C187     1.0000 0.43560  0.60870  0.92120  Biso   1.000  C
  C188     1.0000 0.47930  0.59770  0.89700  Biso   1.000  C
  C189     1.0000 0.45140  0.57720  0.86970  Biso   1.000  C
  C190     1.0000 0.49350  0.57210  0.84730  Biso   1.000  C
  C191     1.0000 0.58930  0.60130  0.87850  Biso   1.000  C
  C192     1.0000 0.55160  0.61120  0.90180  Biso   1.000  C
  C193     1.0000 0.42390  0.71430  0.97970  Biso   1.000  C
  C194     1.0000 0.39170  0.71810  0.00540  Biso   1.000  C
  C195     1.0000 0.40540  0.76500  0.02470  Biso   1.000  C
  C196     1.0000 0.48220  0.80430  0.99490  Biso   1.000  C
  C197     1.0000 0.47210  0.75780  0.97470  Biso   1.000  C
  C198     1.0000 0.57580  0.87830  0.10070  Biso   1.000  C
  C199     1.0000 0.38970  0.93020  0.09500  Biso   1.000  C
  C200     1.0000 0.07760  0.28280  0.97050  Biso   1.000  C
  C201     1.0000 0.17920  0.33550  0.04360  Biso   1.000  C
  C202     1.0000 0.73960  0.48450  0.30860  Biso   1.000  C
  C203     1.0000 0.72230  0.31210  0.31050  Biso   1.000  C
  C204     1.0000 0.64340  0.96030  0.11980  Biso   1.000  C
  C205     1.0000 0.68920  0.99670  0.10660  Biso   1.000  C
  C206     1.0000 0.74700  0.02070  0.12430  Biso   1.000  C
  C207     1.0000 0.73760  0.01190  0.15630  Biso   1.000  C
  C208     1.0000 0.70350  0.97190  0.16940  Biso   1.000  C
  C209     1.0000 0.64790  0.94700  0.14920  Biso   1.000  C
  C210     1.0000 0.62270  0.96760  0.12470  Biso   1.000  C
  C211     1.0000 0.67600  0.00050  0.11500  Biso   1.000  C
  C212     1.0000 0.72540  0.02850  0.13550  Biso   1.000  C
  C213     1.0000 0.70870  0.01630  0.16620  Biso   1.000  C
  C214     1.0000 0.66020  0.98680  0.17670  Biso   1.000  C
  C215     1.0000 0.61260  0.96030  0.15390  Biso   1.000  C
  C216     1.0000 0.53830  0.78560  0.08070  Biso   1.000  C
  C217     1.0000 0.59890  0.76060  0.07300  Biso   1.000  C
  C218     1.0000 0.60570  0.69650  0.07690  Biso   1.000  C
  C219     1.0000 0.55600  0.66500  0.08610  Biso   1.000  C
  C220     1.0000 0.49560  0.68830  0.09660  Biso   1.000  C
  C221     1.0000 0.48790  0.75120  0.09170  Biso   1.000  C
  O47      1.0000 0.56640  0.60090  0.08710  Biso   1.000  O
  C222     1.0000 0.51510  0.56340  0.09480  Biso   1.000  C
  C223     1.0000 0.53800  0.78570  0.08780  Biso   1.000  C
  C224     1.0000 0.55800  0.74690  0.06650  Biso   1.000  C
  C225     1.0000 0.54300  0.68400  0.07230  Biso   1.000  C
  C226     1.0000 0.50100  0.67010  0.09150  Biso   1.000  C
  C227     1.0000 0.47900  0.70730  0.11420  Biso   1.000  C
  C228     1.0000 0.49400  0.76830  0.10840  Biso   1.000  C
  O48      1.0000 0.49240  0.60680  0.09950  Biso   1.000  O
  C229     1.0000 0.50500  0.56520  0.07820  Biso   1.000  C
  C230     1.0000 0.42520  0.00890  0.12570  Biso   1.000  C
  C231     1.0000 0.43040  0.97750  0.15330  Biso   1.000  C
  C232     1.0000 0.42140  0.01720  0.17940  Biso   1.000  C
  C233     1.0000 0.40400  0.07350  0.17410  Biso   1.000  C
  C234     1.0000 0.39520  0.10110  0.14770  Biso   1.000  C
  C235     1.0000 0.40820  0.06680  0.12310  Biso   1.000  C
  C236     1.0000 0.37060  0.16380  0.19750  Biso   1.000  C
  C237     1.0000 0.33240  0.85450  0.06530  Biso   1.000  C
  C238     1.0000 0.31470  0.81480  0.08620  Biso   1.000  C
  C239     1.0000 0.25800  0.77490  0.07760  Biso   1.000  C
  C240     1.0000 0.22820  0.77860  0.04920  Biso   1.000  C
  C241     1.0000 0.24410  0.81780  0.02920  Biso   1.000  C
  C242     1.0000 0.29800  0.85790  0.03680  Biso   1.000  C
  C243     1.0000 0.14820  0.69710  0.05870  Biso   1.000  C
  C244     1.0000 0.01310  0.22370  0.99980  Biso   1.000  C
  C245     1.0000 0.01810  0.20290  0.02770  Biso   1.000  C
  C246     1.0000 0.99170  0.14330  0.03340  Biso   1.000  C
  C247     1.0000 0.96080  0.11850  0.00880  Biso   1.000  C
  C248     1.0000 0.94650  0.13710  0.98150  Biso   1.000  C
  C249     1.0000 0.97510  0.19500  0.97770  Biso   1.000  C
  C250     1.0000 0.90600  0.03600  0.99380  Biso   1.000  C
  C251     1.0000 0.14410  0.32630  0.93670  Biso   1.000  C
  C252     1.0000 0.12780  0.36970  0.91580  Biso   1.000  C
  C253     1.0000 0.15950  0.36740  0.88840  Biso   1.000  C
  C254     1.0000 0.20350  0.32340  0.88640  Biso   1.000  C
  C255     1.0000 0.22350  0.28120  0.90480  Biso   1.000  C
  C256     1.0000 0.19110  0.28340  0.93260  Biso   1.000  C
  C257     1.0000 0.28070  0.28650  0.85700  Biso   1.000  C
  C258     1.0000 0.10770  0.30900  0.07780  Biso   1.000  C
  C259     1.0000 0.12660  0.24640  0.08430  Biso   1.000  C
  C260     1.0000 0.12050  0.22860  0.11560  Biso   1.000  C
  C261     1.0000 0.09870  0.27620  0.13380  Biso   1.000  C
  C262     1.0000 0.09340  0.33590  0.13090  Biso   1.000  C
  C263     1.0000 0.10110  0.35130  0.09900  Biso   1.000  C
  C264     1.0000 0.11890  0.19900  0.17420  Biso   1.000  C
  C265     1.0000 0.26820  0.36840  0.01690  Biso   1.000  C
  C266     1.0000 0.30810  0.32650  0.00360  Biso   1.000  C
  C267     1.0000 0.37870  0.34040  0.00100  Biso   1.000  C
  C268     1.0000 0.40400  0.39030  0.00950  Biso   1.000  C
  C269     1.0000 0.36860  0.43390  0.02250  Biso   1.000  C
  C270     1.0000 0.29750  0.42150  0.02630  Biso   1.000  C
  C271     1.0000 0.49600  0.39950  0.97990  Biso   1.000  C
  C272     1.0000 0.50000  0.45100  0.00280  Biso   1.000  C
  C273     1.0000 0.78270  0.49480  0.26390  Biso   1.000  C
  C274     1.0000 0.76060  0.51930  0.23700  Biso   1.000  C
  C275     1.0000 0.80580  0.54950  0.21980  Biso   1.000  C
  C276     1.0000 0.87490  0.55220  0.23180  Biso   1.000  C
  C277     1.0000 0.90270  0.52900  0.25840  Biso   1.000  C
  C278     1.0000 0.85440  0.50020  0.27490  Biso   1.000  C
  C279     1.0000 0.91090  0.60960  0.18810  Biso   1.000  C
  C280     1.0000 0.70390  0.48700  0.35530  Biso   1.000  C
  C281     1.0000 0.75430  0.46240  0.37620  Biso   1.000  C
  C282     1.0000 0.76530  0.48640  0.40500  Biso   1.000  C
  C283     1.0000 0.72610  0.53100  0.41040  Biso   1.000  C
  C284     1.0000 0.67030  0.55720  0.39140  Biso   1.000  C
  C285     1.0000 0.66020  0.53080  0.36180  Biso   1.000  C
  C286     1.0000 0.69590  0.59780  0.45060  Biso   1.000  C
  C287     1.0000 0.78320  0.29880  0.26980  Biso   1.000  C
  C288     1.0000 0.75050  0.25440  0.25090  Biso   1.000  C
  C289     1.0000 0.79440  0.21680  0.23390  Biso   1.000  C
  C290     1.0000 0.86650  0.23990  0.23650  Biso   1.000  C
  C291     1.0000 0.89440  0.27830  0.25150  Biso   1.000  C
  C292     1.0000 0.85040  0.31650  0.26790  Biso   1.000  C
  O49      1.0000 0.91300  0.19800  0.22150  Biso   1.000  O
  C293     1.0000 0.78930  0.32280  0.26820  Biso   1.000  C
  C294     1.0000 0.77600  0.26650  0.25440  Biso   1.000  C
  C295     1.0000 0.82100  0.24600  0.23210  Biso   1.000  C
  C296     1.0000 0.88400  0.28500  0.23420  Biso   1.000  C
  C297     1.0000 0.90410  0.32200  0.25160  Biso   1.000  C
  C298     1.0000 0.85410  0.34930  0.26950  Biso   1.000  C
  O50      1.0000 0.93700  0.26400  0.21420  Biso   1.000  O
  C299     1.0000 0.90200  0.21900  0.20180  Biso   1.000  C
  C300     1.0000 0.65310  0.29640  0.34820  Biso   1.000  C
  C301     1.0000 0.70140  0.28020  0.37290  Biso   1.000  C
  C302     1.0000 0.67690  0.24530  0.39660  Biso   1.000  C
  C303     1.0000 0.61130  0.23200  0.39470  Biso   1.000  C
  C304     1.0000 0.56070  0.24640  0.37210  Biso   1.000  C
  C305     1.0000 0.58410  0.27960  0.34860  Biso   1.000  C
  C306     1.0000 0.62800  0.18100  0.44170  Biso   1.000  C
  Rh13     1.0000 0.51178  0.01439  0.57368  Biso   1.000  Rh
  Rh14     1.0000 0.47429  0.10783  0.54882  Biso   1.000  Rh
  Rh15     1.0000 0.03575  0.64471  0.51879  Biso   1.000  Rh
  Rh16     1.0000 0.12364  0.60008  0.49085  Biso   1.000  Rh
  Rh17     1.0000 0.67411  0.59986  0.76563  Biso   1.000  Rh
  Rh18     1.0000 0.61866  0.59421  0.81108  Biso   1.000  Rh
  N49      1.0000 0.57750  0.06210  0.60110  Biso   1.000  N
  N50      1.0000 0.53300  0.15090  0.58070  Biso   1.000  N
  N51      1.0000 0.43600  0.02740  0.60030  Biso   1.000  N
  N52      1.0000 0.39220  0.10540  0.57220  Biso   1.000  N
  N53      1.0000 0.04320  0.71880  0.49450  Biso   1.000  N
  N54      1.0000 0.11320  0.67050  0.46368  Biso   1.000  N
  N55      1.0000 0.11390  0.67240  0.54880  Biso   1.000  N
  N56      1.0000 0.19670  0.64170  0.51850  Biso   1.000  N
  N57      1.0000 0.73630  0.53270  0.77990  Biso   1.000  N
  N58      1.0000 0.69650  0.53830  0.82640  Biso   1.000  N
  N59      1.0000 0.74050  0.66030  0.78640  Biso   1.000  N
  N60      1.0000 0.67120  0.66780  0.82527  Biso   1.000  N
  N61      1.0000 0.55560  0.92110  0.58610  Biso   1.000  N
  N62      1.0000 0.67730  0.74000  0.62870  Biso   1.000  N
  N63      1.0000 0.77160  0.68050  0.61908  Biso   1.000  N
  N64      1.0000 0.72870  0.75240  0.58418  Biso   1.000  N
  N65      1.0000 0.93950  0.66770  0.54300  Biso   1.000  N
  N66      1.0000 0.70050  0.61280  0.71770  Biso   1.000  N
  N67      1.0000 0.19540  0.54230  0.46724  Biso   1.000  N
  N68      1.0000 0.35650  0.37180  0.46394  Biso   1.000  N
  N69      1.0000 0.45040  0.34320  0.43819  Biso   1.000  N
  N70      1.0000 0.38610  0.43050  0.42445  Biso   1.000  N
  N71      1.0000 0.56030  0.41480  0.35132  Biso   1.000  N
  N72      1.0000 0.45000  0.19060  0.51930  Biso   1.000  N
  O51      1.0000 0.39400  0.89690  0.70080  Biso   1.000  O
  O52      1.0000 0.17340  0.26290  0.53810  Biso   1.000  O
  O53      1.0000 0.94690  0.94860  0.52080  Biso   1.000  O
  O54      1.0000 0.23020  0.67360  0.35760  Biso   1.000  O
  O55      1.0000 0.09450  0.73990  0.66540  Biso   1.000  O
  O56      1.0000 0.47250  0.59590  0.50580  Biso   1.000  O
  O57      1.0000 0.92650  0.41600  0.71690  Biso   1.000  O
  O58      1.0000 0.73920  0.44620  0.94050  Biso   1.000  O
  O59      1.0000 0.57980  0.79960  0.91680  Biso   1.000  O
  O60      1.0000 0.44230  0.97130  0.54367  Biso   1.000  O
  O61      1.0000 0.41700  0.05520  0.51716  Biso   1.000  O
  O62      1.0000 0.41660  0.99110  0.45608  Biso   1.000  O
  O63      1.0000 0.44150  0.90130  0.47511  Biso   1.000  O
  O64      1.0000 0.03470  0.56460  0.54089  Biso   1.000  O
  O65      1.0000 0.12630  0.53060  0.52019  Biso   1.000  O
  O66      1.0000 0.03630  0.39180  0.51362  Biso   1.000  O
  O67      1.0000 0.95450  0.44230  0.53411  Biso   1.000  O
  O68      1.0000 0.60890  0.67000  0.75430  Biso   1.000  O
  O69      1.0000 0.54010  0.64900  0.78928  Biso   1.000  O
  O70      1.0000 0.59720  0.54180  0.74813  Biso   1.000  O
  O71      1.0000 0.56120  0.52330  0.79224  Biso   1.000  O
  C307     1.0000 0.41210  0.99990  0.52190  Biso   1.000  C
  C308     1.0000 0.01690  0.42890  0.53120  Biso   1.000  C
  C309     1.0000 0.07780  0.52540  0.53640  Biso   1.000  C
  C310     1.0000 0.07240  0.46430  0.55080  Biso   1.000  C
  C311     1.0000 0.41090  0.95070  0.47470  Biso   1.000  C
  C312     1.0000 0.36560  0.96440  0.49920  Biso   1.000  C
  C313     1.0000 0.55400  0.67500  0.76620  Biso   1.000  C
  C314     1.0000 0.55740  0.51730  0.76450  Biso   1.000  C
  C315     1.0000 0.56690  0.89800  0.61310  Biso   1.000  C
  C316     1.0000 0.60720  0.84660  0.61970  Biso   1.000  C
  C317     1.0000 0.63690  0.81890  0.59640  Biso   1.000  C
  C318     1.0000 0.62450  0.84320  0.56770  Biso   1.000  C
  C319     1.0000 0.58170  0.89360  0.56370  Biso   1.000  C
  C320     1.0000 0.68220  0.76720  0.60310  Biso   1.000  C
  C321     1.0000 0.72180  0.69630  0.63560  Biso   1.000  C
  C322     1.0000 0.77200  0.70920  0.59330  Biso   1.000  C
  C323     1.0000 0.82740  0.69400  0.57500  Biso   1.000  C
  C324     1.0000 0.83050  0.71800  0.54730  Biso   1.000  C
  C325     1.0000 0.88720  0.70440  0.53150  Biso   1.000  C
  C326     1.0000 0.93210  0.64010  0.56840  Biso   1.000  C
  C327     1.0000 0.87920  0.65310  0.58560  Biso   1.000  C
  C328     1.0000 0.71590  0.66550  0.66330  Biso   1.000  C
  C329     1.0000 0.65100  0.66290  0.67410  Biso   1.000  C
  C330     1.0000 0.64530  0.63430  0.70060  Biso   1.000  C
  C331     1.0000 0.76380  0.61480  0.70760  Biso   1.000  C
  C332     1.0000 0.77390  0.64040  0.68000  Biso   1.000  C
  C333     1.0000 0.18480  0.48390  0.47090  Biso   1.000  C
  C334     1.0000 0.23320  0.44250  0.46410  Biso   1.000  C
  C335     1.0000 0.29320  0.46110  0.45180  Biso   1.000  C
  C336     1.0000 0.30190  0.52140  0.44670  Biso   1.000  C
  C337     1.0000 0.25100  0.56060  0.45480  Biso   1.000  C
  C338     1.0000 0.34870  0.41860  0.44640  Biso   1.000  C
  C339     1.0000 0.41000  0.33550  0.45930  Biso   1.000  C
  C340     1.0000 0.43560  0.39130  0.42120  Biso   1.000  C
  C341     1.0000 0.47930  0.40230  0.39700  Biso   1.000  C
  C342     1.0000 0.45140  0.42280  0.36970  Biso   1.000  C
  C343     1.0000 0.49350  0.42790  0.34730  Biso   1.000  C
  C344     1.0000 0.58930  0.39870  0.37850  Biso   1.000  C
  C345     1.0000 0.55160  0.38880  0.40180  Biso   1.000  C
  C346     1.0000 0.42390  0.28570  0.47970  Biso   1.000  C
  C347     1.0000 0.39170  0.28190  0.50540  Biso   1.000  C
  C348     1.0000 0.40540  0.23500  0.52470  Biso   1.000  C
  C349     1.0000 0.48220  0.19570  0.49490  Biso   1.000  C
  C350     1.0000 0.47210  0.24220  0.47470  Biso   1.000  C
  C351     1.0000 0.57580  0.12170  0.60070  Biso   1.000  C
  C352     1.0000 0.38970  0.06980  0.59500  Biso   1.000  C
  C353     1.0000 0.07760  0.71720  0.47050  Biso   1.000  C
  C354     1.0000 0.17920  0.66450  0.54360  Biso   1.000  C
  C355     1.0000 0.73960  0.51550  0.80860  Biso   1.000  C
  C356     1.0000 0.72230  0.68790  0.81050  Biso   1.000  C
  C357     1.0000 0.64340  0.03970  0.61980  Biso   1.000  C
  C358     1.0000 0.68920  0.00330  0.60660  Biso   1.000  C
  C359     1.0000 0.74700  0.97930  0.62430  Biso   1.000  C
  C360     1.0000 0.73760  0.98810  0.65630  Biso   1.000  C
  C361     1.0000 0.70350  0.02810  0.66940  Biso   1.000  C
  C362     1.0000 0.64790  0.05300  0.64920  Biso   1.000  C
  C363     1.0000 0.62270  0.03240  0.62470  Biso   1.000  C
  C364     1.0000 0.67600  0.99950  0.61500  Biso   1.000  C
  C365     1.0000 0.72540  0.97150  0.63550  Biso   1.000  C
  C366     1.0000 0.70870  0.98370  0.66620  Biso   1.000  C
  C367     1.0000 0.66020  0.01320  0.67670  Biso   1.000  C
  C368     1.0000 0.61260  0.03970  0.65390  Biso   1.000  C
  C369     1.0000 0.53830  0.21440  0.58070  Biso   1.000  C
  C370     1.0000 0.59890  0.23940  0.57300  Biso   1.000  C
  C371     1.0000 0.60570  0.30350  0.57690  Biso   1.000  C
  C372     1.0000 0.55600  0.33500  0.58610  Biso   1.000  C
  C373     1.0000 0.49560  0.31170  0.59660  Biso   1.000  C
  C374     1.0000 0.48790  0.24880  0.59170  Biso   1.000  C
  O72      1.0000 0.56640  0.39910  0.58710  Biso   1.000  O
  C375     1.0000 0.51510  0.43660  0.59480  Biso   1.000  C
  C376     1.0000 0.53800  0.21430  0.58780  Biso   1.000  C
  C377     1.0000 0.55800  0.25310  0.56650  Biso   1.000  C
  C378     1.0000 0.54300  0.31600  0.57230  Biso   1.000  C
  C379     1.0000 0.50100  0.32990  0.59150  Biso   1.000  C
  C380     1.0000 0.47900  0.29270  0.61420  Biso   1.000  C
  C381     1.0000 0.49400  0.23170  0.60840  Biso   1.000  C
  O73      1.0000 0.49240  0.39320  0.59950  Biso   1.000  O
  C382     1.0000 0.50500  0.43480  0.57820  Biso   1.000  C
  C383     1.0000 0.42520  0.99110  0.62570  Biso   1.000  C
  C384     1.0000 0.43040  0.02250  0.65330  Biso   1.000  C
  C385     1.0000 0.42140  0.98280  0.67940  Biso   1.000  C
  C386     1.0000 0.40400  0.92650  0.67410  Biso   1.000  C
  C387     1.0000 0.39520  0.89890  0.64770  Biso   1.000  C
  C388     1.0000 0.40820  0.93320  0.62310  Biso   1.000  C
  C389     1.0000 0.37060  0.83620  0.69750  Biso   1.000  C
  C390     1.0000 0.33240  0.14550  0.56530  Biso   1.000  C
  C391     1.0000 0.31470  0.18520  0.58620  Biso   1.000  C
  C392     1.0000 0.25800  0.22510  0.57760  Biso   1.000  C
  C393     1.0000 0.22820  0.22140  0.54920  Biso   1.000  C
  C394     1.0000 0.24410  0.18220  0.52920  Biso   1.000  C
  C395     1.0000 0.29800  0.14210  0.53680  Biso   1.000  C
  C396     1.0000 0.14820  0.30290  0.55870  Biso   1.000  C
  C397     1.0000 0.01310  0.77630  0.49980  Biso   1.000  C
  C398     1.0000 0.01810  0.79710  0.52770  Biso   1.000  C
  C399     1.0000 0.99170  0.85670  0.53340  Biso   1.000  C
  C400     1.0000 0.96080  0.88150  0.50880  Biso   1.000  C
  C401     1.0000 0.94650  0.86290  0.48150  Biso   1.000  C
  C402     1.0000 0.97510  0.80500  0.47770  Biso   1.000  C
  C403     1.0000 0.90600  0.96400  0.49380  Biso   1.000  C
  C404     1.0000 0.14410  0.67370  0.43670  Biso   1.000  C
  C405     1.0000 0.12780  0.63030  0.41580  Biso   1.000  C
  C406     1.0000 0.15950  0.63260  0.38840  Biso   1.000  C
  C407     1.0000 0.20350  0.67660  0.38640  Biso   1.000  C
  C408     1.0000 0.22350  0.71880  0.40480  Biso   1.000  C
  C409     1.0000 0.19110  0.71660  0.43260  Biso   1.000  C
  C410     1.0000 0.28070  0.71350  0.35700  Biso   1.000  C
  C411     1.0000 0.10770  0.69100  0.57780  Biso   1.000  C
  C412     1.0000 0.12660  0.75360  0.58430  Biso   1.000  C
  C413     1.0000 0.12050  0.77140  0.61560  Biso   1.000  C
  C414     1.0000 0.09870  0.72380  0.63380  Biso   1.000  C
  C415     1.0000 0.09340  0.66410  0.63090  Biso   1.000  C
  C416     1.0000 0.10110  0.64870  0.59900  Biso   1.000  C
  C417     1.0000 0.11890  0.80100  0.67420  Biso   1.000  C
  C418     1.0000 0.26820  0.63160  0.51690  Biso   1.000  C
  C419     1.0000 0.30810  0.67350  0.50360  Biso   1.000  C
  C420     1.0000 0.37870  0.65960  0.50100  Biso   1.000  C
  C421     1.0000 0.40400  0.60970  0.50950  Biso   1.000  C
  C422     1.0000 0.36860  0.56610  0.52250  Biso   1.000  C
  C423     1.0000 0.29750  0.57850  0.52630  Biso   1.000  C
  C424     1.0000 0.49600  0.60050  0.47990  Biso   1.000  C
  C425     1.0000 0.50000  0.54900  0.50280  Biso   1.000  C
  C426     1.0000 0.78270  0.50520  0.76390  Biso   1.000  C
  C427     1.0000 0.76060  0.48070  0.73700  Biso   1.000  C
  C428     1.0000 0.80580  0.45050  0.71980  Biso   1.000  C
  C429     1.0000 0.87490  0.44780  0.73180  Biso   1.000  C
  C430     1.0000 0.90270  0.47100  0.75840  Biso   1.000  C
  C431     1.0000 0.85440  0.49980  0.77490  Biso   1.000  C
  C432     1.0000 0.91090  0.39040  0.68810  Biso   1.000  C
  C433     1.0000 0.70390  0.51300  0.85530  Biso   1.000  C
  C434     1.0000 0.75430  0.53760  0.87620  Biso   1.000  C
  C435     1.0000 0.76530  0.51360  0.90500  Biso   1.000  C
  C436     1.0000 0.72610  0.46900  0.91040  Biso   1.000  C
  C437     1.0000 0.67030  0.44280  0.89140  Biso   1.000  C
  C438     1.0000 0.66020  0.46920  0.86180  Biso   1.000  C
  C439     1.0000 0.69590  0.40220  0.95060  Biso   1.000  C
  C440     1.0000 0.78320  0.70120  0.76980  Biso   1.000  C
  C441     1.0000 0.75050  0.74560  0.75090  Biso   1.000  C
  C442     1.0000 0.79440  0.78320  0.73390  Biso   1.000  C
  C443     1.0000 0.86650  0.76010  0.73650  Biso   1.000  C
  C444     1.0000 0.89440  0.72170  0.75150  Biso   1.000  C
  C445     1.0000 0.85040  0.68350  0.76790  Biso   1.000  C
  O74      1.0000 0.91300  0.80200  0.72150  Biso   1.000  O
  C446     1.0000 0.78930  0.67720  0.76820  Biso   1.000  C
  C447     1.0000 0.77600  0.73350  0.75440  Biso   1.000  C
  C448     1.0000 0.82100  0.75400  0.73210  Biso   1.000  C
  C449     1.0000 0.88400  0.71500  0.73420  Biso   1.000  C
  C450     1.0000 0.90410  0.67800  0.75160  Biso   1.000  C
  C451     1.0000 0.85410  0.65070  0.76950  Biso   1.000  C
  O75      1.0000 0.93700  0.73600  0.71420  Biso   1.000  O
  C452     1.0000 0.90200  0.78100  0.70180  Biso   1.000  C
  C453     1.0000 0.65310  0.70360  0.84820  Biso   1.000  C
  C454     1.0000 0.70140  0.71980  0.87290  Biso   1.000  C
  C455     1.0000 0.67690  0.75470  0.89660  Biso   1.000  C
  C456     1.0000 0.61130  0.76800  0.89470  Biso   1.000  C
  C457     1.0000 0.56070  0.75360  0.87210  Biso   1.000  C
  C458     1.0000 0.58410  0.72040  0.84860  Biso   1.000  C
  C459     1.0000 0.62800  0.81900  0.94170  Biso   1.000  C
  Rh19     1.0000 0.48822  0.01439  0.92632  Biso   1.000  Rh
  Rh20     1.0000 0.52571  0.10783  0.95118  Biso   1.000  Rh
  Rh21     1.0000 0.96425  0.64471  0.98121  Biso   1.000  Rh
  Rh22     1.0000 0.87636  0.60008  0.00915  Biso   1.000  Rh
  Rh23     1.0000 0.32589  0.59986  0.73437  Biso   1.000  Rh
  Rh24     1.0000 0.38134  0.59421  0.68892  Biso   1.000  Rh
  N73      1.0000 0.42250  0.06210  0.89890  Biso   1.000  N
  N74      1.0000 0.46700  0.15090  0.91930  Biso   1.000  N
  N75      1.0000 0.56400  0.02740  0.89970  Biso   1.000  N
  N76      1.0000 0.60780  0.10540  0.92780  Biso   1.000  N
  N77      1.0000 0.95680  0.71880  0.00550  Biso   1.000  N
  N78      1.0000 0.88680  0.67050  0.03632  Biso   1.000  N
  N79      1.0000 0.88610  0.67240  0.95120  Biso   1.000  N
  N80      1.0000 0.80330  0.64170  0.98150  Biso   1.000  N
  N81      1.0000 0.26370  0.53270  0.72010  Biso   1.000  N
  N82      1.0000 0.30350  0.53830  0.67360  Biso   1.000  N
  N83      1.0000 0.25950  0.66030  0.71360  Biso   1.000  N
  N84      1.0000 0.32880  0.66780  0.67473  Biso   1.000  N
  N85      1.0000 0.44440  0.92110  0.91390  Biso   1.000  N
  N86      1.0000 0.32270  0.74000  0.87130  Biso   1.000  N
  N87      1.0000 0.22840  0.68050  0.88092  Biso   1.000  N
  N88      1.0000 0.27130  0.75240  0.91582  Biso   1.000  N
  N89      1.0000 0.06050  0.66770  0.95700  Biso   1.000  N
  N90      1.0000 0.29950  0.61280  0.78230  Biso   1.000  N
  N91      1.0000 0.80460  0.54230  0.03276  Biso   1.000  N
  N92      1.0000 0.64350  0.37180  0.03606  Biso   1.000  N
  N93      1.0000 0.54960  0.34320  0.06181  Biso   1.000  N
  N94      1.0000 0.61390  0.43050  0.07555  Biso   1.000  N
  N95      1.0000 0.43970  0.41480  0.14868  Biso   1.000  N
  N96      1.0000 0.55000  0.19060  0.98070  Biso   1.000  N
  O76      1.0000 0.60600  0.89690  0.79920  Biso   1.000  O
  O77      1.0000 0.82660  0.26290  0.96190  Biso   1.000  O
  O78      1.0000 0.05310  0.94860  0.97920  Biso   1.000  O
  O79      1.0000 0.76980  0.67360  0.14240  Biso   1.000  O
  O80      1.0000 0.90550  0.73990  0.83460  Biso   1.000  O
  O81      1.0000 0.52750  0.59590  0.99420  Biso   1.000  O
  O82      1.0000 0.07350  0.41600  0.78310  Biso   1.000  O
  O83      1.0000 0.26080  0.44620  0.55950  Biso   1.000  O
  O84      1.0000 0.42020  0.79960  0.58320  Biso   1.000  O
  O85      1.0000 0.55770  0.97130  0.95633  Biso   1.000  O
  O86      1.0000 0.58300  0.05520  0.98284  Biso   1.000  O
  O87      1.0000 0.58340  0.99110  0.04392  Biso   1.000  O
  O88      1.0000 0.55850  0.90130  0.02489  Biso   1.000  O
  O89      1.0000 0.96530  0.56460  0.95911  Biso   1.000  O
  O90      1.0000 0.87370  0.53060  0.97981  Biso   1.000  O
  O91      1.0000 0.96370  0.39180  0.98638  Biso   1.000  O
  O92      1.0000 0.04550  0.44230  0.96589  Biso   1.000  O
  O93      1.0000 0.39110  0.67000  0.74570  Biso   1.000  O
  O94      1.0000 0.45990  0.64900  0.71072  Biso   1.000  O
  O95      1.0000 0.40280  0.54180  0.75187  Biso   1.000  O
  O96      1.0000 0.43880  0.52330  0.70776  Biso   1.000  O
  C460     1.0000 0.58790  0.99990  0.97810  Biso   1.000  C
  C461     1.0000 0.98310  0.42890  0.96880  Biso   1.000  C
  C462     1.0000 0.92220  0.52540  0.96360  Biso   1.000  C
  C463     1.0000 0.92760  0.46430  0.94920  Biso   1.000  C
  C464     1.0000 0.58910  0.95070  0.02530  Biso   1.000  C
  C465     1.0000 0.63440  0.96440  0.00080  Biso   1.000  C
  C466     1.0000 0.44600  0.67500  0.73380  Biso   1.000  C
  C467     1.0000 0.44260  0.51730  0.73550  Biso   1.000  C
  C468     1.0000 0.43310  0.89800  0.88690  Biso   1.000  C
  C469     1.0000 0.39280  0.84660  0.88030  Biso   1.000  C
  C470     1.0000 0.36310  0.81890  0.90360  Biso   1.000  C
  C471     1.0000 0.37550  0.84320  0.93230  Biso   1.000  C
  C472     1.0000 0.41830  0.89360  0.93630  Biso   1.000  C
  C473     1.0000 0.31780  0.76720  0.89690  Biso   1.000  C
  C474     1.0000 0.27820  0.69630  0.86440  Biso   1.000  C
  C475     1.0000 0.22800  0.70920  0.90670  Biso   1.000  C
  C476     1.0000 0.17260  0.69400  0.92500  Biso   1.000  C
  C477     1.0000 0.16950  0.71800  0.95270  Biso   1.000  C
  C478     1.0000 0.11280  0.70440  0.96850  Biso   1.000  C
  C479     1.0000 0.06790  0.64010  0.93160  Biso   1.000  C
  C480     1.0000 0.12080  0.65310  0.91440  Biso   1.000  C
  C481     1.0000 0.28410  0.66550  0.83670  Biso   1.000  C
  C482     1.0000 0.34900  0.66290  0.82590  Biso   1.000  C
  C483     1.0000 0.35470  0.63430  0.79940  Biso   1.000  C
  C484     1.0000 0.23620  0.61480  0.79240  Biso   1.000  C
  C485     1.0000 0.22610  0.64040  0.82000  Biso   1.000  C
  C486     1.0000 0.81520  0.48390  0.02910  Biso   1.000  C
  C487     1.0000 0.76680  0.44250  0.03590  Biso   1.000  C
  C488     1.0000 0.70680  0.46110  0.04820  Biso   1.000  C
  C489     1.0000 0.69810  0.52140  0.05330  Biso   1.000  C
  C490     1.0000 0.74900  0.56060  0.04520  Biso   1.000  C
  C491     1.0000 0.65130  0.41860  0.05360  Biso   1.000  C
  C492     1.0000 0.59000  0.33550  0.04070  Biso   1.000  C
  C493     1.0000 0.56440  0.39130  0.07880  Biso   1.000  C
  C494     1.0000 0.52070  0.40230  0.10300  Biso   1.000  C
  C495     1.0000 0.54860  0.42280  0.13030  Biso   1.000  C
  C496     1.0000 0.50650  0.42790  0.15270  Biso   1.000  C
  C497     1.0000 0.41070  0.39870  0.12150  Biso   1.000  C
  C498     1.0000 0.44840  0.38880  0.09820  Biso   1.000  C
  C499     1.0000 0.57610  0.28570  0.02030  Biso   1.000  C
  C500     1.0000 0.60830  0.28190  0.99460  Biso   1.000  C
  C501     1.0000 0.59460  0.23500  0.97530  Biso   1.000  C
  C502     1.0000 0.51780  0.19570  0.00510  Biso   1.000  C
  C503     1.0000 0.52790  0.24220  0.02530  Biso   1.000  C
  C504     1.0000 0.42420  0.12170  0.89930  Biso   1.000  C
  C505     1.0000 0.61030  0.06980  0.90500  Biso   1.000  C
  C506     1.0000 0.92240  0.71720  0.02950  Biso   1.000  C
  C507     1.0000 0.82080  0.66450  0.95640  Biso   1.000  C
  C508     1.0000 0.26040  0.51550  0.69140  Biso   1.000  C
  C509     1.0000 0.27770  0.68790  0.68950  Biso   1.000  C
  C510     1.0000 0.35660  0.03970  0.88020  Biso   1.000  C
  C511     1.0000 0.31080  0.00330  0.89340  Biso   1.000  C
  C512     1.0000 0.25300  0.97930  0.87570  Biso   1.000  C
  C513     1.0000 0.26240  0.98810  0.84370  Biso   1.000  C
  C514     1.0000 0.29650  0.02810  0.83060  Biso   1.000  C
  C515     1.0000 0.35210  0.05300  0.85080  Biso   1.000  C
  C516     1.0000 0.37730  0.03240  0.87530  Biso   1.000  C
  C517     1.0000 0.32400  0.99950  0.88500  Biso   1.000  C
  C518     1.0000 0.27460  0.97150  0.86450  Biso   1.000  C
  C519     1.0000 0.29130  0.98370  0.83380  Biso   1.000  C
  C520     1.0000 0.33980  0.01320  0.82330  Biso   1.000  C
  C521     1.0000 0.38740  0.03970  0.84610  Biso   1.000  C
  C522     1.0000 0.46170  0.21440  0.91930  Biso   1.000  C
  C523     1.0000 0.40110  0.23940  0.92700  Biso   1.000  C
  C524     1.0000 0.39430  0.30350  0.92310  Biso   1.000  C
  C525     1.0000 0.44400  0.33500  0.91390  Biso   1.000  C
  C526     1.0000 0.50440  0.31170  0.90340  Biso   1.000  C
  C527     1.0000 0.51210  0.24880  0.90830  Biso   1.000  C
  O97      1.0000 0.43360  0.39910  0.91290  Biso   1.000  O
  C528     1.0000 0.48490  0.43660  0.90520  Biso   1.000  C
  C529     1.0000 0.46200  0.21430  0.91220  Biso   1.000  C
  C530     1.0000 0.44200  0.25310  0.93350  Biso   1.000  C
  C531     1.0000 0.45700  0.31600  0.92770  Biso   1.000  C
  C532     1.0000 0.49900  0.32990  0.90850  Biso   1.000  C
  C533     1.0000 0.52100  0.29270  0.88580  Biso   1.000  C
  C534     1.0000 0.50600  0.23170  0.89160  Biso   1.000  C
  O98      1.0000 0.50760  0.39320  0.90050  Biso   1.000  O
  C535     1.0000 0.49500  0.43480  0.92180  Biso   1.000  C
  C536     1.0000 0.57480  0.99110  0.87430  Biso   1.000  C
  C537     1.0000 0.56960  0.02250  0.84670  Biso   1.000  C
  C538     1.0000 0.57860  0.98280  0.82060  Biso   1.000  C
  C539     1.0000 0.59600  0.92650  0.82590  Biso   1.000  C
  C540     1.0000 0.60480  0.89890  0.85230  Biso   1.000  C
  C541     1.0000 0.59180  0.93320  0.87690  Biso   1.000  C
  C542     1.0000 0.62940  0.83620  0.80250  Biso   1.000  C
  C543     1.0000 0.66760  0.14550  0.93470  Biso   1.000  C
  C544     1.0000 0.68530  0.18520  0.91380  Biso   1.000  C
  C545     1.0000 0.74200  0.22510  0.92240  Biso   1.000  C
  C546     1.0000 0.77180  0.22140  0.95080  Biso   1.000  C
  C547     1.0000 0.75590  0.18220  0.97080  Biso   1.000  C
  C548     1.0000 0.70200  0.14210  0.96320  Biso   1.000  C
  C549     1.0000 0.85180  0.30290  0.94130  Biso   1.000  C
  C550     1.0000 0.98690  0.77630  0.00020  Biso   1.000  C
  C551     1.0000 0.98190  0.79710  0.97230  Biso   1.000  C
  C552     1.0000 0.00830  0.85670  0.96660  Biso   1.000  C
  C553     1.0000 0.03920  0.88150  0.99120  Biso   1.000  C
  C554     1.0000 0.05350  0.86290  0.01850  Biso   1.000  C
  C555     1.0000 0.02490  0.80500  0.02230  Biso   1.000  C
  C556     1.0000 0.09400  0.96400  0.00620  Biso   1.000  C
  C557     1.0000 0.85590  0.67370  0.06330  Biso   1.000  C
  C558     1.0000 0.87220  0.63030  0.08420  Biso   1.000  C
  C559     1.0000 0.84050  0.63260  0.11160  Biso   1.000  C
  C560     1.0000 0.79650  0.67660  0.11360  Biso   1.000  C
  C561     1.0000 0.77650  0.71880  0.09520  Biso   1.000  C
  C562     1.0000 0.80890  0.71660  0.06740  Biso   1.000  C
  C563     1.0000 0.71930  0.71350  0.14300  Biso   1.000  C
  C564     1.0000 0.89230  0.69100  0.92220  Biso   1.000  C
  C565     1.0000 0.87340  0.75360  0.91570  Biso   1.000  C
  C566     1.0000 0.87950  0.77140  0.88440  Biso   1.000  C
  C567     1.0000 0.90130  0.72380  0.86620  Biso   1.000  C
  C568     1.0000 0.90660  0.66410  0.86910  Biso   1.000  C
  C569     1.0000 0.89890  0.64870  0.90100  Biso   1.000  C
  C570     1.0000 0.88110  0.80100  0.82580  Biso   1.000  C
  C571     1.0000 0.73180  0.63160  0.98310  Biso   1.000  C
  C572     1.0000 0.69190  0.67350  0.99640  Biso   1.000  C
  C573     1.0000 0.62130  0.65960  0.99900  Biso   1.000  C
  C574     1.0000 0.59600  0.60970  0.99050  Biso   1.000  C
  C575     1.0000 0.63140  0.56610  0.97750  Biso   1.000  C
  C576     1.0000 0.70250  0.57850  0.97370  Biso   1.000  C
  C577     1.0000 0.50400  0.60050  0.02010  Biso   1.000  C
  C578     1.0000 0.50000  0.54900  0.99720  Biso   1.000  C
  C579     1.0000 0.21730  0.50520  0.73610  Biso   1.000  C
  C580     1.0000 0.23940  0.48070  0.76300  Biso   1.000  C
  C581     1.0000 0.19420  0.45050  0.78020  Biso   1.000  C
  C582     1.0000 0.12510  0.44780  0.76820  Biso   1.000  C
  C583     1.0000 0.09730  0.47100  0.74160  Biso   1.000  C
  C584     1.0000 0.14560  0.49980  0.72510  Biso   1.000  C
  C585     1.0000 0.08910  0.39040  0.81190  Biso   1.000  C
  C586     1.0000 0.29610  0.51300  0.64470  Biso   1.000  C
  C587     1.0000 0.24570  0.53760  0.62380  Biso   1.000  C
  C588     1.0000 0.23470  0.51360  0.59500  Biso   1.000  C
  C589     1.0000 0.27390  0.46900  0.58960  Biso   1.000  C
  C590     1.0000 0.32970  0.44280  0.60860  Biso   1.000  C
  C591     1.0000 0.33980  0.46920  0.63820  Biso   1.000  C
  C592     1.0000 0.30410  0.40220  0.54940  Biso   1.000  C
  C593     1.0000 0.21680  0.70120  0.73020  Biso   1.000  C
  C594     1.0000 0.24950  0.74560  0.74910  Biso   1.000  C
  C595     1.0000 0.20560  0.78320  0.76610  Biso   1.000  C
  C596     1.0000 0.13350  0.76010  0.76350  Biso   1.000  C
  C597     1.0000 0.10560  0.72170  0.74850  Biso   1.000  C
  C598     1.0000 0.14960  0.68350  0.73210  Biso   1.000  C
  O99      1.0000 0.08700  0.80200  0.77850  Biso   1.000  O
  C599     1.0000 0.21070  0.67720  0.73180  Biso   1.000  C
  C600     1.0000 0.22400  0.73350  0.74560  Biso   1.000  C
  C601     1.0000 0.17900  0.75400  0.76790  Biso   1.000  C
  C602     1.0000 0.11600  0.71500  0.76580  Biso   1.000  C
  C603     1.0000 0.09590  0.67800  0.74840  Biso   1.000  C
  C604     1.0000 0.14590  0.65070  0.73050  Biso   1.000  C
  O100     1.0000 0.06300  0.73600  0.78580  Biso   1.000  O
  C605     1.0000 0.09800  0.78100  0.79820  Biso   1.000  C
  C606     1.0000 0.34690  0.70360  0.65180  Biso   1.000  C
  C607     1.0000 0.29860  0.71980  0.62710  Biso   1.000  C
  C608     1.0000 0.32310  0.75470  0.60340  Biso   1.000  C
  C609     1.0000 0.38870  0.76800  0.60530  Biso   1.000  C
  C610     1.0000 0.43930  0.75360  0.62790  Biso   1.000  C
  C611     1.0000 0.41590  0.72040  0.65140  Biso   1.000  C
  C612     1.0000 0.37200  0.81900  0.55830  Biso   1.000  C
  C613     1.0000 0.50000  0.28480  0.25000  Biso   1.000  C
  C614     1.0000 0.50000  0.52140  0.25000  Biso   1.000  C
  C615     1.0000 0.50000  0.71520  0.75000  Biso   1.000  C
  C616     1.0000 0.50000  0.47860  0.75000  Biso   1.000  C
