data_image0
_cell_length_a       49.033
_cell_length_b       8.9877
_cell_length_c       18.4357
_cell_angle_alpha    90
_cell_angle_beta     90
_cell_angle_gamma    90

_symmetry_space_group_name_H-M    "P 1"
_symmetry_int_tables_number       1

loop_
  _symmetry_equiv_pos_as_xyz
  'x, y, z'

loop_
  _atom_site_label
  _atom_site_occupancy
  _atom_site_fract_x
  _atom_site_fract_y
  _atom_site_fract_z
  _atom_site_thermal_displace_type
  _atom_site_B_iso_or_equiv
  _atom_site_type_symbol
  O1       1.0000 0.09065  0.00090  0.19300  Biso   1.000  O
  N1       1.0000 0.03243  0.36960  0.06390  Biso   1.000  N
  N2       1.0000 0.09504  0.20430  0.26230  Biso   1.000  N
  H1       1.0000 0.09120  0.29980  0.26460  Biso   1.000  H
  C1       1.0000 0.05460  0.42770  0.08790  Biso   1.000  C
  H2       1.0000 0.05950  0.52400  0.07130  Biso   1.000  H
  C2       1.0000 0.07210  0.35400  0.13820  Biso   1.000  C
  H3       1.0000 0.08710  0.40620  0.15850  Biso   1.000  H
  C3       1.0000 0.06746  0.21560  0.15670  Biso   1.000  C
  C4       1.0000 0.04750  0.13630  0.11920  Biso   1.000  C
  H4       1.0000 0.04560  0.03170  0.12450  Biso   1.000  H
  C5       1.0000 0.03000  0.22020  0.07220  Biso   1.000  C
  H5       1.0000 0.01620  0.16940  0.04590  Biso   1.000  H
  C6       1.0000 0.08536  0.13150  0.20500  Biso   1.000  C
  C7       1.0000 0.11087  0.14540  0.32040  Biso   1.000  C
  C8       1.0000 0.10445  0.19470  0.39030  Biso   1.000  C
  H6       1.0000 0.08960  0.26090  0.39740  Biso   1.000  H
  C9       1.0000 0.11941  0.14830  0.44820  Biso   1.000  C
  H7       1.0000 0.11520  0.18390  0.49540  Biso   1.000  H
  C10      1.0000 0.14080  0.04940  0.43870  Biso   1.000  C
  C11      1.0000 0.14696  0.99860  0.36910  Biso   1.000  C
  H8       1.0000 0.16140  0.92970  0.36200  Biso   1.000  H
  C12      1.0000 0.13197  0.04890  0.31010  Biso   1.000  C
  H9       1.0000 0.13640  0.01610  0.26250  Biso   1.000  H
  C13      1.0000 0.19908  0.10480  0.46050  Biso   1.000  C
  H10      1.0000 0.18960  0.17780  0.43320  Biso   1.000  H
  C14      1.0000 0.22707  0.10440  0.46050  Biso   1.000  C
  H11      1.0000 0.23670  0.17670  0.43300  Biso   1.000  H
  O2       1.0000 0.28001  0.02190  0.39540  Biso   1.000  O
  N3       1.0000 0.27049  0.98900  0.51410  Biso   1.000  N
  C15      1.0000 0.28760  0.00580  0.45870  Biso   1.000  C
  C16      1.0000 0.36210  0.02000  0.43320  Biso   1.000  C
  C17      1.0000 0.33590  0.02040  0.42000  Biso   1.000  C
  C18      1.0000 0.31770  0.00380  0.47630  Biso   1.000  C
  C19      1.0000 0.32840  0.98590  0.54480  Biso   1.000  C
  C20      1.0000 0.35780  0.98900  0.55230  Biso   1.000  C
  O3       1.0000 0.26188  0.47070  0.28950  Biso   1.000  O
  C21      1.0000 0.27450  0.33690  0.31020  Biso   1.000  C
  H12      1.0000 0.26050  0.25910  0.31810  Biso   1.000  H
  H13      1.0000 0.28460  0.35150  0.35610  Biso   1.000  H
  C22      1.0000 0.29360  0.29000  0.25200  Biso   1.000  C
  H14      1.0000 0.30240  0.19600  0.26600  Biso   1.000  H
  H15      1.0000 0.30750  0.36640  0.24490  Biso   1.000  H
  H16      1.0000 0.28340  0.27510  0.20680  Biso   1.000  H
  C23      1.0000 0.03150  0.39820  0.14070  Biso   1.000  C
  H17      1.0000 0.01870  0.46720  0.15960  Biso   1.000  H
  C24      1.0000 0.04920  0.32550  0.18680  Biso   1.000  C
  H18      1.0000 0.04940  0.34730  0.23720  Biso   1.000  H
  C25      1.0000 0.06640  0.19500  0.08340  Biso   1.000  C
  H19      1.0000 0.07800  0.12400  0.06110  Biso   1.000  H
  C26      1.0000 0.04860  0.27580  0.04190  Biso   1.000  C
  H20      1.0000 0.04880  0.25750  0.99110  Biso   1.000  H
  H21      1.0000 0.27660  0.97160  0.55810  Biso   1.000  H
  H22      1.0000 0.37410  0.03160  0.39240  Biso   1.000  H
  H23      1.0000 0.32870  0.03560  0.37210  Biso   1.000  H
  H24      1.0000 0.31670  0.97200  0.58610  Biso   1.000  H
  H25      1.0000 0.36550  0.98000  0.60000  Biso   1.000  H
  O4       1.0000 0.27998  0.11210  0.33620  Biso   1.000  O
  H26      1.0000 0.26520  0.08890  0.31510  Biso   1.000  H
  C27      1.0000 0.28490  0.26140  0.32340  Biso   1.000  C
  H27      1.0000 0.29350  0.30600  0.36700  Biso   1.000  H
  H28      1.0000 0.26740  0.31300  0.31480  Biso   1.000  H
  C28      1.0000 0.30320  0.28400  0.25940  Biso   1.000  C
  H29      1.0000 0.30670  0.39070  0.25290  Biso   1.000  H
  H30      1.0000 0.29450  0.24410  0.21580  Biso   1.000  H
  H31      1.0000 0.32060  0.23250  0.26760  Biso   1.000  H
  O5       1.0000 0.40935  0.99910  0.69300  Biso   1.000  O
  N4       1.0000 0.46757  0.63040  0.56390  Biso   1.000  N
  N5       1.0000 0.40496  0.79570  0.76230  Biso   1.000  N
  H32      1.0000 0.40880  0.70020  0.76460  Biso   1.000  H
  C29      1.0000 0.44540  0.57230  0.58790  Biso   1.000  C
  H33      1.0000 0.44050  0.47600  0.57130  Biso   1.000  H
  C30      1.0000 0.42790  0.64600  0.63820  Biso   1.000  C
  H34      1.0000 0.41290  0.59380  0.65850  Biso   1.000  H
  C31      1.0000 0.43254  0.78440  0.65670  Biso   1.000  C
  C32      1.0000 0.45250  0.86370  0.61920  Biso   1.000  C
  H35      1.0000 0.45440  0.96830  0.62450  Biso   1.000  H
  C33      1.0000 0.47000  0.77980  0.57220  Biso   1.000  C
  H36      1.0000 0.48380  0.83060  0.54590  Biso   1.000  H
  C34      1.0000 0.41464  0.86850  0.70500  Biso   1.000  C
  C35      1.0000 0.38913  0.85460  0.82040  Biso   1.000  C
  C36      1.0000 0.39555  0.80530  0.89030  Biso   1.000  C
  H37      1.0000 0.41040  0.73910  0.89740  Biso   1.000  H
  C37      1.0000 0.38059  0.85170  0.94820  Biso   1.000  C
  H38      1.0000 0.38480  0.81610  0.99540  Biso   1.000  H
  C38      1.0000 0.35920  0.95060  0.93870  Biso   1.000  C
  C39      1.0000 0.35304  0.00140  0.86910  Biso   1.000  C
  H39      1.0000 0.33860  0.07030  0.86200  Biso   1.000  H
  C40      1.0000 0.36803  0.95110  0.81010  Biso   1.000  C
  H40      1.0000 0.36360  0.98390  0.76250  Biso   1.000  H
  C41      1.0000 0.30092  0.89520  0.96050  Biso   1.000  C
  H41      1.0000 0.31040  0.82220  0.93320  Biso   1.000  H
  C42      1.0000 0.27293  0.89560  0.96050  Biso   1.000  C
  H42      1.0000 0.26330  0.82330  0.93300  Biso   1.000  H
  O6       1.0000 0.21999  0.97810  0.89540  Biso   1.000  O
  N6       1.0000 0.22951  0.01100  0.01410  Biso   1.000  N
  C43      1.0000 0.21240  0.99420  0.95870  Biso   1.000  C
  C44      1.0000 0.13790  0.98000  0.93320  Biso   1.000  C
  C45      1.0000 0.16410  0.97960  0.92000  Biso   1.000  C
  C46      1.0000 0.18230  0.99620  0.97630  Biso   1.000  C
  C47      1.0000 0.17160  0.01410  0.04480  Biso   1.000  C
  C48      1.0000 0.14220  0.01100  0.05230  Biso   1.000  C
  O7       1.0000 0.23812  0.52930  0.78950  Biso   1.000  O
  C49      1.0000 0.22550  0.66310  0.81020  Biso   1.000  C
  H43      1.0000 0.23950  0.74090  0.81810  Biso   1.000  H
  H44      1.0000 0.21540  0.64850  0.85610  Biso   1.000  H
  C50      1.0000 0.20640  0.71000  0.75200  Biso   1.000  C
  H45      1.0000 0.19760  0.80400  0.76600  Biso   1.000  H
  H46      1.0000 0.19250  0.63360  0.74490  Biso   1.000  H
  H47      1.0000 0.21660  0.72490  0.70680  Biso   1.000  H
  C51      1.0000 0.46850  0.60180  0.64070  Biso   1.000  C
  H48      1.0000 0.48130  0.53280  0.65960  Biso   1.000  H
  C52      1.0000 0.45080  0.67450  0.68680  Biso   1.000  C
  H49      1.0000 0.45060  0.65270  0.73720  Biso   1.000  H
  C53      1.0000 0.43360  0.80500  0.58340  Biso   1.000  C
  H50      1.0000 0.42200  0.87600  0.56110  Biso   1.000  H
  C54      1.0000 0.45140  0.72420  0.54190  Biso   1.000  C
  H51      1.0000 0.45120  0.74250  0.49110  Biso   1.000  H
  H52      1.0000 0.22340  0.02840  0.05810  Biso   1.000  H
  H53      1.0000 0.12590  0.96840  0.89240  Biso   1.000  H
  H54      1.0000 0.17130  0.96440  0.87210  Biso   1.000  H
  H55      1.0000 0.18330  0.02800  0.08610  Biso   1.000  H
  H56      1.0000 0.13450  0.02000  0.10000  Biso   1.000  H
  O8       1.0000 0.22002  0.88790  0.83620  Biso   1.000  O
  H57      1.0000 0.23480  0.91110  0.81510  Biso   1.000  H
  C55      1.0000 0.21510  0.73860  0.82340  Biso   1.000  C
  H58      1.0000 0.20650  0.69400  0.86700  Biso   1.000  H
  H59      1.0000 0.23260  0.68700  0.81480  Biso   1.000  H
  C56      1.0000 0.19680  0.71600  0.75940  Biso   1.000  C
  H60      1.0000 0.19330  0.60930  0.75290  Biso   1.000  H
  H61      1.0000 0.20550  0.75590  0.71580  Biso   1.000  H
  H62      1.0000 0.17940  0.76750  0.76760  Biso   1.000  H
  O9       1.0000 0.40935  0.00090  0.30700  Biso   1.000  O
  N7       1.0000 0.46757  0.36960  0.43610  Biso   1.000  N
  N8       1.0000 0.40496  0.20430  0.23770  Biso   1.000  N
  H63      1.0000 0.40880  0.29980  0.23540  Biso   1.000  H
  C57      1.0000 0.44540  0.42770  0.41210  Biso   1.000  C
  H64      1.0000 0.44050  0.52400  0.42870  Biso   1.000  H
  C58      1.0000 0.42790  0.35400  0.36180  Biso   1.000  C
  H65      1.0000 0.41290  0.40620  0.34150  Biso   1.000  H
  C59      1.0000 0.43254  0.21560  0.34330  Biso   1.000  C
  C60      1.0000 0.45250  0.13630  0.38080  Biso   1.000  C
  H66      1.0000 0.45440  0.03170  0.37550  Biso   1.000  H
  C61      1.0000 0.47000  0.22020  0.42780  Biso   1.000  C
  H67      1.0000 0.48380  0.16940  0.45410  Biso   1.000  H
  C62      1.0000 0.41464  0.13150  0.29500  Biso   1.000  C
  C63      1.0000 0.38913  0.14540  0.17960  Biso   1.000  C
  C64      1.0000 0.39555  0.19470  0.10970  Biso   1.000  C
  H68      1.0000 0.41040  0.26090  0.10260  Biso   1.000  H
  C65      1.0000 0.38059  0.14830  0.05180  Biso   1.000  C
  H69      1.0000 0.38480  0.18390  0.00460  Biso   1.000  H
  C66      1.0000 0.35920  0.04940  0.06130  Biso   1.000  C
  C67      1.0000 0.35304  0.99860  0.13090  Biso   1.000  C
  H70      1.0000 0.33860  0.92970  0.13800  Biso   1.000  H
  C68      1.0000 0.36803  0.04890  0.18990  Biso   1.000  C
  H71      1.0000 0.36360  0.01610  0.23750  Biso   1.000  H
  C69      1.0000 0.30092  0.10480  0.03950  Biso   1.000  C
  H72      1.0000 0.31040  0.17780  0.06680  Biso   1.000  H
  C70      1.0000 0.27293  0.10440  0.03950  Biso   1.000  C
  H73      1.0000 0.26330  0.17670  0.06700  Biso   1.000  H
  O10      1.0000 0.21999  0.02190  0.10460  Biso   1.000  O
  N9       1.0000 0.22951  0.98900  0.98590  Biso   1.000  N
  C71      1.0000 0.21240  0.00580  0.04130  Biso   1.000  C
  C72      1.0000 0.13790  0.02000  0.06680  Biso   1.000  C
  C73      1.0000 0.16410  0.02040  0.08000  Biso   1.000  C
  C74      1.0000 0.18230  0.00380  0.02370  Biso   1.000  C
  C75      1.0000 0.17160  0.98590  0.95520  Biso   1.000  C
  C76      1.0000 0.14220  0.98900  0.94770  Biso   1.000  C
  O11      1.0000 0.23812  0.47070  0.21050  Biso   1.000  O
  C77      1.0000 0.22550  0.33690  0.18980  Biso   1.000  C
  H74      1.0000 0.23950  0.25910  0.18190  Biso   1.000  H
  H75      1.0000 0.21540  0.35150  0.14390  Biso   1.000  H
  C78      1.0000 0.20640  0.29000  0.24800  Biso   1.000  C
  H76      1.0000 0.19760  0.19600  0.23400  Biso   1.000  H
  H77      1.0000 0.19250  0.36640  0.25510  Biso   1.000  H
  H78      1.0000 0.21660  0.27510  0.29320  Biso   1.000  H
  C79      1.0000 0.46850  0.39820  0.35930  Biso   1.000  C
  H79      1.0000 0.48130  0.46720  0.34040  Biso   1.000  H
  C80      1.0000 0.45080  0.32550  0.31320  Biso   1.000  C
  H80      1.0000 0.45060  0.34730  0.26280  Biso   1.000  H
  C81      1.0000 0.43360  0.19500  0.41660  Biso   1.000  C
  H81      1.0000 0.42200  0.12400  0.43890  Biso   1.000  H
  C82      1.0000 0.45140  0.27580  0.45810  Biso   1.000  C
  H82      1.0000 0.45120  0.25750  0.50890  Biso   1.000  H
  H83      1.0000 0.22340  0.97160  0.94190  Biso   1.000  H
  H84      1.0000 0.12590  0.03160  0.10760  Biso   1.000  H
  H85      1.0000 0.17130  0.03560  0.12790  Biso   1.000  H
  H86      1.0000 0.18330  0.97200  0.91390  Biso   1.000  H
  H87      1.0000 0.13450  0.98000  0.90000  Biso   1.000  H
  O12      1.0000 0.22002  0.11210  0.16380  Biso   1.000  O
  H88      1.0000 0.23480  0.08890  0.18490  Biso   1.000  H
  C83      1.0000 0.21510  0.26140  0.17660  Biso   1.000  C
  H89      1.0000 0.20650  0.30600  0.13300  Biso   1.000  H
  H90      1.0000 0.23260  0.31300  0.18520  Biso   1.000  H
  C84      1.0000 0.19680  0.28400  0.24060  Biso   1.000  C
  H91      1.0000 0.19330  0.39070  0.24710  Biso   1.000  H
  H92      1.0000 0.20550  0.24410  0.28420  Biso   1.000  H
  H93      1.0000 0.17940  0.23250  0.23240  Biso   1.000  H
  O13      1.0000 0.09065  0.99910  0.80700  Biso   1.000  O
  N10      1.0000 0.03243  0.63040  0.93610  Biso   1.000  N
  N11      1.0000 0.09504  0.79570  0.73770  Biso   1.000  N
  H94      1.0000 0.09120  0.70020  0.73540  Biso   1.000  H
  C85      1.0000 0.05460  0.57230  0.91210  Biso   1.000  C
  H95      1.0000 0.05950  0.47600  0.92870  Biso   1.000  H
  C86      1.0000 0.07210  0.64600  0.86180  Biso   1.000  C
  H96      1.0000 0.08710  0.59380  0.84150  Biso   1.000  H
  C87      1.0000 0.06746  0.78440  0.84330  Biso   1.000  C
  C88      1.0000 0.04750  0.86370  0.88080  Biso   1.000  C
  H97      1.0000 0.04560  0.96830  0.87550  Biso   1.000  H
  C89      1.0000 0.03000  0.77980  0.92780  Biso   1.000  C
  H98      1.0000 0.01620  0.83060  0.95410  Biso   1.000  H
  C90      1.0000 0.08536  0.86850  0.79500  Biso   1.000  C
  C91      1.0000 0.11087  0.85460  0.67960  Biso   1.000  C
  C92      1.0000 0.10445  0.80530  0.60970  Biso   1.000  C
  H99      1.0000 0.08960  0.73910  0.60260  Biso   1.000  H
  C93      1.0000 0.11941  0.85170  0.55180  Biso   1.000  C
  H100     1.0000 0.11520  0.81610  0.50460  Biso   1.000  H
  C94      1.0000 0.14080  0.95060  0.56130  Biso   1.000  C
  C95      1.0000 0.14696  0.00140  0.63090  Biso   1.000  C
  H101     1.0000 0.16140  0.07030  0.63800  Biso   1.000  H
  C96      1.0000 0.13197  0.95110  0.68990  Biso   1.000  C
  H102     1.0000 0.13640  0.98390  0.73750  Biso   1.000  H
  C97      1.0000 0.19908  0.89520  0.53950  Biso   1.000  C
  H103     1.0000 0.18960  0.82220  0.56680  Biso   1.000  H
  C98      1.0000 0.22707  0.89560  0.53950  Biso   1.000  C
  H104     1.0000 0.23670  0.82330  0.56700  Biso   1.000  H
  O14      1.0000 0.28001  0.97810  0.60460  Biso   1.000  O
  N12      1.0000 0.27049  0.01100  0.48590  Biso   1.000  N
  C99      1.0000 0.28760  0.99420  0.54130  Biso   1.000  C
  C100     1.0000 0.36210  0.98000  0.56680  Biso   1.000  C
  C101     1.0000 0.33590  0.97960  0.58000  Biso   1.000  C
  C102     1.0000 0.31770  0.99620  0.52370  Biso   1.000  C
  C103     1.0000 0.32840  0.01410  0.45520  Biso   1.000  C
  C104     1.0000 0.35780  0.01100  0.44770  Biso   1.000  C
  O15      1.0000 0.26188  0.52930  0.71050  Biso   1.000  O
  C105     1.0000 0.27450  0.66310  0.68980  Biso   1.000  C
  H105     1.0000 0.26050  0.74090  0.68190  Biso   1.000  H
  H106     1.0000 0.28460  0.64850  0.64390  Biso   1.000  H
  C106     1.0000 0.29360  0.71000  0.74800  Biso   1.000  C
  H107     1.0000 0.30240  0.80400  0.73400  Biso   1.000  H
  H108     1.0000 0.30750  0.63360  0.75510  Biso   1.000  H
  H109     1.0000 0.28340  0.72490  0.79320  Biso   1.000  H
  C107     1.0000 0.03150  0.60180  0.85930  Biso   1.000  C
  H110     1.0000 0.01870  0.53280  0.84040  Biso   1.000  H
  C108     1.0000 0.04920  0.67450  0.81320  Biso   1.000  C
  H111     1.0000 0.04940  0.65270  0.76280  Biso   1.000  H
  C109     1.0000 0.06640  0.80500  0.91660  Biso   1.000  C
  H112     1.0000 0.07800  0.87600  0.93890  Biso   1.000  H
  C110     1.0000 0.04860  0.72420  0.95810  Biso   1.000  C
  H113     1.0000 0.04880  0.74250  0.00890  Biso   1.000  H
  H114     1.0000 0.27660  0.02840  0.44190  Biso   1.000  H
  H115     1.0000 0.37410  0.96840  0.60760  Biso   1.000  H
  H116     1.0000 0.32870  0.96440  0.62790  Biso   1.000  H
  H117     1.0000 0.31670  0.02800  0.41390  Biso   1.000  H
  H118     1.0000 0.36550  0.02000  0.40000  Biso   1.000  H
  O16      1.0000 0.27998  0.88790  0.66380  Biso   1.000  O
  H119     1.0000 0.26520  0.91110  0.68490  Biso   1.000  H
  C111     1.0000 0.28490  0.73860  0.67660  Biso   1.000  C
  H120     1.0000 0.29350  0.69400  0.63300  Biso   1.000  H
  H121     1.0000 0.26740  0.68700  0.68520  Biso   1.000  H
  C112     1.0000 0.30320  0.71600  0.74060  Biso   1.000  C
  H122     1.0000 0.30670  0.60930  0.74710  Biso   1.000  H
  H123     1.0000 0.29450  0.75590  0.78420  Biso   1.000  H
  H124     1.0000 0.32060  0.76750  0.73240  Biso   1.000  H
  O17      1.0000 0.90935  0.99910  0.80700  Biso   1.000  O
  N13      1.0000 0.96757  0.63040  0.93610  Biso   1.000  N
  N14      1.0000 0.90496  0.79570  0.73770  Biso   1.000  N
  H125     1.0000 0.90880  0.70020  0.73540  Biso   1.000  H
  C113     1.0000 0.94540  0.57230  0.91210  Biso   1.000  C
  H126     1.0000 0.94050  0.47600  0.92870  Biso   1.000  H
  C114     1.0000 0.92790  0.64600  0.86180  Biso   1.000  C
  H127     1.0000 0.91290  0.59380  0.84150  Biso   1.000  H
  C115     1.0000 0.93254  0.78440  0.84330  Biso   1.000  C
  C116     1.0000 0.95250  0.86370  0.88080  Biso   1.000  C
  H128     1.0000 0.95440  0.96830  0.87550  Biso   1.000  H
  C117     1.0000 0.97000  0.77980  0.92780  Biso   1.000  C
  H129     1.0000 0.98380  0.83060  0.95410  Biso   1.000  H
  C118     1.0000 0.91464  0.86850  0.79500  Biso   1.000  C
  C119     1.0000 0.88913  0.85460  0.67960  Biso   1.000  C
  C120     1.0000 0.89555  0.80530  0.60970  Biso   1.000  C
  H130     1.0000 0.91040  0.73910  0.60260  Biso   1.000  H
  C121     1.0000 0.88059  0.85170  0.55180  Biso   1.000  C
  H131     1.0000 0.88480  0.81610  0.50460  Biso   1.000  H
  C122     1.0000 0.85920  0.95060  0.56130  Biso   1.000  C
  C123     1.0000 0.85304  0.00140  0.63090  Biso   1.000  C
  H132     1.0000 0.83860  0.07030  0.63800  Biso   1.000  H
  C124     1.0000 0.86803  0.95110  0.68990  Biso   1.000  C
  H133     1.0000 0.86360  0.98390  0.73750  Biso   1.000  H
  C125     1.0000 0.80092  0.89520  0.53950  Biso   1.000  C
  H134     1.0000 0.81040  0.82220  0.56680  Biso   1.000  H
  C126     1.0000 0.77293  0.89560  0.53950  Biso   1.000  C
  H135     1.0000 0.76330  0.82330  0.56700  Biso   1.000  H
  O18      1.0000 0.71999  0.97810  0.60460  Biso   1.000  O
  N15      1.0000 0.72951  0.01100  0.48590  Biso   1.000  N
  C127     1.0000 0.71240  0.99420  0.54130  Biso   1.000  C
  C128     1.0000 0.63790  0.98000  0.56680  Biso   1.000  C
  C129     1.0000 0.66410  0.97960  0.58000  Biso   1.000  C
  C130     1.0000 0.68230  0.99620  0.52370  Biso   1.000  C
  C131     1.0000 0.67160  0.01410  0.45520  Biso   1.000  C
  C132     1.0000 0.64220  0.01100  0.44770  Biso   1.000  C
  O19      1.0000 0.73812  0.52930  0.71050  Biso   1.000  O
  C133     1.0000 0.72550  0.66310  0.68980  Biso   1.000  C
  H136     1.0000 0.73950  0.74090  0.68190  Biso   1.000  H
  H137     1.0000 0.71540  0.64850  0.64390  Biso   1.000  H
  C134     1.0000 0.70640  0.71000  0.74800  Biso   1.000  C
  H138     1.0000 0.69760  0.80400  0.73400  Biso   1.000  H
  H139     1.0000 0.69250  0.63360  0.75510  Biso   1.000  H
  H140     1.0000 0.71660  0.72490  0.79320  Biso   1.000  H
  C135     1.0000 0.96850  0.60180  0.85930  Biso   1.000  C
  H141     1.0000 0.98130  0.53280  0.84040  Biso   1.000  H
  C136     1.0000 0.95080  0.67450  0.81320  Biso   1.000  C
  H142     1.0000 0.95060  0.65270  0.76280  Biso   1.000  H
  C137     1.0000 0.93360  0.80500  0.91660  Biso   1.000  C
  H143     1.0000 0.92200  0.87600  0.93890  Biso   1.000  H
  C138     1.0000 0.95140  0.72420  0.95810  Biso   1.000  C
  H144     1.0000 0.95120  0.74250  0.00890  Biso   1.000  H
  H145     1.0000 0.72340  0.02840  0.44190  Biso   1.000  H
  H146     1.0000 0.62590  0.96840  0.60760  Biso   1.000  H
  H147     1.0000 0.67130  0.96440  0.62790  Biso   1.000  H
  H148     1.0000 0.68330  0.02800  0.41390  Biso   1.000  H
  H149     1.0000 0.63450  0.02000  0.40000  Biso   1.000  H
  O20      1.0000 0.72002  0.88790  0.66380  Biso   1.000  O
  H150     1.0000 0.73480  0.91110  0.68490  Biso   1.000  H
  C139     1.0000 0.71510  0.73860  0.67660  Biso   1.000  C
  H151     1.0000 0.70650  0.69400  0.63300  Biso   1.000  H
  H152     1.0000 0.73260  0.68700  0.68520  Biso   1.000  H
  C140     1.0000 0.69680  0.71600  0.74060  Biso   1.000  C
  H153     1.0000 0.69330  0.60930  0.74710  Biso   1.000  H
  H154     1.0000 0.70550  0.75590  0.78420  Biso   1.000  H
  H155     1.0000 0.67940  0.76750  0.73240  Biso   1.000  H
  O21      1.0000 0.59065  0.00090  0.30700  Biso   1.000  O
  N16      1.0000 0.53243  0.36960  0.43610  Biso   1.000  N
  N17      1.0000 0.59504  0.20430  0.23770  Biso   1.000  N
  H156     1.0000 0.59120  0.29980  0.23540  Biso   1.000  H
  C141     1.0000 0.55460  0.42770  0.41210  Biso   1.000  C
  H157     1.0000 0.55950  0.52400  0.42870  Biso   1.000  H
  C142     1.0000 0.57210  0.35400  0.36180  Biso   1.000  C
  H158     1.0000 0.58710  0.40620  0.34150  Biso   1.000  H
  C143     1.0000 0.56746  0.21560  0.34330  Biso   1.000  C
  C144     1.0000 0.54750  0.13630  0.38080  Biso   1.000  C
  H159     1.0000 0.54560  0.03170  0.37550  Biso   1.000  H
  C145     1.0000 0.53000  0.22020  0.42780  Biso   1.000  C
  H160     1.0000 0.51620  0.16940  0.45410  Biso   1.000  H
  C146     1.0000 0.58536  0.13150  0.29500  Biso   1.000  C
  C147     1.0000 0.61087  0.14540  0.17960  Biso   1.000  C
  C148     1.0000 0.60445  0.19470  0.10970  Biso   1.000  C
  H161     1.0000 0.58960  0.26090  0.10260  Biso   1.000  H
  C149     1.0000 0.61941  0.14830  0.05180  Biso   1.000  C
  H162     1.0000 0.61520  0.18390  0.00460  Biso   1.000  H
  C150     1.0000 0.64080  0.04940  0.06130  Biso   1.000  C
  C151     1.0000 0.64696  0.99860  0.13090  Biso   1.000  C
  H163     1.0000 0.66140  0.92970  0.13800  Biso   1.000  H
  C152     1.0000 0.63197  0.04890  0.18990  Biso   1.000  C
  H164     1.0000 0.63640  0.01610  0.23750  Biso   1.000  H
  C153     1.0000 0.69908  0.10480  0.03950  Biso   1.000  C
  H165     1.0000 0.68960  0.17780  0.06680  Biso   1.000  H
  C154     1.0000 0.72707  0.10440  0.03950  Biso   1.000  C
  H166     1.0000 0.73670  0.17670  0.06700  Biso   1.000  H
  O22      1.0000 0.78001  0.02190  0.10460  Biso   1.000  O
  N18      1.0000 0.77049  0.98900  0.98590  Biso   1.000  N
  C155     1.0000 0.78760  0.00580  0.04130  Biso   1.000  C
  C156     1.0000 0.86210  0.02000  0.06680  Biso   1.000  C
  C157     1.0000 0.83590  0.02040  0.08000  Biso   1.000  C
  C158     1.0000 0.81770  0.00380  0.02370  Biso   1.000  C
  C159     1.0000 0.82840  0.98590  0.95520  Biso   1.000  C
  C160     1.0000 0.85780  0.98900  0.94770  Biso   1.000  C
  O23      1.0000 0.76188  0.47070  0.21050  Biso   1.000  O
  C161     1.0000 0.77450  0.33690  0.18980  Biso   1.000  C
  H167     1.0000 0.76050  0.25910  0.18190  Biso   1.000  H
  H168     1.0000 0.78460  0.35150  0.14390  Biso   1.000  H
  C162     1.0000 0.79360  0.29000  0.24800  Biso   1.000  C
  H169     1.0000 0.80240  0.19600  0.23400  Biso   1.000  H
  H170     1.0000 0.80750  0.36640  0.25510  Biso   1.000  H
  H171     1.0000 0.78340  0.27510  0.29320  Biso   1.000  H
  C163     1.0000 0.53150  0.39820  0.35930  Biso   1.000  C
  H172     1.0000 0.51870  0.46720  0.34040  Biso   1.000  H
  C164     1.0000 0.54920  0.32550  0.31320  Biso   1.000  C
  H173     1.0000 0.54940  0.34730  0.26280  Biso   1.000  H
  C165     1.0000 0.56640  0.19500  0.41660  Biso   1.000  C
  H174     1.0000 0.57800  0.12400  0.43890  Biso   1.000  H
  C166     1.0000 0.54860  0.27580  0.45810  Biso   1.000  C
  H175     1.0000 0.54880  0.25750  0.50890  Biso   1.000  H
  H176     1.0000 0.77660  0.97160  0.94190  Biso   1.000  H
  H177     1.0000 0.87410  0.03160  0.10760  Biso   1.000  H
  H178     1.0000 0.82870  0.03560  0.12790  Biso   1.000  H
  H179     1.0000 0.81670  0.97200  0.91390  Biso   1.000  H
  H180     1.0000 0.86550  0.98000  0.90000  Biso   1.000  H
  O24      1.0000 0.77998  0.11210  0.16380  Biso   1.000  O
  H181     1.0000 0.76520  0.08890  0.18490  Biso   1.000  H
  C167     1.0000 0.78490  0.26140  0.17660  Biso   1.000  C
  H182     1.0000 0.79350  0.30600  0.13300  Biso   1.000  H
  H183     1.0000 0.76740  0.31300  0.18520  Biso   1.000  H
  C168     1.0000 0.80320  0.28400  0.24060  Biso   1.000  C
  H184     1.0000 0.80670  0.39070  0.24710  Biso   1.000  H
  H185     1.0000 0.79450  0.24410  0.28420  Biso   1.000  H
  H186     1.0000 0.82060  0.23250  0.23240  Biso   1.000  H
  O25      1.0000 0.59065  0.99910  0.69300  Biso   1.000  O
  N19      1.0000 0.53243  0.63040  0.56390  Biso   1.000  N
  N20      1.0000 0.59504  0.79570  0.76230  Biso   1.000  N
  H187     1.0000 0.59120  0.70020  0.76460  Biso   1.000  H
  C169     1.0000 0.55460  0.57230  0.58790  Biso   1.000  C
  H188     1.0000 0.55950  0.47600  0.57130  Biso   1.000  H
  C170     1.0000 0.57210  0.64600  0.63820  Biso   1.000  C
  H189     1.0000 0.58710  0.59380  0.65850  Biso   1.000  H
  C171     1.0000 0.56746  0.78440  0.65670  Biso   1.000  C
  C172     1.0000 0.54750  0.86370  0.61920  Biso   1.000  C
  H190     1.0000 0.54560  0.96830  0.62450  Biso   1.000  H
  C173     1.0000 0.53000  0.77980  0.57220  Biso   1.000  C
  H191     1.0000 0.51620  0.83060  0.54590  Biso   1.000  H
  C174     1.0000 0.58536  0.86850  0.70500  Biso   1.000  C
  C175     1.0000 0.61087  0.85460  0.82040  Biso   1.000  C
  C176     1.0000 0.60445  0.80530  0.89030  Biso   1.000  C
  H192     1.0000 0.58960  0.73910  0.89740  Biso   1.000  H
  C177     1.0000 0.61941  0.85170  0.94820  Biso   1.000  C
  H193     1.0000 0.61520  0.81610  0.99540  Biso   1.000  H
  C178     1.0000 0.64080  0.95060  0.93870  Biso   1.000  C
  C179     1.0000 0.64696  0.00140  0.86910  Biso   1.000  C
  H194     1.0000 0.66140  0.07030  0.86200  Biso   1.000  H
  C180     1.0000 0.63197  0.95110  0.81010  Biso   1.000  C
  H195     1.0000 0.63640  0.98390  0.76250  Biso   1.000  H
  C181     1.0000 0.69908  0.89520  0.96050  Biso   1.000  C
  H196     1.0000 0.68960  0.82220  0.93320  Biso   1.000  H
  C182     1.0000 0.72707  0.89560  0.96050  Biso   1.000  C
  H197     1.0000 0.73670  0.82330  0.93300  Biso   1.000  H
  O26      1.0000 0.78001  0.97810  0.89540  Biso   1.000  O
  N21      1.0000 0.77049  0.01100  0.01410  Biso   1.000  N
  C183     1.0000 0.78760  0.99420  0.95870  Biso   1.000  C
  C184     1.0000 0.86210  0.98000  0.93320  Biso   1.000  C
  C185     1.0000 0.83590  0.97960  0.92000  Biso   1.000  C
  C186     1.0000 0.81770  0.99620  0.97630  Biso   1.000  C
  C187     1.0000 0.82840  0.01410  0.04480  Biso   1.000  C
  C188     1.0000 0.85780  0.01100  0.05230  Biso   1.000  C
  O27      1.0000 0.76188  0.52930  0.78950  Biso   1.000  O
  C189     1.0000 0.77450  0.66310  0.81020  Biso   1.000  C
  H198     1.0000 0.76050  0.74090  0.81810  Biso   1.000  H
  H199     1.0000 0.78460  0.64850  0.85610  Biso   1.000  H
  C190     1.0000 0.79360  0.71000  0.75200  Biso   1.000  C
  H200     1.0000 0.80240  0.80400  0.76600  Biso   1.000  H
  H201     1.0000 0.80750  0.63360  0.74490  Biso   1.000  H
  H202     1.0000 0.78340  0.72490  0.70680  Biso   1.000  H
  C191     1.0000 0.53150  0.60180  0.64070  Biso   1.000  C
  H203     1.0000 0.51870  0.53280  0.65960  Biso   1.000  H
  C192     1.0000 0.54920  0.67450  0.68680  Biso   1.000  C
  H204     1.0000 0.54940  0.65270  0.73720  Biso   1.000  H
  C193     1.0000 0.56640  0.80500  0.58340  Biso   1.000  C
  H205     1.0000 0.57800  0.87600  0.56110  Biso   1.000  H
  C194     1.0000 0.54860  0.72420  0.54190  Biso   1.000  C
  H206     1.0000 0.54880  0.74250  0.49110  Biso   1.000  H
  H207     1.0000 0.77660  0.02840  0.05810  Biso   1.000  H
  H208     1.0000 0.87410  0.96840  0.89240  Biso   1.000  H
  H209     1.0000 0.82870  0.96440  0.87210  Biso   1.000  H
  H210     1.0000 0.81670  0.02800  0.08610  Biso   1.000  H
  H211     1.0000 0.86550  0.02000  0.10000  Biso   1.000  H
  O28      1.0000 0.77998  0.88790  0.83620  Biso   1.000  O
  H212     1.0000 0.76520  0.91110  0.81510  Biso   1.000  H
  C195     1.0000 0.78490  0.73860  0.82340  Biso   1.000  C
  H213     1.0000 0.79350  0.69400  0.86700  Biso   1.000  H
  H214     1.0000 0.76740  0.68700  0.81480  Biso   1.000  H
  C196     1.0000 0.80320  0.71600  0.75940  Biso   1.000  C
  H215     1.0000 0.80670  0.60930  0.75290  Biso   1.000  H
  H216     1.0000 0.79450  0.75590  0.71580  Biso   1.000  H
  H217     1.0000 0.82060  0.76750  0.76760  Biso   1.000  H
  O29      1.0000 0.90935  0.00090  0.19300  Biso   1.000  O
  N22      1.0000 0.96757  0.36960  0.06390  Biso   1.000  N
  N23      1.0000 0.90496  0.20430  0.26230  Biso   1.000  N
  H218     1.0000 0.90880  0.29980  0.26460  Biso   1.000  H
  C197     1.0000 0.94540  0.42770  0.08790  Biso   1.000  C
  H219     1.0000 0.94050  0.52400  0.07130  Biso   1.000  H
  C198     1.0000 0.92790  0.35400  0.13820  Biso   1.000  C
  H220     1.0000 0.91290  0.40620  0.15850  Biso   1.000  H
  C199     1.0000 0.93254  0.21560  0.15670  Biso   1.000  C
  C200     1.0000 0.95250  0.13630  0.11920  Biso   1.000  C
  H221     1.0000 0.95440  0.03170  0.12450  Biso   1.000  H
  C201     1.0000 0.97000  0.22020  0.07220  Biso   1.000  C
  H222     1.0000 0.98380  0.16940  0.04590  Biso   1.000  H
  C202     1.0000 0.91464  0.13150  0.20500  Biso   1.000  C
  C203     1.0000 0.88913  0.14540  0.32040  Biso   1.000  C
  C204     1.0000 0.89555  0.19470  0.39030  Biso   1.000  C
  H223     1.0000 0.91040  0.26090  0.39740  Biso   1.000  H
  C205     1.0000 0.88059  0.14830  0.44820  Biso   1.000  C
  H224     1.0000 0.88480  0.18390  0.49540  Biso   1.000  H
  C206     1.0000 0.85920  0.04940  0.43870  Biso   1.000  C
  C207     1.0000 0.85304  0.99860  0.36910  Biso   1.000  C
  H225     1.0000 0.83860  0.92970  0.36200  Biso   1.000  H
  C208     1.0000 0.86803  0.04890  0.31010  Biso   1.000  C
  H226     1.0000 0.86360  0.01610  0.26250  Biso   1.000  H
  C209     1.0000 0.80092  0.10480  0.46050  Biso   1.000  C
  H227     1.0000 0.81040  0.17780  0.43320  Biso   1.000  H
  C210     1.0000 0.77293  0.10440  0.46050  Biso   1.000  C
  H228     1.0000 0.76330  0.17670  0.43300  Biso   1.000  H
  O30      1.0000 0.71999  0.02190  0.39540  Biso   1.000  O
  N24      1.0000 0.72951  0.98900  0.51410  Biso   1.000  N
  C211     1.0000 0.71240  0.00580  0.45870  Biso   1.000  C
  C212     1.0000 0.63790  0.02000  0.43320  Biso   1.000  C
  C213     1.0000 0.66410  0.02040  0.42000  Biso   1.000  C
  C214     1.0000 0.68230  0.00380  0.47630  Biso   1.000  C
  C215     1.0000 0.67160  0.98590  0.54480  Biso   1.000  C
  C216     1.0000 0.64220  0.98900  0.55230  Biso   1.000  C
  O31      1.0000 0.73812  0.47070  0.28950  Biso   1.000  O
  C217     1.0000 0.72550  0.33690  0.31020  Biso   1.000  C
  H229     1.0000 0.73950  0.25910  0.31810  Biso   1.000  H
  H230     1.0000 0.71540  0.35150  0.35610  Biso   1.000  H
  C218     1.0000 0.70640  0.29000  0.25200  Biso   1.000  C
  H231     1.0000 0.69760  0.19600  0.26600  Biso   1.000  H
  H232     1.0000 0.69250  0.36640  0.24490  Biso   1.000  H
  H233     1.0000 0.71660  0.27510  0.20680  Biso   1.000  H
  C219     1.0000 0.96850  0.39820  0.14070  Biso   1.000  C
  H234     1.0000 0.98130  0.46720  0.15960  Biso   1.000  H
  C220     1.0000 0.95080  0.32550  0.18680  Biso   1.000  C
  H235     1.0000 0.95060  0.34730  0.23720  Biso   1.000  H
  C221     1.0000 0.93360  0.19500  0.08340  Biso   1.000  C
  H236     1.0000 0.92200  0.12400  0.06110  Biso   1.000  H
  C222     1.0000 0.95140  0.27580  0.04190  Biso   1.000  C
  H237     1.0000 0.95120  0.25750  0.99110  Biso   1.000  H
  H238     1.0000 0.72340  0.97160  0.55810  Biso   1.000  H
  H239     1.0000 0.62590  0.03160  0.39240  Biso   1.000  H
  H240     1.0000 0.67130  0.03560  0.37210  Biso   1.000  H
  H241     1.0000 0.68330  0.97200  0.58610  Biso   1.000  H
  H242     1.0000 0.63450  0.98000  0.60000  Biso   1.000  H
  O32      1.0000 0.72002  0.11210  0.33620  Biso   1.000  O
  H243     1.0000 0.73480  0.08890  0.31510  Biso   1.000  H
  C223     1.0000 0.71510  0.26140  0.32340  Biso   1.000  C
  H244     1.0000 0.70650  0.30600  0.36700  Biso   1.000  H
  H245     1.0000 0.73260  0.31300  0.31480  Biso   1.000  H
  C224     1.0000 0.69680  0.28400  0.25940  Biso   1.000  C
  H246     1.0000 0.69330  0.39070  0.25290  Biso   1.000  H
  H247     1.0000 0.70550  0.24410  0.21580  Biso   1.000  H
  H248     1.0000 0.67940  0.23250  0.26760  Biso   1.000  H
  Cd1      1.0000 0.00000  0.50000  0.00000  Biso   1.000  Cd
  Cd2      1.0000 0.50000  0.50000  0.50000  Biso   1.000  Cd
  N25      1.0000 0.15577  0.00000  0.50000  Biso   1.000  N
  C225     1.0000 0.18451  0.00000  0.50000  Biso   1.000  C
  C226     1.0000 0.24135  0.00000  0.50000  Biso   1.000  C
  N26      1.0000 0.37400  0.00000  0.50000  Biso   1.000  N
  N27      1.0000 0.34423  0.00000  0.00000  Biso   1.000  N
  C227     1.0000 0.31549  0.00000  0.00000  Biso   1.000  C
  C228     1.0000 0.25865  0.00000  0.00000  Biso   1.000  C
  N28      1.0000 0.12600  0.00000  0.00000  Biso   1.000  N
  N29      1.0000 0.84423  0.00000  0.50000  Biso   1.000  N
  C229     1.0000 0.81549  0.00000  0.50000  Biso   1.000  C
  C230     1.0000 0.75865  0.00000  0.50000  Biso   1.000  C
  N30      1.0000 0.62600  0.00000  0.50000  Biso   1.000  N
  N31      1.0000 0.65577  0.00000  0.00000  Biso   1.000  N
  C231     1.0000 0.68451  0.00000  0.00000  Biso   1.000  C
  C232     1.0000 0.74135  0.00000  0.00000  Biso   1.000  C
  N32      1.0000 0.87400  0.00000  0.00000  Biso   1.000  N
  H249     1.0000 0.25000  0.45430  0.25000  Biso   1.000  H
  H250     1.0000 0.25000  0.54570  0.75000  Biso   1.000  H
  H251     1.0000 0.75000  0.54570  0.75000  Biso   1.000  H
  H252     1.0000 0.75000  0.45430  0.25000  Biso   1.000  H
  O33      1.0000 0.59065  0.50090  0.19300  Biso   1.000  O
  N33      1.0000 0.53243  0.86960  0.06390  Biso   1.000  N
  N34      1.0000 0.59504  0.70430  0.26230  Biso   1.000  N
  H253     1.0000 0.59120  0.79980  0.26460  Biso   1.000  H
  C233     1.0000 0.55460  0.92770  0.08790  Biso   1.000  C
  H254     1.0000 0.55950  0.02400  0.07130  Biso   1.000  H
  C234     1.0000 0.57210  0.85400  0.13820  Biso   1.000  C
  H255     1.0000 0.58710  0.90620  0.15850  Biso   1.000  H
  C235     1.0000 0.56746  0.71560  0.15670  Biso   1.000  C
  C236     1.0000 0.54750  0.63630  0.11920  Biso   1.000  C
  H256     1.0000 0.54560  0.53170  0.12450  Biso   1.000  H
  C237     1.0000 0.53000  0.72020  0.07220  Biso   1.000  C
  H257     1.0000 0.51620  0.66940  0.04590  Biso   1.000  H
  C238     1.0000 0.58536  0.63150  0.20500  Biso   1.000  C
  C239     1.0000 0.61087  0.64540  0.32040  Biso   1.000  C
  C240     1.0000 0.60445  0.69470  0.39030  Biso   1.000  C
  H258     1.0000 0.58960  0.76090  0.39740  Biso   1.000  H
  C241     1.0000 0.61941  0.64830  0.44820  Biso   1.000  C
  H259     1.0000 0.61520  0.68390  0.49540  Biso   1.000  H
  C242     1.0000 0.64080  0.54940  0.43870  Biso   1.000  C
  C243     1.0000 0.64696  0.49860  0.36910  Biso   1.000  C
  H260     1.0000 0.66140  0.42970  0.36200  Biso   1.000  H
  C244     1.0000 0.63197  0.54890  0.31010  Biso   1.000  C
  H261     1.0000 0.63640  0.51610  0.26250  Biso   1.000  H
  C245     1.0000 0.69908  0.60480  0.46050  Biso   1.000  C
  H262     1.0000 0.68960  0.67780  0.43320  Biso   1.000  H
  C246     1.0000 0.72707  0.60440  0.46050  Biso   1.000  C
  H263     1.0000 0.73670  0.67670  0.43300  Biso   1.000  H
  O34      1.0000 0.78001  0.52190  0.39540  Biso   1.000  O
  N35      1.0000 0.77049  0.48900  0.51410  Biso   1.000  N
  C247     1.0000 0.78760  0.50580  0.45870  Biso   1.000  C
  C248     1.0000 0.86210  0.52000  0.43320  Biso   1.000  C
  C249     1.0000 0.83590  0.52040  0.42000  Biso   1.000  C
  C250     1.0000 0.81770  0.50380  0.47630  Biso   1.000  C
  C251     1.0000 0.82840  0.48590  0.54480  Biso   1.000  C
  C252     1.0000 0.85780  0.48900  0.55230  Biso   1.000  C
  O35      1.0000 0.76188  0.97070  0.28950  Biso   1.000  O
  C253     1.0000 0.77450  0.83690  0.31020  Biso   1.000  C
  H264     1.0000 0.76050  0.75910  0.31810  Biso   1.000  H
  H265     1.0000 0.78460  0.85150  0.35610  Biso   1.000  H
  C254     1.0000 0.79360  0.79000  0.25200  Biso   1.000  C
  H266     1.0000 0.80240  0.69600  0.26600  Biso   1.000  H
  H267     1.0000 0.80750  0.86640  0.24490  Biso   1.000  H
  H268     1.0000 0.78340  0.77510  0.20680  Biso   1.000  H
  C255     1.0000 0.53150  0.89820  0.14070  Biso   1.000  C
  H269     1.0000 0.51870  0.96720  0.15960  Biso   1.000  H
  C256     1.0000 0.54920  0.82550  0.18680  Biso   1.000  C
  H270     1.0000 0.54940  0.84730  0.23720  Biso   1.000  H
  C257     1.0000 0.56640  0.69500  0.08340  Biso   1.000  C
  H271     1.0000 0.57800  0.62400  0.06110  Biso   1.000  H
  C258     1.0000 0.54860  0.77580  0.04190  Biso   1.000  C
  H272     1.0000 0.54880  0.75750  0.99110  Biso   1.000  H
  H273     1.0000 0.77660  0.47160  0.55810  Biso   1.000  H
  H274     1.0000 0.87410  0.53160  0.39240  Biso   1.000  H
  H275     1.0000 0.82870  0.53560  0.37210  Biso   1.000  H
  H276     1.0000 0.81670  0.47200  0.58610  Biso   1.000  H
  H277     1.0000 0.86550  0.48000  0.60000  Biso   1.000  H
  O36      1.0000 0.77998  0.61210  0.33620  Biso   1.000  O
  H278     1.0000 0.76520  0.58890  0.31510  Biso   1.000  H
  C259     1.0000 0.78490  0.76140  0.32340  Biso   1.000  C
  H279     1.0000 0.79350  0.80600  0.36700  Biso   1.000  H
  H280     1.0000 0.76740  0.81300  0.31480  Biso   1.000  H
  C260     1.0000 0.80320  0.78400  0.25940  Biso   1.000  C
  H281     1.0000 0.80670  0.89070  0.25290  Biso   1.000  H
  H282     1.0000 0.79450  0.74410  0.21580  Biso   1.000  H
  H283     1.0000 0.82060  0.73250  0.26760  Biso   1.000  H
  O37      1.0000 0.90935  0.49910  0.69300  Biso   1.000  O
  N36      1.0000 0.96757  0.13040  0.56390  Biso   1.000  N
  N37      1.0000 0.90496  0.29570  0.76230  Biso   1.000  N
  H284     1.0000 0.90880  0.20020  0.76460  Biso   1.000  H
  C261     1.0000 0.94540  0.07230  0.58790  Biso   1.000  C
  H285     1.0000 0.94050  0.97600  0.57130  Biso   1.000  H
  C262     1.0000 0.92790  0.14600  0.63820  Biso   1.000  C
  H286     1.0000 0.91290  0.09380  0.65850  Biso   1.000  H
  C263     1.0000 0.93254  0.28440  0.65670  Biso   1.000  C
  C264     1.0000 0.95250  0.36370  0.61920  Biso   1.000  C
  H287     1.0000 0.95440  0.46830  0.62450  Biso   1.000  H
  C265     1.0000 0.97000  0.27980  0.57220  Biso   1.000  C
  H288     1.0000 0.98380  0.33060  0.54590  Biso   1.000  H
  C266     1.0000 0.91464  0.36850  0.70500  Biso   1.000  C
  C267     1.0000 0.88913  0.35460  0.82040  Biso   1.000  C
  C268     1.0000 0.89555  0.30530  0.89030  Biso   1.000  C
  H289     1.0000 0.91040  0.23910  0.89740  Biso   1.000  H
  C269     1.0000 0.88059  0.35170  0.94820  Biso   1.000  C
  H290     1.0000 0.88480  0.31610  0.99540  Biso   1.000  H
  C270     1.0000 0.85920  0.45060  0.93870  Biso   1.000  C
  C271     1.0000 0.85304  0.50140  0.86910  Biso   1.000  C
  H291     1.0000 0.83860  0.57030  0.86200  Biso   1.000  H
  C272     1.0000 0.86803  0.45110  0.81010  Biso   1.000  C
  H292     1.0000 0.86360  0.48390  0.76250  Biso   1.000  H
  C273     1.0000 0.80092  0.39520  0.96050  Biso   1.000  C
  H293     1.0000 0.81040  0.32220  0.93320  Biso   1.000  H
  C274     1.0000 0.77293  0.39560  0.96050  Biso   1.000  C
  H294     1.0000 0.76330  0.32330  0.93300  Biso   1.000  H
  O38      1.0000 0.71999  0.47810  0.89540  Biso   1.000  O
  N38      1.0000 0.72951  0.51100  0.01410  Biso   1.000  N
  C275     1.0000 0.71240  0.49420  0.95870  Biso   1.000  C
  C276     1.0000 0.63790  0.48000  0.93320  Biso   1.000  C
  C277     1.0000 0.66410  0.47960  0.92000  Biso   1.000  C
  C278     1.0000 0.68230  0.49620  0.97630  Biso   1.000  C
  C279     1.0000 0.67160  0.51410  0.04480  Biso   1.000  C
  C280     1.0000 0.64220  0.51100  0.05230  Biso   1.000  C
  O39      1.0000 0.73812  0.02930  0.78950  Biso   1.000  O
  C281     1.0000 0.72550  0.16310  0.81020  Biso   1.000  C
  H295     1.0000 0.73950  0.24090  0.81810  Biso   1.000  H
  H296     1.0000 0.71540  0.14850  0.85610  Biso   1.000  H
  C282     1.0000 0.70640  0.21000  0.75200  Biso   1.000  C
  H297     1.0000 0.69760  0.30400  0.76600  Biso   1.000  H
  H298     1.0000 0.69250  0.13360  0.74490  Biso   1.000  H
  H299     1.0000 0.71660  0.22490  0.70680  Biso   1.000  H
  C283     1.0000 0.96850  0.10180  0.64070  Biso   1.000  C
  H300     1.0000 0.98130  0.03280  0.65960  Biso   1.000  H
  C284     1.0000 0.95080  0.17450  0.68680  Biso   1.000  C
  H301     1.0000 0.95060  0.15270  0.73720  Biso   1.000  H
  C285     1.0000 0.93360  0.30500  0.58340  Biso   1.000  C
  H302     1.0000 0.92200  0.37600  0.56110  Biso   1.000  H
  C286     1.0000 0.95140  0.22420  0.54190  Biso   1.000  C
  H303     1.0000 0.95120  0.24250  0.49110  Biso   1.000  H
  H304     1.0000 0.72340  0.52840  0.05810  Biso   1.000  H
  H305     1.0000 0.62590  0.46840  0.89240  Biso   1.000  H
  H306     1.0000 0.67130  0.46440  0.87210  Biso   1.000  H
  H307     1.0000 0.68330  0.52800  0.08610  Biso   1.000  H
  H308     1.0000 0.63450  0.52000  0.10000  Biso   1.000  H
  O40      1.0000 0.72002  0.38790  0.83620  Biso   1.000  O
  H309     1.0000 0.73480  0.41110  0.81510  Biso   1.000  H
  C287     1.0000 0.71510  0.23860  0.82340  Biso   1.000  C
  H310     1.0000 0.70650  0.19400  0.86700  Biso   1.000  H
  H311     1.0000 0.73260  0.18700  0.81480  Biso   1.000  H
  C288     1.0000 0.69680  0.21600  0.75940  Biso   1.000  C
  H312     1.0000 0.69330  0.10930  0.75290  Biso   1.000  H
  H313     1.0000 0.70550  0.25590  0.71580  Biso   1.000  H
  H314     1.0000 0.67940  0.26750  0.76760  Biso   1.000  H
  O41      1.0000 0.90935  0.50090  0.30700  Biso   1.000  O
  N39      1.0000 0.96757  0.86960  0.43610  Biso   1.000  N
  N40      1.0000 0.90496  0.70430  0.23770  Biso   1.000  N
  H315     1.0000 0.90880  0.79980  0.23540  Biso   1.000  H
  C289     1.0000 0.94540  0.92770  0.41210  Biso   1.000  C
  H316     1.0000 0.94050  0.02400  0.42870  Biso   1.000  H
  C290     1.0000 0.92790  0.85400  0.36180  Biso   1.000  C
  H317     1.0000 0.91290  0.90620  0.34150  Biso   1.000  H
  C291     1.0000 0.93254  0.71560  0.34330  Biso   1.000  C
  C292     1.0000 0.95250  0.63630  0.38080  Biso   1.000  C
  H318     1.0000 0.95440  0.53170  0.37550  Biso   1.000  H
  C293     1.0000 0.97000  0.72020  0.42780  Biso   1.000  C
  H319     1.0000 0.98380  0.66940  0.45410  Biso   1.000  H
  C294     1.0000 0.91464  0.63150  0.29500  Biso   1.000  C
  C295     1.0000 0.88913  0.64540  0.17960  Biso   1.000  C
  C296     1.0000 0.89555  0.69470  0.10970  Biso   1.000  C
  H320     1.0000 0.91040  0.76090  0.10260  Biso   1.000  H
  C297     1.0000 0.88059  0.64830  0.05180  Biso   1.000  C
  H321     1.0000 0.88480  0.68390  0.00460  Biso   1.000  H
  C298     1.0000 0.85920  0.54940  0.06130  Biso   1.000  C
  C299     1.0000 0.85304  0.49860  0.13090  Biso   1.000  C
  H322     1.0000 0.83860  0.42970  0.13800  Biso   1.000  H
  C300     1.0000 0.86803  0.54890  0.18990  Biso   1.000  C
  H323     1.0000 0.86360  0.51610  0.23750  Biso   1.000  H
  C301     1.0000 0.80092  0.60480  0.03950  Biso   1.000  C
  H324     1.0000 0.81040  0.67780  0.06680  Biso   1.000  H
  C302     1.0000 0.77293  0.60440  0.03950  Biso   1.000  C
  H325     1.0000 0.76330  0.67670  0.06700  Biso   1.000  H
  O42      1.0000 0.71999  0.52190  0.10460  Biso   1.000  O
  N41      1.0000 0.72951  0.48900  0.98590  Biso   1.000  N
  C303     1.0000 0.71240  0.50580  0.04130  Biso   1.000  C
  C304     1.0000 0.63790  0.52000  0.06680  Biso   1.000  C
  C305     1.0000 0.66410  0.52040  0.08000  Biso   1.000  C
  C306     1.0000 0.68230  0.50380  0.02370  Biso   1.000  C
  C307     1.0000 0.67160  0.48590  0.95520  Biso   1.000  C
  C308     1.0000 0.64220  0.48900  0.94770  Biso   1.000  C
  O43      1.0000 0.73812  0.97070  0.21050  Biso   1.000  O
  C309     1.0000 0.72550  0.83690  0.18980  Biso   1.000  C
  H326     1.0000 0.73950  0.75910  0.18190  Biso   1.000  H
  H327     1.0000 0.71540  0.85150  0.14390  Biso   1.000  H
  C310     1.0000 0.70640  0.79000  0.24800  Biso   1.000  C
  H328     1.0000 0.69760  0.69600  0.23400  Biso   1.000  H
  H329     1.0000 0.69250  0.86640  0.25510  Biso   1.000  H
  H330     1.0000 0.71660  0.77510  0.29320  Biso   1.000  H
  C311     1.0000 0.96850  0.89820  0.35930  Biso   1.000  C
  H331     1.0000 0.98130  0.96720  0.34040  Biso   1.000  H
  C312     1.0000 0.95080  0.82550  0.31320  Biso   1.000  C
  H332     1.0000 0.95060  0.84730  0.26280  Biso   1.000  H
  C313     1.0000 0.93360  0.69500  0.41660  Biso   1.000  C
  H333     1.0000 0.92200  0.62400  0.43890  Biso   1.000  H
  C314     1.0000 0.95140  0.77580  0.45810  Biso   1.000  C
  H334     1.0000 0.95120  0.75750  0.50890  Biso   1.000  H
  H335     1.0000 0.72340  0.47160  0.94190  Biso   1.000  H
  H336     1.0000 0.62590  0.53160  0.10760  Biso   1.000  H
  H337     1.0000 0.67130  0.53560  0.12790  Biso   1.000  H
  H338     1.0000 0.68330  0.47200  0.91390  Biso   1.000  H
  H339     1.0000 0.63450  0.48000  0.90000  Biso   1.000  H
  O44      1.0000 0.72002  0.61210  0.16380  Biso   1.000  O
  H340     1.0000 0.73480  0.58890  0.18490  Biso   1.000  H
  C315     1.0000 0.71510  0.76140  0.17660  Biso   1.000  C
  H341     1.0000 0.70650  0.80600  0.13300  Biso   1.000  H
  H342     1.0000 0.73260  0.81300  0.18520  Biso   1.000  H
  C316     1.0000 0.69680  0.78400  0.24060  Biso   1.000  C
  H343     1.0000 0.69330  0.89070  0.24710  Biso   1.000  H
  H344     1.0000 0.70550  0.74410  0.28420  Biso   1.000  H
  H345     1.0000 0.67940  0.73250  0.23240  Biso   1.000  H
  O45      1.0000 0.59065  0.49910  0.80700  Biso   1.000  O
  N42      1.0000 0.53243  0.13040  0.93610  Biso   1.000  N
  N43      1.0000 0.59504  0.29570  0.73770  Biso   1.000  N
  H346     1.0000 0.59120  0.20020  0.73540  Biso   1.000  H
  C317     1.0000 0.55460  0.07230  0.91210  Biso   1.000  C
  H347     1.0000 0.55950  0.97600  0.92870  Biso   1.000  H
  C318     1.0000 0.57210  0.14600  0.86180  Biso   1.000  C
  H348     1.0000 0.58710  0.09380  0.84150  Biso   1.000  H
  C319     1.0000 0.56746  0.28440  0.84330  Biso   1.000  C
  C320     1.0000 0.54750  0.36370  0.88080  Biso   1.000  C
  H349     1.0000 0.54560  0.46830  0.87550  Biso   1.000  H
  C321     1.0000 0.53000  0.27980  0.92780  Biso   1.000  C
  H350     1.0000 0.51620  0.33060  0.95410  Biso   1.000  H
  C322     1.0000 0.58536  0.36850  0.79500  Biso   1.000  C
  C323     1.0000 0.61087  0.35460  0.67960  Biso   1.000  C
  C324     1.0000 0.60445  0.30530  0.60970  Biso   1.000  C
  H351     1.0000 0.58960  0.23910  0.60260  Biso   1.000  H
  C325     1.0000 0.61941  0.35170  0.55180  Biso   1.000  C
  H352     1.0000 0.61520  0.31610  0.50460  Biso   1.000  H
  C326     1.0000 0.64080  0.45060  0.56130  Biso   1.000  C
  C327     1.0000 0.64696  0.50140  0.63090  Biso   1.000  C
  H353     1.0000 0.66140  0.57030  0.63800  Biso   1.000  H
  C328     1.0000 0.63197  0.45110  0.68990  Biso   1.000  C
  H354     1.0000 0.63640  0.48390  0.73750  Biso   1.000  H
  C329     1.0000 0.69908  0.39520  0.53950  Biso   1.000  C
  H355     1.0000 0.68960  0.32220  0.56680  Biso   1.000  H
  C330     1.0000 0.72707  0.39560  0.53950  Biso   1.000  C
  H356     1.0000 0.73670  0.32330  0.56700  Biso   1.000  H
  O46      1.0000 0.78001  0.47810  0.60460  Biso   1.000  O
  N44      1.0000 0.77049  0.51100  0.48590  Biso   1.000  N
  C331     1.0000 0.78760  0.49420  0.54130  Biso   1.000  C
  C332     1.0000 0.86210  0.48000  0.56680  Biso   1.000  C
  C333     1.0000 0.83590  0.47960  0.58000  Biso   1.000  C
  C334     1.0000 0.81770  0.49620  0.52370  Biso   1.000  C
  C335     1.0000 0.82840  0.51410  0.45520  Biso   1.000  C
  C336     1.0000 0.85780  0.51100  0.44770  Biso   1.000  C
  O47      1.0000 0.76188  0.02930  0.71050  Biso   1.000  O
  C337     1.0000 0.77450  0.16310  0.68980  Biso   1.000  C
  H357     1.0000 0.76050  0.24090  0.68190  Biso   1.000  H
  H358     1.0000 0.78460  0.14850  0.64390  Biso   1.000  H
  C338     1.0000 0.79360  0.21000  0.74800  Biso   1.000  C
  H359     1.0000 0.80240  0.30400  0.73400  Biso   1.000  H
  H360     1.0000 0.80750  0.13360  0.75510  Biso   1.000  H
  H361     1.0000 0.78340  0.22490  0.79320  Biso   1.000  H
  C339     1.0000 0.53150  0.10180  0.85930  Biso   1.000  C
  H362     1.0000 0.51870  0.03280  0.84040  Biso   1.000  H
  C340     1.0000 0.54920  0.17450  0.81320  Biso   1.000  C
  H363     1.0000 0.54940  0.15270  0.76280  Biso   1.000  H
  C341     1.0000 0.56640  0.30500  0.91660  Biso   1.000  C
  H364     1.0000 0.57800  0.37600  0.93890  Biso   1.000  H
  C342     1.0000 0.54860  0.22420  0.95810  Biso   1.000  C
  H365     1.0000 0.54880  0.24250  0.00890  Biso   1.000  H
  H366     1.0000 0.77660  0.52840  0.44190  Biso   1.000  H
  H367     1.0000 0.87410  0.46840  0.60760  Biso   1.000  H
  H368     1.0000 0.82870  0.46440  0.62790  Biso   1.000  H
  H369     1.0000 0.81670  0.52800  0.41390  Biso   1.000  H
  H370     1.0000 0.86550  0.52000  0.40000  Biso   1.000  H
  O48      1.0000 0.77998  0.38790  0.66380  Biso   1.000  O
  H371     1.0000 0.76520  0.41110  0.68490  Biso   1.000  H
  C343     1.0000 0.78490  0.23860  0.67660  Biso   1.000  C
  H372     1.0000 0.79350  0.19400  0.63300  Biso   1.000  H
  H373     1.0000 0.76740  0.18700  0.68520  Biso   1.000  H
  C344     1.0000 0.80320  0.21600  0.74060  Biso   1.000  C
  H374     1.0000 0.80670  0.10930  0.74710  Biso   1.000  H
  H375     1.0000 0.79450  0.25590  0.78420  Biso   1.000  H
  H376     1.0000 0.82060  0.26750  0.73240  Biso   1.000  H
  O49      1.0000 0.40935  0.49910  0.80700  Biso   1.000  O
  N45      1.0000 0.46757  0.13040  0.93610  Biso   1.000  N
  N46      1.0000 0.40496  0.29570  0.73770  Biso   1.000  N
  H377     1.0000 0.40880  0.20020  0.73540  Biso   1.000  H
  C345     1.0000 0.44540  0.07230  0.91210  Biso   1.000  C
  H378     1.0000 0.44050  0.97600  0.92870  Biso   1.000  H
  C346     1.0000 0.42790  0.14600  0.86180  Biso   1.000  C
  H379     1.0000 0.41290  0.09380  0.84150  Biso   1.000  H
  C347     1.0000 0.43254  0.28440  0.84330  Biso   1.000  C
  C348     1.0000 0.45250  0.36370  0.88080  Biso   1.000  C
  H380     1.0000 0.45440  0.46830  0.87550  Biso   1.000  H
  C349     1.0000 0.47000  0.27980  0.92780  Biso   1.000  C
  H381     1.0000 0.48380  0.33060  0.95410  Biso   1.000  H
  C350     1.0000 0.41464  0.36850  0.79500  Biso   1.000  C
  C351     1.0000 0.38913  0.35460  0.67960  Biso   1.000  C
  C352     1.0000 0.39555  0.30530  0.60970  Biso   1.000  C
  H382     1.0000 0.41040  0.23910  0.60260  Biso   1.000  H
  C353     1.0000 0.38059  0.35170  0.55180  Biso   1.000  C
  H383     1.0000 0.38480  0.31610  0.50460  Biso   1.000  H
  C354     1.0000 0.35920  0.45060  0.56130  Biso   1.000  C
  C355     1.0000 0.35304  0.50140  0.63090  Biso   1.000  C
  H384     1.0000 0.33860  0.57030  0.63800  Biso   1.000  H
  C356     1.0000 0.36803  0.45110  0.68990  Biso   1.000  C
  H385     1.0000 0.36360  0.48390  0.73750  Biso   1.000  H
  C357     1.0000 0.30092  0.39520  0.53950  Biso   1.000  C
  H386     1.0000 0.31040  0.32220  0.56680  Biso   1.000  H
  C358     1.0000 0.27293  0.39560  0.53950  Biso   1.000  C
  H387     1.0000 0.26330  0.32330  0.56700  Biso   1.000  H
  O50      1.0000 0.21999  0.47810  0.60460  Biso   1.000  O
  N47      1.0000 0.22951  0.51100  0.48590  Biso   1.000  N
  C359     1.0000 0.21240  0.49420  0.54130  Biso   1.000  C
  C360     1.0000 0.13790  0.48000  0.56680  Biso   1.000  C
  C361     1.0000 0.16410  0.47960  0.58000  Biso   1.000  C
  C362     1.0000 0.18230  0.49620  0.52370  Biso   1.000  C
  C363     1.0000 0.17160  0.51410  0.45520  Biso   1.000  C
  C364     1.0000 0.14220  0.51100  0.44770  Biso   1.000  C
  O51      1.0000 0.23812  0.02930  0.71050  Biso   1.000  O
  C365     1.0000 0.22550  0.16310  0.68980  Biso   1.000  C
  H388     1.0000 0.23950  0.24090  0.68190  Biso   1.000  H
  H389     1.0000 0.21540  0.14850  0.64390  Biso   1.000  H
  C366     1.0000 0.20640  0.21000  0.74800  Biso   1.000  C
  H390     1.0000 0.19760  0.30400  0.73400  Biso   1.000  H
  H391     1.0000 0.19250  0.13360  0.75510  Biso   1.000  H
  H392     1.0000 0.21660  0.22490  0.79320  Biso   1.000  H
  C367     1.0000 0.46850  0.10180  0.85930  Biso   1.000  C
  H393     1.0000 0.48130  0.03280  0.84040  Biso   1.000  H
  C368     1.0000 0.45080  0.17450  0.81320  Biso   1.000  C
  H394     1.0000 0.45060  0.15270  0.76280  Biso   1.000  H
  C369     1.0000 0.43360  0.30500  0.91660  Biso   1.000  C
  H395     1.0000 0.42200  0.37600  0.93890  Biso   1.000  H
  C370     1.0000 0.45140  0.22420  0.95810  Biso   1.000  C
  H396     1.0000 0.45120  0.24250  0.00890  Biso   1.000  H
  H397     1.0000 0.22340  0.52840  0.44190  Biso   1.000  H
  H398     1.0000 0.12590  0.46840  0.60760  Biso   1.000  H
  H399     1.0000 0.17130  0.46440  0.62790  Biso   1.000  H
  H400     1.0000 0.18330  0.52800  0.41390  Biso   1.000  H
  H401     1.0000 0.13450  0.52000  0.40000  Biso   1.000  H
  O52      1.0000 0.22002  0.38790  0.66380  Biso   1.000  O
  H402     1.0000 0.23480  0.41110  0.68490  Biso   1.000  H
  C371     1.0000 0.21510  0.23860  0.67660  Biso   1.000  C
  H403     1.0000 0.20650  0.19400  0.63300  Biso   1.000  H
  H404     1.0000 0.23260  0.18700  0.68520  Biso   1.000  H
  C372     1.0000 0.19680  0.21600  0.74060  Biso   1.000  C
  H405     1.0000 0.19330  0.10930  0.74710  Biso   1.000  H
  H406     1.0000 0.20550  0.25590  0.78420  Biso   1.000  H
  H407     1.0000 0.17940  0.26750  0.73240  Biso   1.000  H
  O53      1.0000 0.09065  0.50090  0.30700  Biso   1.000  O
  N48      1.0000 0.03243  0.86960  0.43610  Biso   1.000  N
  N49      1.0000 0.09504  0.70430  0.23770  Biso   1.000  N
  H408     1.0000 0.09120  0.79980  0.23540  Biso   1.000  H
  C373     1.0000 0.05460  0.92770  0.41210  Biso   1.000  C
  H409     1.0000 0.05950  0.02400  0.42870  Biso   1.000  H
  C374     1.0000 0.07210  0.85400  0.36180  Biso   1.000  C
  H410     1.0000 0.08710  0.90620  0.34150  Biso   1.000  H
  C375     1.0000 0.06746  0.71560  0.34330  Biso   1.000  C
  C376     1.0000 0.04750  0.63630  0.38080  Biso   1.000  C
  H411     1.0000 0.04560  0.53170  0.37550  Biso   1.000  H
  C377     1.0000 0.03000  0.72020  0.42780  Biso   1.000  C
  H412     1.0000 0.01620  0.66940  0.45410  Biso   1.000  H
  C378     1.0000 0.08536  0.63150  0.29500  Biso   1.000  C
  C379     1.0000 0.11087  0.64540  0.17960  Biso   1.000  C
  C380     1.0000 0.10445  0.69470  0.10970  Biso   1.000  C
  H413     1.0000 0.08960  0.76090  0.10260  Biso   1.000  H
  C381     1.0000 0.11941  0.64830  0.05180  Biso   1.000  C
  H414     1.0000 0.11520  0.68390  0.00460  Biso   1.000  H
  C382     1.0000 0.14080  0.54940  0.06130  Biso   1.000  C
  C383     1.0000 0.14696  0.49860  0.13090  Biso   1.000  C
  H415     1.0000 0.16140  0.42970  0.13800  Biso   1.000  H
  C384     1.0000 0.13197  0.54890  0.18990  Biso   1.000  C
  H416     1.0000 0.13640  0.51610  0.23750  Biso   1.000  H
  C385     1.0000 0.19908  0.60480  0.03950  Biso   1.000  C
  H417     1.0000 0.18960  0.67780  0.06680  Biso   1.000  H
  C386     1.0000 0.22707  0.60440  0.03950  Biso   1.000  C
  H418     1.0000 0.23670  0.67670  0.06700  Biso   1.000  H
  O54      1.0000 0.28001  0.52190  0.10460  Biso   1.000  O
  N50      1.0000 0.27049  0.48900  0.98590  Biso   1.000  N
  C387     1.0000 0.28760  0.50580  0.04130  Biso   1.000  C
  C388     1.0000 0.36210  0.52000  0.06680  Biso   1.000  C
  C389     1.0000 0.33590  0.52040  0.08000  Biso   1.000  C
  C390     1.0000 0.31770  0.50380  0.02370  Biso   1.000  C
  C391     1.0000 0.32840  0.48590  0.95520  Biso   1.000  C
  C392     1.0000 0.35780  0.48900  0.94770  Biso   1.000  C
  O55      1.0000 0.26188  0.97070  0.21050  Biso   1.000  O
  C393     1.0000 0.27450  0.83690  0.18980  Biso   1.000  C
  H419     1.0000 0.26050  0.75910  0.18190  Biso   1.000  H
  H420     1.0000 0.28460  0.85150  0.14390  Biso   1.000  H
  C394     1.0000 0.29360  0.79000  0.24800  Biso   1.000  C
  H421     1.0000 0.30240  0.69600  0.23400  Biso   1.000  H
  H422     1.0000 0.30750  0.86640  0.25510  Biso   1.000  H
  H423     1.0000 0.28340  0.77510  0.29320  Biso   1.000  H
  C395     1.0000 0.03150  0.89820  0.35930  Biso   1.000  C
  H424     1.0000 0.01870  0.96720  0.34040  Biso   1.000  H
  C396     1.0000 0.04920  0.82550  0.31320  Biso   1.000  C
  H425     1.0000 0.04940  0.84730  0.26280  Biso   1.000  H
  C397     1.0000 0.06640  0.69500  0.41660  Biso   1.000  C
  H426     1.0000 0.07800  0.62400  0.43890  Biso   1.000  H
  C398     1.0000 0.04860  0.77580  0.45810  Biso   1.000  C
  H427     1.0000 0.04880  0.75750  0.50890  Biso   1.000  H
  H428     1.0000 0.27660  0.47160  0.94190  Biso   1.000  H
  H429     1.0000 0.37410  0.53160  0.10760  Biso   1.000  H
  H430     1.0000 0.32870  0.53560  0.12790  Biso   1.000  H
  H431     1.0000 0.31670  0.47200  0.91390  Biso   1.000  H
  H432     1.0000 0.36550  0.48000  0.90000  Biso   1.000  H
  O56      1.0000 0.27998  0.61210  0.16380  Biso   1.000  O
  H433     1.0000 0.26520  0.58890  0.18490  Biso   1.000  H
  C399     1.0000 0.28490  0.76140  0.17660  Biso   1.000  C
  H434     1.0000 0.29350  0.80600  0.13300  Biso   1.000  H
  H435     1.0000 0.26740  0.81300  0.18520  Biso   1.000  H
  C400     1.0000 0.30320  0.78400  0.24060  Biso   1.000  C
  H436     1.0000 0.30670  0.89070  0.24710  Biso   1.000  H
  H437     1.0000 0.29450  0.74410  0.28420  Biso   1.000  H
  H438     1.0000 0.32060  0.73250  0.23240  Biso   1.000  H
  O57      1.0000 0.09065  0.49910  0.69300  Biso   1.000  O
  N51      1.0000 0.03243  0.13040  0.56390  Biso   1.000  N
  N52      1.0000 0.09504  0.29570  0.76230  Biso   1.000  N
  H439     1.0000 0.09120  0.20020  0.76460  Biso   1.000  H
  C401     1.0000 0.05460  0.07230  0.58790  Biso   1.000  C
  H440     1.0000 0.05950  0.97600  0.57130  Biso   1.000  H
  C402     1.0000 0.07210  0.14600  0.63820  Biso   1.000  C
  H441     1.0000 0.08710  0.09380  0.65850  Biso   1.000  H
  C403     1.0000 0.06746  0.28440  0.65670  Biso   1.000  C
  C404     1.0000 0.04750  0.36370  0.61920  Biso   1.000  C
  H442     1.0000 0.04560  0.46830  0.62450  Biso   1.000  H
  C405     1.0000 0.03000  0.27980  0.57220  Biso   1.000  C
  H443     1.0000 0.01620  0.33060  0.54590  Biso   1.000  H
  C406     1.0000 0.08536  0.36850  0.70500  Biso   1.000  C
  C407     1.0000 0.11087  0.35460  0.82040  Biso   1.000  C
  C408     1.0000 0.10445  0.30530  0.89030  Biso   1.000  C
  H444     1.0000 0.08960  0.23910  0.89740  Biso   1.000  H
  C409     1.0000 0.11941  0.35170  0.94820  Biso   1.000  C
  H445     1.0000 0.11520  0.31610  0.99540  Biso   1.000  H
  C410     1.0000 0.14080  0.45060  0.93870  Biso   1.000  C
  C411     1.0000 0.14696  0.50140  0.86910  Biso   1.000  C
  H446     1.0000 0.16140  0.57030  0.86200  Biso   1.000  H
  C412     1.0000 0.13197  0.45110  0.81010  Biso   1.000  C
  H447     1.0000 0.13640  0.48390  0.76250  Biso   1.000  H
  C413     1.0000 0.19908  0.39520  0.96050  Biso   1.000  C
  H448     1.0000 0.18960  0.32220  0.93320  Biso   1.000  H
  C414     1.0000 0.22707  0.39560  0.96050  Biso   1.000  C
  H449     1.0000 0.23670  0.32330  0.93300  Biso   1.000  H
  O58      1.0000 0.28001  0.47810  0.89540  Biso   1.000  O
  N53      1.0000 0.27049  0.51100  0.01410  Biso   1.000  N
  C415     1.0000 0.28760  0.49420  0.95870  Biso   1.000  C
  C416     1.0000 0.36210  0.48000  0.93320  Biso   1.000  C
  C417     1.0000 0.33590  0.47960  0.92000  Biso   1.000  C
  C418     1.0000 0.31770  0.49620  0.97630  Biso   1.000  C
  C419     1.0000 0.32840  0.51410  0.04480  Biso   1.000  C
  C420     1.0000 0.35780  0.51100  0.05230  Biso   1.000  C
  O59      1.0000 0.26188  0.02930  0.78950  Biso   1.000  O
  C421     1.0000 0.27450  0.16310  0.81020  Biso   1.000  C
  H450     1.0000 0.26050  0.24090  0.81810  Biso   1.000  H
  H451     1.0000 0.28460  0.14850  0.85610  Biso   1.000  H
  C422     1.0000 0.29360  0.21000  0.75200  Biso   1.000  C
  H452     1.0000 0.30240  0.30400  0.76600  Biso   1.000  H
  H453     1.0000 0.30750  0.13360  0.74490  Biso   1.000  H
  H454     1.0000 0.28340  0.22490  0.70680  Biso   1.000  H
  C423     1.0000 0.03150  0.10180  0.64070  Biso   1.000  C
  H455     1.0000 0.01870  0.03280  0.65960  Biso   1.000  H
  C424     1.0000 0.04920  0.17450  0.68680  Biso   1.000  C
  H456     1.0000 0.04940  0.15270  0.73720  Biso   1.000  H
  C425     1.0000 0.06640  0.30500  0.58340  Biso   1.000  C
  H457     1.0000 0.07800  0.37600  0.56110  Biso   1.000  H
  C426     1.0000 0.04860  0.22420  0.54190  Biso   1.000  C
  H458     1.0000 0.04880  0.24250  0.49110  Biso   1.000  H
  H459     1.0000 0.27660  0.52840  0.05810  Biso   1.000  H
  H460     1.0000 0.37410  0.46840  0.89240  Biso   1.000  H
  H461     1.0000 0.32870  0.46440  0.87210  Biso   1.000  H
  H462     1.0000 0.31670  0.52800  0.08610  Biso   1.000  H
  H463     1.0000 0.36550  0.52000  0.10000  Biso   1.000  H
  O60      1.0000 0.27998  0.38790  0.83620  Biso   1.000  O
  H464     1.0000 0.26520  0.41110  0.81510  Biso   1.000  H
  C427     1.0000 0.28490  0.23860  0.82340  Biso   1.000  C
  H465     1.0000 0.29350  0.19400  0.86700  Biso   1.000  H
  H466     1.0000 0.26740  0.18700  0.81480  Biso   1.000  H
  C428     1.0000 0.30320  0.21600  0.75940  Biso   1.000  C
  H467     1.0000 0.30670  0.10930  0.75290  Biso   1.000  H
  H468     1.0000 0.29450  0.25590  0.71580  Biso   1.000  H
  H469     1.0000 0.32060  0.26750  0.76760  Biso   1.000  H
  O61      1.0000 0.40935  0.50090  0.19300  Biso   1.000  O
  N54      1.0000 0.46757  0.86960  0.06390  Biso   1.000  N
  N55      1.0000 0.40496  0.70430  0.26230  Biso   1.000  N
  H470     1.0000 0.40880  0.79980  0.26460  Biso   1.000  H
  C429     1.0000 0.44540  0.92770  0.08790  Biso   1.000  C
  H471     1.0000 0.44050  0.02400  0.07130  Biso   1.000  H
  C430     1.0000 0.42790  0.85400  0.13820  Biso   1.000  C
  H472     1.0000 0.41290  0.90620  0.15850  Biso   1.000  H
  C431     1.0000 0.43254  0.71560  0.15670  Biso   1.000  C
  C432     1.0000 0.45250  0.63630  0.11920  Biso   1.000  C
  H473     1.0000 0.45440  0.53170  0.12450  Biso   1.000  H
  C433     1.0000 0.47000  0.72020  0.07220  Biso   1.000  C
  H474     1.0000 0.48380  0.66940  0.04590  Biso   1.000  H
  C434     1.0000 0.41464  0.63150  0.20500  Biso   1.000  C
  C435     1.0000 0.38913  0.64540  0.32040  Biso   1.000  C
  C436     1.0000 0.39555  0.69470  0.39030  Biso   1.000  C
  H475     1.0000 0.41040  0.76090  0.39740  Biso   1.000  H
  C437     1.0000 0.38059  0.64830  0.44820  Biso   1.000  C
  H476     1.0000 0.38480  0.68390  0.49540  Biso   1.000  H
  C438     1.0000 0.35920  0.54940  0.43870  Biso   1.000  C
  C439     1.0000 0.35304  0.49860  0.36910  Biso   1.000  C
  H477     1.0000 0.33860  0.42970  0.36200  Biso   1.000  H
  C440     1.0000 0.36803  0.54890  0.31010  Biso   1.000  C
  H478     1.0000 0.36360  0.51610  0.26250  Biso   1.000  H
  C441     1.0000 0.30092  0.60480  0.46050  Biso   1.000  C
  H479     1.0000 0.31040  0.67780  0.43320  Biso   1.000  H
  C442     1.0000 0.27293  0.60440  0.46050  Biso   1.000  C
  H480     1.0000 0.26330  0.67670  0.43300  Biso   1.000  H
  O62      1.0000 0.21999  0.52190  0.39540  Biso   1.000  O
  N56      1.0000 0.22951  0.48900  0.51410  Biso   1.000  N
  C443     1.0000 0.21240  0.50580  0.45870  Biso   1.000  C
  C444     1.0000 0.13790  0.52000  0.43320  Biso   1.000  C
  C445     1.0000 0.16410  0.52040  0.42000  Biso   1.000  C
  C446     1.0000 0.18230  0.50380  0.47630  Biso   1.000  C
  C447     1.0000 0.17160  0.48590  0.54480  Biso   1.000  C
  C448     1.0000 0.14220  0.48900  0.55230  Biso   1.000  C
  O63      1.0000 0.23812  0.97070  0.28950  Biso   1.000  O
  C449     1.0000 0.22550  0.83690  0.31020  Biso   1.000  C
  H481     1.0000 0.23950  0.75910  0.31810  Biso   1.000  H
  H482     1.0000 0.21540  0.85150  0.35610  Biso   1.000  H
  C450     1.0000 0.20640  0.79000  0.25200  Biso   1.000  C
  H483     1.0000 0.19760  0.69600  0.26600  Biso   1.000  H
  H484     1.0000 0.19250  0.86640  0.24490  Biso   1.000  H
  H485     1.0000 0.21660  0.77510  0.20680  Biso   1.000  H
  C451     1.0000 0.46850  0.89820  0.14070  Biso   1.000  C
  H486     1.0000 0.48130  0.96720  0.15960  Biso   1.000  H
  C452     1.0000 0.45080  0.82550  0.18680  Biso   1.000  C
  H487     1.0000 0.45060  0.84730  0.23720  Biso   1.000  H
  C453     1.0000 0.43360  0.69500  0.08340  Biso   1.000  C
  H488     1.0000 0.42200  0.62400  0.06110  Biso   1.000  H
  C454     1.0000 0.45140  0.77580  0.04190  Biso   1.000  C
  H489     1.0000 0.45120  0.75750  0.99110  Biso   1.000  H
  H490     1.0000 0.22340  0.47160  0.55810  Biso   1.000  H
  H491     1.0000 0.12590  0.53160  0.39240  Biso   1.000  H
  H492     1.0000 0.17130  0.53560  0.37210  Biso   1.000  H
  H493     1.0000 0.18330  0.47200  0.58610  Biso   1.000  H
  H494     1.0000 0.13450  0.48000  0.60000  Biso   1.000  H
  O64      1.0000 0.22002  0.61210  0.33620  Biso   1.000  O
  H495     1.0000 0.23480  0.58890  0.31510  Biso   1.000  H
  C455     1.0000 0.21510  0.76140  0.32340  Biso   1.000  C
  H496     1.0000 0.20650  0.80600  0.36700  Biso   1.000  H
  H497     1.0000 0.23260  0.81300  0.31480  Biso   1.000  H
  C456     1.0000 0.19680  0.78400  0.25940  Biso   1.000  C
  H498     1.0000 0.19330  0.89070  0.25290  Biso   1.000  H
  H499     1.0000 0.20550  0.74410  0.21580  Biso   1.000  H
  H500     1.0000 0.17940  0.73250  0.26760  Biso   1.000  H
  Cd3      1.0000 0.50000  0.00000  0.00000  Biso   1.000  Cd
  Cd4      1.0000 0.00000  0.00000  0.50000  Biso   1.000  Cd
  N57      1.0000 0.65577  0.50000  0.50000  Biso   1.000  N
  C457     1.0000 0.68451  0.50000  0.50000  Biso   1.000  C
  C458     1.0000 0.74135  0.50000  0.50000  Biso   1.000  C
  N58      1.0000 0.87400  0.50000  0.50000  Biso   1.000  N
  N59      1.0000 0.84423  0.50000  0.00000  Biso   1.000  N
  C459     1.0000 0.81549  0.50000  0.00000  Biso   1.000  C
  C460     1.0000 0.75865  0.50000  0.00000  Biso   1.000  C
  N60      1.0000 0.62600  0.50000  0.00000  Biso   1.000  N
  N61      1.0000 0.34423  0.50000  0.50000  Biso   1.000  N
  C461     1.0000 0.31549  0.50000  0.50000  Biso   1.000  C
  C462     1.0000 0.25865  0.50000  0.50000  Biso   1.000  C
  N62      1.0000 0.12600  0.50000  0.50000  Biso   1.000  N
  N63      1.0000 0.15577  0.50000  0.00000  Biso   1.000  N
  C463     1.0000 0.18451  0.50000  0.00000  Biso   1.000  C
  C464     1.0000 0.24135  0.50000  0.00000  Biso   1.000  C
  N64      1.0000 0.37400  0.50000  0.00000  Biso   1.000  N
  H501     1.0000 0.75000  0.04570  0.75000  Biso   1.000  H
  H502     1.0000 0.75000  0.95430  0.25000  Biso   1.000  H
  H503     1.0000 0.25000  0.95430  0.25000  Biso   1.000  H
  H504     1.0000 0.25000  0.04570  0.75000  Biso   1.000  H
