data_image0
_cell_length_a       21.9124
_cell_length_b       36.701
_cell_length_c       38.7102
_cell_angle_alpha    90
_cell_angle_beta     100.599
_cell_angle_gamma    90

_symmetry_space_group_name_H-M    "P 1"
_symmetry_int_tables_number       1

loop_
  _symmetry_equiv_pos_as_xyz
  'x, y, z'

loop_
  _atom_site_label
  _atom_site_occupancy
  _atom_site_fract_x
  _atom_site_fract_y
  _atom_site_fract_z
  _atom_site_thermal_displace_type
  _atom_site_B_iso_or_equiv
  _atom_site_type_symbol
  Zn1      1.0000 0.36950  0.03968  0.03160  Biso   1.000  Zn
  Zn2      1.0000 0.37437  0.08812  0.11523  Biso   1.000  Zn
  Zn3      1.0000 0.84229  0.58617  0.21153  Biso   1.000  Zn
  N1       1.0000 0.32980  0.75021  0.16977  Biso   1.000  N
  N2       1.0000 0.87630  0.20115  0.05644  Biso   1.000  N
  N3       1.0000 0.38630  0.03916  0.98074  Biso   1.000  N
  N4       1.0000 0.36770  0.93618  0.76101  Biso   1.000  N
  O1       1.0000 0.79180  0.64060  0.23010  Biso   1.000  O
  O2       1.0000 0.79680  0.48676  0.02735  Biso   1.000  O
  O3       1.0000 0.75540  0.59970  0.19456  Biso   1.000  O
  O4       1.0000 0.34120  0.03857  0.18788  Biso   1.000  O
  O5       1.0000 0.89760  0.49129  0.04908  Biso   1.000  O
  O6       1.0000 0.92336  0.61038  0.21186  Biso   1.000  O
  O7       1.0000 0.39030  0.03807  0.14426  Biso   1.000  O
  O8       1.0000 0.88700  0.61956  0.15558  Biso   1.000  O
  O9       1.0000 0.31038  0.06235  0.08314  Biso   1.000  O
  O10      1.0000 0.44746  0.06799  0.04830  Biso   1.000  O
  O11      1.0000 0.45986  0.08332  0.10437  Biso   1.000  O
  O12      1.0000 0.29644  0.07195  0.02585  Biso   1.000  O
  C1       1.0000 0.67820  0.67800  0.21810  Biso   1.000  C
  H1       1.0000 0.71370  0.68940  0.23020  Biso   1.000  H
  C2       1.0000 0.39260  0.06890  0.92680  Biso   1.000  C
  H2       1.0000 0.37830  0.08760  0.91110  Biso   1.000  H
  C3       1.0000 0.58040  0.64910  0.17870  Biso   1.000  C
  H3       1.0000 0.54910  0.63960  0.16160  Biso   1.000  H
  C4       1.0000 0.30540  0.81050  0.18940  Biso   1.000  C
  H4       1.0000 0.28300  0.79980  0.20490  Biso   1.000  H
  C5       1.0000 0.43400  0.02750  0.85664  Biso   1.000  C
  H5       1.0000 0.41480  0.03830  0.83570  Biso   1.000  H
  C6       1.0000 0.46310  0.04970  0.88670  Biso   1.000  C
  H6       1.0000 0.45970  0.07520  0.87990  Biso   1.000  H
  H7       1.0000 0.50690  0.04380  0.89240  Biso   1.000  H
  C7       1.0000 0.43490  0.04480  0.91970  Biso   1.000  C
  C8       1.0000 0.43610  0.98820  0.86035  Biso   1.000  C
  H8       1.0000 0.41180  0.98110  0.87780  Biso   1.000  H
  H9       1.0000 0.47870  0.98080  0.86890  Biso   1.000  H
  C9       1.0000 0.44780  0.96160  0.80320  Biso   1.000  C
  H10      1.0000 0.48980  0.96730  0.80900  Biso   1.000  H
  C10      1.0000 0.34190  0.92740  0.19500  Biso   1.000  C
  H11      1.0000 0.33170  0.91610  0.21460  Biso   1.000  H
  C11      1.0000 0.37400  0.84320  0.14630  Biso   1.000  C
  H12      1.0000 0.39950  0.85360  0.13230  Biso   1.000  H
  C12      1.0000 0.45200  0.01810  0.94290  Biso   1.000  C
  H13      1.0000 0.48110  0.00090  0.93890  Biso   1.000  H
  C13      1.0000 0.34630  0.96440  0.19490  Biso   1.000  C
  H14      1.0000 0.33920  0.97770  0.21420  Biso   1.000  H
  C14      1.0000 0.68400  0.64360  0.20435  Biso   1.000  C
  C15      1.0000 0.63680  0.63180  0.18390  Biso   1.000  C
  H15      1.0000 0.64030  0.61030  0.17170  Biso   1.000  H
  C16      1.0000 0.92310  0.26064  0.06960  Biso   1.000  C
  H16      1.0000 0.95950  0.24970  0.08100  Biso   1.000  H
  C17      1.0000 0.49520  0.72790  0.20450  Biso   1.000  C
  H17      1.0000 0.52740  0.73850  0.22030  Biso   1.000  H
  C18      1.0000 0.42530  0.94670  0.77120  Biso   1.000  C
  H18      1.0000 0.45260  0.94380  0.75560  Biso   1.000  H
  C19      1.0000 0.39840  0.69830  0.16260  Biso   1.000  C
  H19      1.0000 0.36520  0.68770  0.14750  Biso   1.000  H
  C20      1.0000 0.38940  0.73090  0.17780  Biso   1.000  C
  C21      1.0000 0.36550  0.80530  0.14560  Biso   1.000  C
  H20      1.0000 0.38250  0.79110  0.12980  Biso   1.000  H
  C22      1.0000 0.34510  0.86550  0.16751  Biso   1.000  C
  C23      1.0000 0.37060  0.06524  0.95880  Biso   1.000  C
  H21      1.0000 0.34310  0.08270  0.96420  Biso   1.000  H
  C24      1.0000 0.84790  0.47312  0.04004  Biso   1.000  C
  C25      1.0000 0.56700  0.67800  0.19583  Biso   1.000  C
  C26      1.0000 0.03720  0.64312  0.20788  Biso   1.000  C
  H22      1.0000 0.03330  0.63080  0.22830  Biso   1.000  H
  C27      1.0000 0.09160  0.66019  0.20605  Biso   1.000  C
  H23      1.0000 0.12450  0.65860  0.22500  Biso   1.000  H
  C28      1.0000 0.62250  0.69630  0.21460  Biso   1.000  C
  H24      1.0000 0.62030  0.71950  0.22400  Biso   1.000  H
  C29      1.0000 0.74690  0.62650  0.20990  Biso   1.000  C
  C30      1.0000 0.35280  0.95590  0.81660  Biso   1.000  C
  H25      1.0000 0.32510  0.95860  0.83190  Biso   1.000  H
  C31      1.0000 0.43890  0.74570  0.19810  Biso   1.000  C
  H26      1.0000 0.43530  0.76850  0.20810  Biso   1.000  H
  C32      1.0000 0.41150  0.96804  0.82607  Biso   1.000  C
  C33      1.0000 0.16290  0.72984  0.15489  Biso   1.000  C
  H27      1.0000 0.12620  0.73980  0.14270  Biso   1.000  H
  C34      1.0000 0.21470  0.68340  0.19220  Biso   1.000  C
  H28      1.0000 0.21410  0.66160  0.20440  Biso   1.000  H
  C35      1.0000 0.33340  0.93960  0.78490  Biso   1.000  C
  H29      1.0000 0.29320  0.93040  0.78010  Biso   1.000  H
  C36      1.0000 0.27100  0.70180  0.19170  Biso   1.000  C
  H30      1.0000 0.30720  0.69310  0.20560  Biso   1.000  H
  C37      1.0000 0.50620  0.69660  0.18967  Biso   1.000  C
  C38      1.0000 0.45250  0.68120  0.16840  Biso   1.000  C
  H31      1.0000 0.45560  0.65840  0.15820  Biso   1.000  H
  C39      1.0000 0.35210  0.90550  0.16709  Biso   1.000  C
  C40      1.0000 0.21720  0.74647  0.15300  Biso   1.000  C
  H32      1.0000 0.21740  0.76750  0.13970  Biso   1.000  H
  C41      1.0000 0.86730  0.31553  0.05112  Biso   1.000  C
  C42      1.0000 0.04840  0.68150  0.14912  Biso   1.000  C
  H33      1.0000 0.05100  0.69550  0.12940  Biso   1.000  H
  C43      1.0000 0.80150  0.41103  0.04363  Biso   1.000  C
  H34      1.0000 0.76280  0.42220  0.04090  Biso   1.000  H
  C44      1.0000 0.92030  0.29843  0.06740  Biso   1.000  C
  H35      1.0000 0.95480  0.31220  0.07720  Biso   1.000  H
  C45      1.0000 0.27420  0.73182  0.17133  Biso   1.000  C
  C46      1.0000 0.13760  0.11088  0.08512  Biso   1.000  C
  H36      1.0000 0.12040  0.11080  0.10540  Biso   1.000  H
  C47      1.0000 0.99420  0.66289  0.15037  Biso   1.000  C
  H37      1.0000 0.96190  0.66330  0.13110  Biso   1.000  H
  C48      1.0000 0.42720  0.01600  0.97223  Biso   1.000  C
  H38      1.0000 0.43990  0.99690  0.98760  Biso   1.000  H
  C49      1.0000 0.81800  0.29483  0.03686  Biso   1.000  C
  H39      1.0000 0.78150  0.30610  0.02610  Biso   1.000  H
  C50      1.0000 0.37080  0.92450  0.13951  Biso   1.000  C
  H40      1.0000 0.37980  0.91150  0.12040  Biso   1.000  H
  C51      1.0000 0.31060  0.84820  0.18860  Biso   1.000  C
  H41      1.0000 0.28990  0.86210  0.20290  Biso   1.000  H
  C52      1.0000 0.91620  0.37787  0.05180  Biso   1.000  C
  H42      1.0000 0.95540  0.36730  0.05460  Biso   1.000  H
  C53      1.0000 0.86370  0.35590  0.05009  Biso   1.000  C
  C54      1.0000 0.97140  0.19324  0.03340  Biso   1.000  C
  H43      1.0000 0.96030  0.21280  0.01830  Biso   1.000  H
  C55      1.0000 0.85270  0.43126  0.04486  Biso   1.000  C
  C56      1.0000 0.75490  0.13032  0.04542  Biso   1.000  C
  H44      1.0000 0.74500  0.10910  0.03260  Biso   1.000  H
  C57      1.0000 0.82290  0.18181  0.06058  Biso   1.000  C
  C58      1.0000 0.36120  0.98216  0.16639  Biso   1.000  C
  C59      1.0000 0.09930  0.68003  0.17626  Biso   1.000  C
  C60      1.0000 0.33200  0.78915  0.16820  Biso   1.000  C
  C61      1.0000 0.80690  0.14980  0.04144  Biso   1.000  C
  H45      1.0000 0.83150  0.14160  0.02590  Biso   1.000  H
  C62      1.0000 0.00490  0.13476  0.07804  Biso   1.000  C
  H46      1.0000 0.01510  0.11480  0.09280  Biso   1.000  H
  C63      1.0000 0.15990  0.69880  0.17417  Biso   1.000  C
  C64      1.0000 0.63700  0.12079  0.10284  Biso   1.000  C
  H47      1.0000 0.66200  0.12900  0.12340  Biso   1.000  H
  C65      1.0000 0.18360  0.10657  0.02490  Biso   1.000  C
  H48      1.0000 0.19750  0.10400  0.00370  Biso   1.000  H
  C66      1.0000 0.73300  0.17341  0.08739  Biso   1.000  C
  H49      1.0000 0.70860  0.18130  0.10320  Biso   1.000  H
  C67      1.0000 0.37630  0.96183  0.13978  Biso   1.000  C
  H50      1.0000 0.39060  0.97340  0.12140  Biso   1.000  H
  C68      1.0000 0.62130  0.10785  0.04100  Biso   1.000  C
  H51      1.0000 0.63500  0.10810  0.01960  Biso   1.000  H
  C69      1.0000 0.80620  0.37382  0.04633  Biso   1.000  C
  H52      1.0000 0.77040  0.36010  0.04570  Biso   1.000  H
  C70      1.0000 0.91010  0.41527  0.04927  Biso   1.000  C
  H53      1.0000 0.94530  0.42970  0.05060  Biso   1.000  H
  C71      1.0000 0.98760  0.64366  0.18015  Biso   1.000  C
  C72      1.0000 0.87400  0.23913  0.05532  Biso   1.000  C
  C73      1.0000 0.93290  0.18193  0.05560  Biso   1.000  C
  C74      1.0000 0.82090  0.25646  0.03805  Biso   1.000  C
  H54      1.0000 0.78700  0.24280  0.02720  Biso   1.000  H
  C75      1.0000 0.02690  0.17505  0.03390  Biso   1.000  C
  H55      1.0000 0.05270  0.18290  0.01890  Biso   1.000  H
  C76      1.0000 0.78480  0.19356  0.08338  Biso   1.000  C
  H56      1.0000 0.79410  0.21500  0.09600  Biso   1.000  H
  C77      1.0000 0.65800  0.12338  0.07103  Biso   1.000  C
  C78      1.0000 0.47810  0.07942  0.07566  Biso   1.000  C
  C79      1.0000 0.19480  0.09468  0.08659  Biso   1.000  C
  H57      1.0000 0.21710  0.08570  0.10760  Biso   1.000  H
  C80      1.0000 0.04580  0.14551  0.05584  Biso   1.000  C
  C81      1.0000 0.95100  0.15279  0.07849  Biso   1.000  C
  H58      1.0000 0.92580  0.14570  0.09420  Biso   1.000  H
  C82      1.0000 0.54260  0.09239  0.07465  Biso   1.000  C
  C83      1.0000 0.92930  0.62293  0.18250  Biso   1.000  C
  C84      1.0000 0.10420  0.12715  0.05541  Biso   1.000  C
  C85      1.0000 0.36510  0.02270  0.16604  Biso   1.000  C
  C86      1.0000 0.21820  0.09227  0.05525  Biso   1.000  C
  C87      1.0000 0.71690  0.14204  0.06850  Biso   1.000  C
  C88      1.0000 0.56430  0.09211  0.04338  Biso   1.000  C
  H59      1.0000 0.54070  0.08130  0.02360  Biso   1.000  H
  C89      1.0000 0.57980  0.10633  0.10414  Biso   1.000  C
  H60      1.0000 0.56580  0.10590  0.12540  Biso   1.000  H
  C90      1.0000 0.27990  0.07463  0.05480  Biso   1.000  C
  C91      1.0000 0.12900  0.12447  0.02553  Biso   1.000  C
  H61      1.0000 0.10800  0.13520  0.00500  Biso   1.000  H
  Zn4      1.0000 0.38560  0.07550  0.11820  Biso   1.000  Zn
  Zn5      1.0000 0.86950  0.53968  0.03160  Biso   1.000  Zn
  Zn6      1.0000 0.87437  0.58812  0.11523  Biso   1.000  Zn
  Zn7      1.0000 0.34229  0.08617  0.21153  Biso   1.000  Zn
  N5       1.0000 0.82980  0.25021  0.16977  Biso   1.000  N
  N6       1.0000 0.37630  0.70115  0.05644  Biso   1.000  N
  N7       1.0000 0.88630  0.53916  0.98074  Biso   1.000  N
  N8       1.0000 0.86770  0.43618  0.76101  Biso   1.000  N
  O13      1.0000 0.29180  0.14060  0.23010  Biso   1.000  O
  O14      1.0000 0.29680  0.98676  0.02735  Biso   1.000  O
  O15      1.0000 0.25540  0.09970  0.19456  Biso   1.000  O
  O16      1.0000 0.84120  0.53857  0.18788  Biso   1.000  O
  O17      1.0000 0.39760  0.99129  0.04908  Biso   1.000  O
  O18      1.0000 0.42336  0.11038  0.21186  Biso   1.000  O
  O19      1.0000 0.89030  0.53807  0.14426  Biso   1.000  O
  O20      1.0000 0.38700  0.11956  0.15558  Biso   1.000  O
  O21      1.0000 0.81038  0.56235  0.08314  Biso   1.000  O
  O22      1.0000 0.94746  0.56799  0.04830  Biso   1.000  O
  O23      1.0000 0.95986  0.58332  0.10437  Biso   1.000  O
  O24      1.0000 0.79644  0.57195  0.02585  Biso   1.000  O
  C92      1.0000 0.17820  0.17800  0.21810  Biso   1.000  C
  H62      1.0000 0.21370  0.18940  0.23020  Biso   1.000  H
  C93      1.0000 0.89260  0.56890  0.92680  Biso   1.000  C
  H63      1.0000 0.87830  0.58760  0.91110  Biso   1.000  H
  C94      1.0000 0.08040  0.14910  0.17870  Biso   1.000  C
  H64      1.0000 0.04910  0.13960  0.16160  Biso   1.000  H
  C95      1.0000 0.80540  0.31050  0.18940  Biso   1.000  C
  H65      1.0000 0.78300  0.29980  0.20490  Biso   1.000  H
  C96      1.0000 0.93400  0.52750  0.85664  Biso   1.000  C
  H66      1.0000 0.91480  0.53830  0.83570  Biso   1.000  H
  C97      1.0000 0.96310  0.54970  0.88670  Biso   1.000  C
  H67      1.0000 0.95970  0.57520  0.87990  Biso   1.000  H
  H68      1.0000 0.00690  0.54380  0.89240  Biso   1.000  H
  C98      1.0000 0.93490  0.54480  0.91970  Biso   1.000  C
  C99      1.0000 0.93610  0.48820  0.86035  Biso   1.000  C
  H69      1.0000 0.91180  0.48110  0.87780  Biso   1.000  H
  H70      1.0000 0.97870  0.48080  0.86890  Biso   1.000  H
  C100     1.0000 0.94780  0.46160  0.80320  Biso   1.000  C
  H71      1.0000 0.98980  0.46730  0.80900  Biso   1.000  H
  C101     1.0000 0.84190  0.42740  0.19500  Biso   1.000  C
  H72      1.0000 0.83170  0.41610  0.21460  Biso   1.000  H
  C102     1.0000 0.87400  0.34320  0.14630  Biso   1.000  C
  H73      1.0000 0.89950  0.35360  0.13230  Biso   1.000  H
  C103     1.0000 0.95200  0.51810  0.94290  Biso   1.000  C
  H74      1.0000 0.98110  0.50090  0.93890  Biso   1.000  H
  C104     1.0000 0.84630  0.46440  0.19490  Biso   1.000  C
  H75      1.0000 0.83920  0.47770  0.21420  Biso   1.000  H
  C105     1.0000 0.18400  0.14360  0.20435  Biso   1.000  C
  C106     1.0000 0.13680  0.13180  0.18390  Biso   1.000  C
  H76      1.0000 0.14030  0.11030  0.17170  Biso   1.000  H
  C107     1.0000 0.42310  0.76064  0.06960  Biso   1.000  C
  H77      1.0000 0.45950  0.74970  0.08100  Biso   1.000  H
  C108     1.0000 0.99520  0.22790  0.20450  Biso   1.000  C
  H78      1.0000 0.02740  0.23850  0.22030  Biso   1.000  H
  C109     1.0000 0.92530  0.44670  0.77120  Biso   1.000  C
  H79      1.0000 0.95260  0.44380  0.75560  Biso   1.000  H
  C110     1.0000 0.89840  0.19830  0.16260  Biso   1.000  C
  H80      1.0000 0.86520  0.18770  0.14750  Biso   1.000  H
  C111     1.0000 0.88940  0.23090  0.17780  Biso   1.000  C
  C112     1.0000 0.86550  0.30530  0.14560  Biso   1.000  C
  H81      1.0000 0.88250  0.29110  0.12980  Biso   1.000  H
  C113     1.0000 0.84510  0.36550  0.16751  Biso   1.000  C
  C114     1.0000 0.87060  0.56524  0.95880  Biso   1.000  C
  H82      1.0000 0.84310  0.58270  0.96420  Biso   1.000  H
  C115     1.0000 0.34790  0.97312  0.04004  Biso   1.000  C
  C116     1.0000 0.06700  0.17800  0.19583  Biso   1.000  C
  C117     1.0000 0.53720  0.14312  0.20788  Biso   1.000  C
  H83      1.0000 0.53330  0.13080  0.22830  Biso   1.000  H
  C118     1.0000 0.59160  0.16019  0.20605  Biso   1.000  C
  H84      1.0000 0.62450  0.15860  0.22500  Biso   1.000  H
  C119     1.0000 0.12250  0.19630  0.21460  Biso   1.000  C
  H85      1.0000 0.12030  0.21950  0.22400  Biso   1.000  H
  C120     1.0000 0.24690  0.12650  0.20990  Biso   1.000  C
  C121     1.0000 0.85280  0.45590  0.81660  Biso   1.000  C
  H86      1.0000 0.82510  0.45860  0.83190  Biso   1.000  H
  C122     1.0000 0.93890  0.24570  0.19810  Biso   1.000  C
  H87      1.0000 0.93530  0.26850  0.20810  Biso   1.000  H
  C123     1.0000 0.91150  0.46804  0.82607  Biso   1.000  C
  C124     1.0000 0.66290  0.22984  0.15489  Biso   1.000  C
  H88      1.0000 0.62620  0.23980  0.14270  Biso   1.000  H
  C125     1.0000 0.71470  0.18340  0.19220  Biso   1.000  C
  H89      1.0000 0.71410  0.16160  0.20440  Biso   1.000  H
  C126     1.0000 0.83340  0.43960  0.78490  Biso   1.000  C
  H90      1.0000 0.79320  0.43040  0.78010  Biso   1.000  H
  C127     1.0000 0.77100  0.20180  0.19170  Biso   1.000  C
  H91      1.0000 0.80720  0.19310  0.20560  Biso   1.000  H
  C128     1.0000 0.00620  0.19660  0.18967  Biso   1.000  C
  C129     1.0000 0.95250  0.18120  0.16840  Biso   1.000  C
  H92      1.0000 0.95560  0.15840  0.15820  Biso   1.000  H
  C130     1.0000 0.85210  0.40550  0.16709  Biso   1.000  C
  C131     1.0000 0.71720  0.24647  0.15300  Biso   1.000  C
  H93      1.0000 0.71740  0.26750  0.13970  Biso   1.000  H
  C132     1.0000 0.36730  0.81553  0.05112  Biso   1.000  C
  C133     1.0000 0.54840  0.18150  0.14912  Biso   1.000  C
  H94      1.0000 0.55100  0.19550  0.12940  Biso   1.000  H
  C134     1.0000 0.30150  0.91103  0.04363  Biso   1.000  C
  H95      1.0000 0.26280  0.92220  0.04090  Biso   1.000  H
  C135     1.0000 0.42030  0.79843  0.06740  Biso   1.000  C
  H96      1.0000 0.45480  0.81220  0.07720  Biso   1.000  H
  C136     1.0000 0.77420  0.23182  0.17133  Biso   1.000  C
  C137     1.0000 0.63760  0.61088  0.08512  Biso   1.000  C
  H97      1.0000 0.62040  0.61080  0.10540  Biso   1.000  H
  C138     1.0000 0.49420  0.16289  0.15037  Biso   1.000  C
  H98      1.0000 0.46190  0.16330  0.13110  Biso   1.000  H
  C139     1.0000 0.92720  0.51600  0.97223  Biso   1.000  C
  H99      1.0000 0.93990  0.49690  0.98760  Biso   1.000  H
  C140     1.0000 0.31800  0.79483  0.03686  Biso   1.000  C
  H100     1.0000 0.28150  0.80610  0.02610  Biso   1.000  H
  C141     1.0000 0.87080  0.42450  0.13951  Biso   1.000  C
  H101     1.0000 0.87980  0.41150  0.12040  Biso   1.000  H
  C142     1.0000 0.81060  0.34820  0.18860  Biso   1.000  C
  H102     1.0000 0.78990  0.36210  0.20290  Biso   1.000  H
  C143     1.0000 0.41620  0.87787  0.05180  Biso   1.000  C
  H103     1.0000 0.45540  0.86730  0.05460  Biso   1.000  H
  C144     1.0000 0.36370  0.85590  0.05009  Biso   1.000  C
  C145     1.0000 0.47140  0.69324  0.03340  Biso   1.000  C
  H104     1.0000 0.46030  0.71280  0.01830  Biso   1.000  H
  C146     1.0000 0.35270  0.93126  0.04486  Biso   1.000  C
  C147     1.0000 0.25490  0.63032  0.04542  Biso   1.000  C
  H105     1.0000 0.24500  0.60910  0.03260  Biso   1.000  H
  C148     1.0000 0.32290  0.68181  0.06058  Biso   1.000  C
  C149     1.0000 0.86120  0.48216  0.16639  Biso   1.000  C
  C150     1.0000 0.59930  0.18003  0.17626  Biso   1.000  C
  C151     1.0000 0.83200  0.28915  0.16820  Biso   1.000  C
  C152     1.0000 0.30690  0.64980  0.04144  Biso   1.000  C
  H106     1.0000 0.33150  0.64160  0.02590  Biso   1.000  H
  C153     1.0000 0.50490  0.63476  0.07804  Biso   1.000  C
  H107     1.0000 0.51510  0.61480  0.09280  Biso   1.000  H
  C154     1.0000 0.65990  0.19880  0.17417  Biso   1.000  C
  C155     1.0000 0.13700  0.62079  0.10284  Biso   1.000  C
  H108     1.0000 0.16200  0.62900  0.12340  Biso   1.000  H
  C156     1.0000 0.68360  0.60657  0.02490  Biso   1.000  C
  H109     1.0000 0.69750  0.60400  0.00370  Biso   1.000  H
  C157     1.0000 0.23300  0.67341  0.08739  Biso   1.000  C
  H110     1.0000 0.20860  0.68130  0.10320  Biso   1.000  H
  C158     1.0000 0.87630  0.46183  0.13978  Biso   1.000  C
  H111     1.0000 0.89060  0.47340  0.12140  Biso   1.000  H
  C159     1.0000 0.12130  0.60785  0.04100  Biso   1.000  C
  H112     1.0000 0.13500  0.60810  0.01960  Biso   1.000  H
  C160     1.0000 0.30620  0.87382  0.04633  Biso   1.000  C
  H113     1.0000 0.27040  0.86010  0.04570  Biso   1.000  H
  C161     1.0000 0.41010  0.91527  0.04927  Biso   1.000  C
  H114     1.0000 0.44530  0.92970  0.05060  Biso   1.000  H
  C162     1.0000 0.48760  0.14366  0.18015  Biso   1.000  C
  C163     1.0000 0.37400  0.73913  0.05532  Biso   1.000  C
  C164     1.0000 0.43290  0.68193  0.05560  Biso   1.000  C
  C165     1.0000 0.32090  0.75646  0.03805  Biso   1.000  C
  H115     1.0000 0.28700  0.74280  0.02720  Biso   1.000  H
  C166     1.0000 0.52690  0.67505  0.03390  Biso   1.000  C
  H116     1.0000 0.55270  0.68290  0.01890  Biso   1.000  H
  C167     1.0000 0.28480  0.69356  0.08338  Biso   1.000  C
  H117     1.0000 0.29410  0.71500  0.09600  Biso   1.000  H
  C168     1.0000 0.15800  0.62338  0.07103  Biso   1.000  C
  C169     1.0000 0.97810  0.57942  0.07566  Biso   1.000  C
  C170     1.0000 0.69480  0.59468  0.08659  Biso   1.000  C
  H118     1.0000 0.71710  0.58570  0.10760  Biso   1.000  H
  C171     1.0000 0.54580  0.64551  0.05584  Biso   1.000  C
  C172     1.0000 0.45100  0.65279  0.07849  Biso   1.000  C
  H119     1.0000 0.42580  0.64570  0.09420  Biso   1.000  H
  C173     1.0000 0.04260  0.59239  0.07465  Biso   1.000  C
  C174     1.0000 0.42930  0.12293  0.18250  Biso   1.000  C
  C175     1.0000 0.60420  0.62715  0.05541  Biso   1.000  C
  C176     1.0000 0.86510  0.52270  0.16604  Biso   1.000  C
  C177     1.0000 0.71820  0.59227  0.05525  Biso   1.000  C
  C178     1.0000 0.21690  0.64204  0.06850  Biso   1.000  C
  C179     1.0000 0.06430  0.59211  0.04338  Biso   1.000  C
  H120     1.0000 0.04070  0.58130  0.02360  Biso   1.000  H
  C180     1.0000 0.07980  0.60633  0.10414  Biso   1.000  C
  H121     1.0000 0.06580  0.60590  0.12540  Biso   1.000  H
  C181     1.0000 0.77990  0.57463  0.05480  Biso   1.000  C
  C182     1.0000 0.62900  0.62447  0.02553  Biso   1.000  C
  H122     1.0000 0.60800  0.63520  0.00500  Biso   1.000  H
  Zn8      1.0000 0.88560  0.57550  0.11820  Biso   1.000  Zn
  Zn9      1.0000 0.36950  0.96032  0.53160  Biso   1.000  Zn
  Zn10     1.0000 0.37437  0.91188  0.61523  Biso   1.000  Zn
  Zn11     1.0000 0.84229  0.41383  0.71153  Biso   1.000  Zn
  N9       1.0000 0.32980  0.24979  0.66977  Biso   1.000  N
  N10      1.0000 0.87630  0.79885  0.55644  Biso   1.000  N
  N11      1.0000 0.38630  0.96084  0.48074  Biso   1.000  N
  N12      1.0000 0.36770  0.06382  0.26101  Biso   1.000  N
  O25      1.0000 0.79180  0.35940  0.73010  Biso   1.000  O
  O26      1.0000 0.79680  0.51324  0.52735  Biso   1.000  O
  O27      1.0000 0.75540  0.40030  0.69456  Biso   1.000  O
  O28      1.0000 0.34120  0.96143  0.68788  Biso   1.000  O
  O29      1.0000 0.89760  0.50871  0.54908  Biso   1.000  O
  O30      1.0000 0.92336  0.38962  0.71186  Biso   1.000  O
  O31      1.0000 0.39030  0.96193  0.64426  Biso   1.000  O
  O32      1.0000 0.88700  0.38044  0.65558  Biso   1.000  O
  O33      1.0000 0.31038  0.93765  0.58314  Biso   1.000  O
  O34      1.0000 0.44746  0.93201  0.54830  Biso   1.000  O
  O35      1.0000 0.45986  0.91668  0.60437  Biso   1.000  O
  O36      1.0000 0.29644  0.92805  0.52585  Biso   1.000  O
  C183     1.0000 0.67820  0.32200  0.71810  Biso   1.000  C
  H123     1.0000 0.71370  0.31060  0.73020  Biso   1.000  H
  C184     1.0000 0.39260  0.93110  0.42680  Biso   1.000  C
  H124     1.0000 0.37830  0.91240  0.41110  Biso   1.000  H
  C185     1.0000 0.58040  0.35090  0.67870  Biso   1.000  C
  H125     1.0000 0.54910  0.36040  0.66160  Biso   1.000  H
  C186     1.0000 0.30540  0.18950  0.68940  Biso   1.000  C
  H126     1.0000 0.28300  0.20020  0.70490  Biso   1.000  H
  C187     1.0000 0.43400  0.97250  0.35664  Biso   1.000  C
  H127     1.0000 0.41480  0.96170  0.33570  Biso   1.000  H
  C188     1.0000 0.46310  0.95030  0.38670  Biso   1.000  C
  H128     1.0000 0.45970  0.92480  0.37990  Biso   1.000  H
  H129     1.0000 0.50690  0.95620  0.39240  Biso   1.000  H
  C189     1.0000 0.43490  0.95520  0.41970  Biso   1.000  C
  C190     1.0000 0.43610  0.01180  0.36035  Biso   1.000  C
  H130     1.0000 0.41180  0.01890  0.37780  Biso   1.000  H
  H131     1.0000 0.47870  0.01920  0.36890  Biso   1.000  H
  C191     1.0000 0.44780  0.03840  0.30320  Biso   1.000  C
  H132     1.0000 0.48980  0.03270  0.30900  Biso   1.000  H
  C192     1.0000 0.34190  0.07260  0.69500  Biso   1.000  C
  H133     1.0000 0.33170  0.08390  0.71460  Biso   1.000  H
  C193     1.0000 0.37400  0.15680  0.64630  Biso   1.000  C
  H134     1.0000 0.39950  0.14640  0.63230  Biso   1.000  H
  C194     1.0000 0.45200  0.98190  0.44290  Biso   1.000  C
  H135     1.0000 0.48110  0.99910  0.43890  Biso   1.000  H
  C195     1.0000 0.34630  0.03560  0.69490  Biso   1.000  C
  H136     1.0000 0.33920  0.02230  0.71420  Biso   1.000  H
  C196     1.0000 0.68400  0.35640  0.70435  Biso   1.000  C
  C197     1.0000 0.63680  0.36820  0.68390  Biso   1.000  C
  H137     1.0000 0.64030  0.38970  0.67170  Biso   1.000  H
  C198     1.0000 0.92310  0.73936  0.56960  Biso   1.000  C
  H138     1.0000 0.95950  0.75030  0.58100  Biso   1.000  H
  C199     1.0000 0.49520  0.27210  0.70450  Biso   1.000  C
  H139     1.0000 0.52740  0.26150  0.72030  Biso   1.000  H
  C200     1.0000 0.42530  0.05330  0.27120  Biso   1.000  C
  H140     1.0000 0.45260  0.05620  0.25560  Biso   1.000  H
  C201     1.0000 0.39840  0.30170  0.66260  Biso   1.000  C
  H141     1.0000 0.36520  0.31230  0.64750  Biso   1.000  H
  C202     1.0000 0.38940  0.26910  0.67780  Biso   1.000  C
  C203     1.0000 0.36550  0.19470  0.64560  Biso   1.000  C
  H142     1.0000 0.38250  0.20890  0.62980  Biso   1.000  H
  C204     1.0000 0.34510  0.13450  0.66751  Biso   1.000  C
  C205     1.0000 0.37060  0.93476  0.45880  Biso   1.000  C
  H143     1.0000 0.34310  0.91730  0.46420  Biso   1.000  H
  C206     1.0000 0.84790  0.52688  0.54004  Biso   1.000  C
  C207     1.0000 0.56700  0.32200  0.69583  Biso   1.000  C
  C208     1.0000 0.03720  0.35688  0.70788  Biso   1.000  C
  H144     1.0000 0.03330  0.36920  0.72830  Biso   1.000  H
  C209     1.0000 0.09160  0.33981  0.70605  Biso   1.000  C
  H145     1.0000 0.12450  0.34140  0.72500  Biso   1.000  H
  C210     1.0000 0.62250  0.30370  0.71460  Biso   1.000  C
  H146     1.0000 0.62030  0.28050  0.72400  Biso   1.000  H
  C211     1.0000 0.74690  0.37350  0.70990  Biso   1.000  C
  C212     1.0000 0.35280  0.04410  0.31660  Biso   1.000  C
  H147     1.0000 0.32510  0.04140  0.33190  Biso   1.000  H
  C213     1.0000 0.43890  0.25430  0.69810  Biso   1.000  C
  H148     1.0000 0.43530  0.23150  0.70810  Biso   1.000  H
  C214     1.0000 0.41150  0.03196  0.32607  Biso   1.000  C
  C215     1.0000 0.16290  0.27016  0.65489  Biso   1.000  C
  H149     1.0000 0.12620  0.26020  0.64270  Biso   1.000  H
  C216     1.0000 0.21470  0.31660  0.69220  Biso   1.000  C
  H150     1.0000 0.21410  0.33840  0.70440  Biso   1.000  H
  C217     1.0000 0.33340  0.06040  0.28490  Biso   1.000  C
  H151     1.0000 0.29320  0.06960  0.28010  Biso   1.000  H
  C218     1.0000 0.27100  0.29820  0.69170  Biso   1.000  C
  H152     1.0000 0.30720  0.30690  0.70560  Biso   1.000  H
  C219     1.0000 0.50620  0.30340  0.68967  Biso   1.000  C
  C220     1.0000 0.45250  0.31880  0.66840  Biso   1.000  C
  H153     1.0000 0.45560  0.34160  0.65820  Biso   1.000  H
  C221     1.0000 0.35210  0.09450  0.66709  Biso   1.000  C
  C222     1.0000 0.21720  0.25353  0.65300  Biso   1.000  C
  H154     1.0000 0.21740  0.23250  0.63970  Biso   1.000  H
  C223     1.0000 0.86730  0.68447  0.55112  Biso   1.000  C
  C224     1.0000 0.04840  0.31850  0.64912  Biso   1.000  C
  H155     1.0000 0.05100  0.30450  0.62940  Biso   1.000  H
  C225     1.0000 0.80150  0.58897  0.54363  Biso   1.000  C
  H156     1.0000 0.76280  0.57780  0.54090  Biso   1.000  H
  C226     1.0000 0.92030  0.70157  0.56740  Biso   1.000  C
  H157     1.0000 0.95480  0.68780  0.57720  Biso   1.000  H
  C227     1.0000 0.27420  0.26818  0.67133  Biso   1.000  C
  C228     1.0000 0.13760  0.88912  0.58512  Biso   1.000  C
  H158     1.0000 0.12040  0.88920  0.60540  Biso   1.000  H
  C229     1.0000 0.99420  0.33711  0.65037  Biso   1.000  C
  H159     1.0000 0.96190  0.33670  0.63110  Biso   1.000  H
  C230     1.0000 0.42720  0.98400  0.47223  Biso   1.000  C
  H160     1.0000 0.43990  0.00310  0.48760  Biso   1.000  H
  C231     1.0000 0.81800  0.70517  0.53686  Biso   1.000  C
  H161     1.0000 0.78150  0.69390  0.52610  Biso   1.000  H
  C232     1.0000 0.37080  0.07550  0.63951  Biso   1.000  C
  H162     1.0000 0.37980  0.08850  0.62040  Biso   1.000  H
  C233     1.0000 0.31060  0.15180  0.68860  Biso   1.000  C
  H163     1.0000 0.28990  0.13790  0.70290  Biso   1.000  H
  C234     1.0000 0.91620  0.62213  0.55180  Biso   1.000  C
  H164     1.0000 0.95540  0.63270  0.55460  Biso   1.000  H
  C235     1.0000 0.86370  0.64410  0.55009  Biso   1.000  C
  C236     1.0000 0.97140  0.80676  0.53340  Biso   1.000  C
  H165     1.0000 0.96030  0.78720  0.51830  Biso   1.000  H
  C237     1.0000 0.85270  0.56874  0.54486  Biso   1.000  C
  C238     1.0000 0.75490  0.86968  0.54542  Biso   1.000  C
  H166     1.0000 0.74500  0.89090  0.53260  Biso   1.000  H
  C239     1.0000 0.82290  0.81819  0.56058  Biso   1.000  C
  C240     1.0000 0.36120  0.01784  0.66639  Biso   1.000  C
  C241     1.0000 0.09930  0.31997  0.67626  Biso   1.000  C
  C242     1.0000 0.33200  0.21085  0.66820  Biso   1.000  C
  C243     1.0000 0.80690  0.85020  0.54144  Biso   1.000  C
  H167     1.0000 0.83150  0.85840  0.52590  Biso   1.000  H
  C244     1.0000 0.00490  0.86524  0.57804  Biso   1.000  C
  H168     1.0000 0.01510  0.88520  0.59280  Biso   1.000  H
  C245     1.0000 0.15990  0.30120  0.67417  Biso   1.000  C
  C246     1.0000 0.63700  0.87921  0.60284  Biso   1.000  C
  H169     1.0000 0.66200  0.87100  0.62340  Biso   1.000  H
  C247     1.0000 0.18360  0.89343  0.52490  Biso   1.000  C
  H170     1.0000 0.19750  0.89600  0.50370  Biso   1.000  H
  C248     1.0000 0.73300  0.82659  0.58739  Biso   1.000  C
  H171     1.0000 0.70860  0.81870  0.60320  Biso   1.000  H
  C249     1.0000 0.37630  0.03817  0.63978  Biso   1.000  C
  H172     1.0000 0.39060  0.02660  0.62140  Biso   1.000  H
  C250     1.0000 0.62130  0.89215  0.54100  Biso   1.000  C
  H173     1.0000 0.63500  0.89190  0.51960  Biso   1.000  H
  C251     1.0000 0.80620  0.62618  0.54633  Biso   1.000  C
  H174     1.0000 0.77040  0.63990  0.54570  Biso   1.000  H
  C252     1.0000 0.91010  0.58473  0.54927  Biso   1.000  C
  H175     1.0000 0.94530  0.57030  0.55060  Biso   1.000  H
  C253     1.0000 0.98760  0.35634  0.68015  Biso   1.000  C
  C254     1.0000 0.87400  0.76087  0.55532  Biso   1.000  C
  C255     1.0000 0.93290  0.81807  0.55560  Biso   1.000  C
  C256     1.0000 0.82090  0.74354  0.53805  Biso   1.000  C
  H176     1.0000 0.78700  0.75720  0.52720  Biso   1.000  H
  C257     1.0000 0.02690  0.82495  0.53390  Biso   1.000  C
  H177     1.0000 0.05270  0.81710  0.51890  Biso   1.000  H
  C258     1.0000 0.78480  0.80644  0.58338  Biso   1.000  C
  H178     1.0000 0.79410  0.78500  0.59600  Biso   1.000  H
  C259     1.0000 0.65800  0.87662  0.57103  Biso   1.000  C
  C260     1.0000 0.47810  0.92058  0.57566  Biso   1.000  C
  C261     1.0000 0.19480  0.90532  0.58659  Biso   1.000  C
  H179     1.0000 0.21710  0.91430  0.60760  Biso   1.000  H
  C262     1.0000 0.04580  0.85449  0.55584  Biso   1.000  C
  C263     1.0000 0.95100  0.84721  0.57849  Biso   1.000  C
  H180     1.0000 0.92580  0.85430  0.59420  Biso   1.000  H
  C264     1.0000 0.54260  0.90761  0.57465  Biso   1.000  C
  C265     1.0000 0.92930  0.37707  0.68250  Biso   1.000  C
  C266     1.0000 0.10420  0.87285  0.55541  Biso   1.000  C
  C267     1.0000 0.36510  0.97730  0.66604  Biso   1.000  C
  C268     1.0000 0.21820  0.90773  0.55525  Biso   1.000  C
  C269     1.0000 0.71690  0.85796  0.56850  Biso   1.000  C
  C270     1.0000 0.56430  0.90789  0.54338  Biso   1.000  C
  H181     1.0000 0.54070  0.91870  0.52360  Biso   1.000  H
  C271     1.0000 0.57980  0.89367  0.60414  Biso   1.000  C
  H182     1.0000 0.56580  0.89410  0.62540  Biso   1.000  H
  C272     1.0000 0.27990  0.92537  0.55480  Biso   1.000  C
  C273     1.0000 0.12900  0.87553  0.52553  Biso   1.000  C
  H183     1.0000 0.10800  0.86480  0.50500  Biso   1.000  H
  Zn12     1.0000 0.38560  0.92450  0.61820  Biso   1.000  Zn
  Zn13     1.0000 0.86950  0.46032  0.53160  Biso   1.000  Zn
  Zn14     1.0000 0.87437  0.41188  0.61523  Biso   1.000  Zn
  Zn15     1.0000 0.34229  0.91383  0.71153  Biso   1.000  Zn
  N13      1.0000 0.82980  0.74979  0.66977  Biso   1.000  N
  N14      1.0000 0.37630  0.29885  0.55644  Biso   1.000  N
  N15      1.0000 0.88630  0.46084  0.48074  Biso   1.000  N
  N16      1.0000 0.86770  0.56382  0.26101  Biso   1.000  N
  O37      1.0000 0.29180  0.85940  0.73010  Biso   1.000  O
  O38      1.0000 0.29680  0.01324  0.52735  Biso   1.000  O
  O39      1.0000 0.25540  0.90030  0.69456  Biso   1.000  O
  O40      1.0000 0.84120  0.46143  0.68788  Biso   1.000  O
  O41      1.0000 0.39760  0.00871  0.54908  Biso   1.000  O
  O42      1.0000 0.42336  0.88962  0.71186  Biso   1.000  O
  O43      1.0000 0.89030  0.46193  0.64426  Biso   1.000  O
  O44      1.0000 0.38700  0.88044  0.65558  Biso   1.000  O
  O45      1.0000 0.81038  0.43765  0.58314  Biso   1.000  O
  O46      1.0000 0.94746  0.43201  0.54830  Biso   1.000  O
  O47      1.0000 0.95986  0.41668  0.60437  Biso   1.000  O
  O48      1.0000 0.79644  0.42805  0.52585  Biso   1.000  O
  C274     1.0000 0.17820  0.82200  0.71810  Biso   1.000  C
  H184     1.0000 0.21370  0.81060  0.73020  Biso   1.000  H
  C275     1.0000 0.89260  0.43110  0.42680  Biso   1.000  C
  H185     1.0000 0.87830  0.41240  0.41110  Biso   1.000  H
  C276     1.0000 0.08040  0.85090  0.67870  Biso   1.000  C
  H186     1.0000 0.04910  0.86040  0.66160  Biso   1.000  H
  C277     1.0000 0.80540  0.68950  0.68940  Biso   1.000  C
  H187     1.0000 0.78300  0.70020  0.70490  Biso   1.000  H
  C278     1.0000 0.93400  0.47250  0.35664  Biso   1.000  C
  H188     1.0000 0.91480  0.46170  0.33570  Biso   1.000  H
  C279     1.0000 0.96310  0.45030  0.38670  Biso   1.000  C
  H189     1.0000 0.95970  0.42480  0.37990  Biso   1.000  H
  H190     1.0000 0.00690  0.45620  0.39240  Biso   1.000  H
  C280     1.0000 0.93490  0.45520  0.41970  Biso   1.000  C
  C281     1.0000 0.93610  0.51180  0.36035  Biso   1.000  C
  H191     1.0000 0.91180  0.51890  0.37780  Biso   1.000  H
  H192     1.0000 0.97870  0.51920  0.36890  Biso   1.000  H
  C282     1.0000 0.94780  0.53840  0.30320  Biso   1.000  C
  H193     1.0000 0.98980  0.53270  0.30900  Biso   1.000  H
  C283     1.0000 0.84190  0.57260  0.69500  Biso   1.000  C
  H194     1.0000 0.83170  0.58390  0.71460  Biso   1.000  H
  C284     1.0000 0.87400  0.65680  0.64630  Biso   1.000  C
  H195     1.0000 0.89950  0.64640  0.63230  Biso   1.000  H
  C285     1.0000 0.95200  0.48190  0.44290  Biso   1.000  C
  H196     1.0000 0.98110  0.49910  0.43890  Biso   1.000  H
  C286     1.0000 0.84630  0.53560  0.69490  Biso   1.000  C
  H197     1.0000 0.83920  0.52230  0.71420  Biso   1.000  H
  C287     1.0000 0.18400  0.85640  0.70435  Biso   1.000  C
  C288     1.0000 0.13680  0.86820  0.68390  Biso   1.000  C
  H198     1.0000 0.14030  0.88970  0.67170  Biso   1.000  H
  C289     1.0000 0.42310  0.23936  0.56960  Biso   1.000  C
  H199     1.0000 0.45950  0.25030  0.58100  Biso   1.000  H
  C290     1.0000 0.99520  0.77210  0.70450  Biso   1.000  C
  H200     1.0000 0.02740  0.76150  0.72030  Biso   1.000  H
  C291     1.0000 0.92530  0.55330  0.27120  Biso   1.000  C
  H201     1.0000 0.95260  0.55620  0.25560  Biso   1.000  H
  C292     1.0000 0.89840  0.80170  0.66260  Biso   1.000  C
  H202     1.0000 0.86520  0.81230  0.64750  Biso   1.000  H
  C293     1.0000 0.88940  0.76910  0.67780  Biso   1.000  C
  C294     1.0000 0.86550  0.69470  0.64560  Biso   1.000  C
  H203     1.0000 0.88250  0.70890  0.62980  Biso   1.000  H
  C295     1.0000 0.84510  0.63450  0.66751  Biso   1.000  C
  C296     1.0000 0.87060  0.43476  0.45880  Biso   1.000  C
  H204     1.0000 0.84310  0.41730  0.46420  Biso   1.000  H
  C297     1.0000 0.34790  0.02688  0.54004  Biso   1.000  C
  C298     1.0000 0.06700  0.82200  0.69583  Biso   1.000  C
  C299     1.0000 0.53720  0.85688  0.70788  Biso   1.000  C
  H205     1.0000 0.53330  0.86920  0.72830  Biso   1.000  H
  C300     1.0000 0.59160  0.83981  0.70605  Biso   1.000  C
  H206     1.0000 0.62450  0.84140  0.72500  Biso   1.000  H
  C301     1.0000 0.12250  0.80370  0.71460  Biso   1.000  C
  H207     1.0000 0.12030  0.78050  0.72400  Biso   1.000  H
  C302     1.0000 0.24690  0.87350  0.70990  Biso   1.000  C
  C303     1.0000 0.85280  0.54410  0.31660  Biso   1.000  C
  H208     1.0000 0.82510  0.54140  0.33190  Biso   1.000  H
  C304     1.0000 0.93890  0.75430  0.69810  Biso   1.000  C
  H209     1.0000 0.93530  0.73150  0.70810  Biso   1.000  H
  C305     1.0000 0.91150  0.53196  0.32607  Biso   1.000  C
  C306     1.0000 0.66290  0.77016  0.65489  Biso   1.000  C
  H210     1.0000 0.62620  0.76020  0.64270  Biso   1.000  H
  C307     1.0000 0.71470  0.81660  0.69220  Biso   1.000  C
  H211     1.0000 0.71410  0.83840  0.70440  Biso   1.000  H
  C308     1.0000 0.83340  0.56040  0.28490  Biso   1.000  C
  H212     1.0000 0.79320  0.56960  0.28010  Biso   1.000  H
  C309     1.0000 0.77100  0.79820  0.69170  Biso   1.000  C
  H213     1.0000 0.80720  0.80690  0.70560  Biso   1.000  H
  C310     1.0000 0.00620  0.80340  0.68967  Biso   1.000  C
  C311     1.0000 0.95250  0.81880  0.66840  Biso   1.000  C
  H214     1.0000 0.95560  0.84160  0.65820  Biso   1.000  H
  C312     1.0000 0.85210  0.59450  0.66709  Biso   1.000  C
  C313     1.0000 0.71720  0.75353  0.65300  Biso   1.000  C
  H215     1.0000 0.71740  0.73250  0.63970  Biso   1.000  H
  C314     1.0000 0.36730  0.18447  0.55112  Biso   1.000  C
  C315     1.0000 0.54840  0.81850  0.64912  Biso   1.000  C
  H216     1.0000 0.55100  0.80450  0.62940  Biso   1.000  H
  C316     1.0000 0.30150  0.08897  0.54363  Biso   1.000  C
  H217     1.0000 0.26280  0.07780  0.54090  Biso   1.000  H
  C317     1.0000 0.42030  0.20157  0.56740  Biso   1.000  C
  H218     1.0000 0.45480  0.18780  0.57720  Biso   1.000  H
  C318     1.0000 0.77420  0.76818  0.67133  Biso   1.000  C
  C319     1.0000 0.63760  0.38912  0.58512  Biso   1.000  C
  H219     1.0000 0.62040  0.38920  0.60540  Biso   1.000  H
  C320     1.0000 0.49420  0.83711  0.65037  Biso   1.000  C
  H220     1.0000 0.46190  0.83670  0.63110  Biso   1.000  H
  C321     1.0000 0.92720  0.48400  0.47223  Biso   1.000  C
  H221     1.0000 0.93990  0.50310  0.48760  Biso   1.000  H
  C322     1.0000 0.31800  0.20517  0.53686  Biso   1.000  C
  H222     1.0000 0.28150  0.19390  0.52610  Biso   1.000  H
  C323     1.0000 0.87080  0.57550  0.63951  Biso   1.000  C
  H223     1.0000 0.87980  0.58850  0.62040  Biso   1.000  H
  C324     1.0000 0.81060  0.65180  0.68860  Biso   1.000  C
  H224     1.0000 0.78990  0.63790  0.70290  Biso   1.000  H
  C325     1.0000 0.41620  0.12213  0.55180  Biso   1.000  C
  H225     1.0000 0.45540  0.13270  0.55460  Biso   1.000  H
  C326     1.0000 0.36370  0.14410  0.55009  Biso   1.000  C
  C327     1.0000 0.47140  0.30676  0.53340  Biso   1.000  C
  H226     1.0000 0.46030  0.28720  0.51830  Biso   1.000  H
  C328     1.0000 0.35270  0.06874  0.54486  Biso   1.000  C
  C329     1.0000 0.25490  0.36968  0.54542  Biso   1.000  C
  H227     1.0000 0.24500  0.39090  0.53260  Biso   1.000  H
  C330     1.0000 0.32290  0.31819  0.56058  Biso   1.000  C
  C331     1.0000 0.86120  0.51784  0.66639  Biso   1.000  C
  C332     1.0000 0.59930  0.81997  0.67626  Biso   1.000  C
  C333     1.0000 0.83200  0.71085  0.66820  Biso   1.000  C
  C334     1.0000 0.30690  0.35020  0.54144  Biso   1.000  C
  H228     1.0000 0.33150  0.35840  0.52590  Biso   1.000  H
  C335     1.0000 0.50490  0.36524  0.57804  Biso   1.000  C
  H229     1.0000 0.51510  0.38520  0.59280  Biso   1.000  H
  C336     1.0000 0.65990  0.80120  0.67417  Biso   1.000  C
  C337     1.0000 0.13700  0.37921  0.60284  Biso   1.000  C
  H230     1.0000 0.16200  0.37100  0.62340  Biso   1.000  H
  C338     1.0000 0.68360  0.39343  0.52490  Biso   1.000  C
  H231     1.0000 0.69750  0.39600  0.50370  Biso   1.000  H
  C339     1.0000 0.23300  0.32659  0.58739  Biso   1.000  C
  H232     1.0000 0.20860  0.31870  0.60320  Biso   1.000  H
  C340     1.0000 0.87630  0.53817  0.63978  Biso   1.000  C
  H233     1.0000 0.89060  0.52660  0.62140  Biso   1.000  H
  C341     1.0000 0.12130  0.39215  0.54100  Biso   1.000  C
  H234     1.0000 0.13500  0.39190  0.51960  Biso   1.000  H
  C342     1.0000 0.30620  0.12618  0.54633  Biso   1.000  C
  H235     1.0000 0.27040  0.13990  0.54570  Biso   1.000  H
  C343     1.0000 0.41010  0.08473  0.54927  Biso   1.000  C
  H236     1.0000 0.44530  0.07030  0.55060  Biso   1.000  H
  C344     1.0000 0.48760  0.85634  0.68015  Biso   1.000  C
  C345     1.0000 0.37400  0.26087  0.55532  Biso   1.000  C
  C346     1.0000 0.43290  0.31807  0.55560  Biso   1.000  C
  C347     1.0000 0.32090  0.24354  0.53805  Biso   1.000  C
  H237     1.0000 0.28700  0.25720  0.52720  Biso   1.000  H
  C348     1.0000 0.52690  0.32495  0.53390  Biso   1.000  C
  H238     1.0000 0.55270  0.31710  0.51890  Biso   1.000  H
  C349     1.0000 0.28480  0.30644  0.58338  Biso   1.000  C
  H239     1.0000 0.29410  0.28500  0.59600  Biso   1.000  H
  C350     1.0000 0.15800  0.37662  0.57103  Biso   1.000  C
  C351     1.0000 0.97810  0.42058  0.57566  Biso   1.000  C
  C352     1.0000 0.69480  0.40532  0.58659  Biso   1.000  C
  H240     1.0000 0.71710  0.41430  0.60760  Biso   1.000  H
  C353     1.0000 0.54580  0.35449  0.55584  Biso   1.000  C
  C354     1.0000 0.45100  0.34721  0.57849  Biso   1.000  C
  H241     1.0000 0.42580  0.35430  0.59420  Biso   1.000  H
  C355     1.0000 0.04260  0.40761  0.57465  Biso   1.000  C
  C356     1.0000 0.42930  0.87707  0.68250  Biso   1.000  C
  C357     1.0000 0.60420  0.37285  0.55541  Biso   1.000  C
  C358     1.0000 0.86510  0.47730  0.66604  Biso   1.000  C
  C359     1.0000 0.71820  0.40773  0.55525  Biso   1.000  C
  C360     1.0000 0.21690  0.35796  0.56850  Biso   1.000  C
  C361     1.0000 0.06430  0.40789  0.54338  Biso   1.000  C
  H242     1.0000 0.04070  0.41870  0.52360  Biso   1.000  H
  C362     1.0000 0.07980  0.39367  0.60414  Biso   1.000  C
  H243     1.0000 0.06580  0.39410  0.62540  Biso   1.000  H
  C363     1.0000 0.77990  0.42537  0.55480  Biso   1.000  C
  C364     1.0000 0.62900  0.37553  0.52553  Biso   1.000  C
  H244     1.0000 0.60800  0.36480  0.50500  Biso   1.000  H
  Zn16     1.0000 0.88560  0.42450  0.61820  Biso   1.000  Zn
  Zn17     1.0000 0.63050  0.03968  0.46840  Biso   1.000  Zn
  Zn18     1.0000 0.62563  0.08812  0.38477  Biso   1.000  Zn
  Zn19     1.0000 0.15771  0.58617  0.28847  Biso   1.000  Zn
  N17      1.0000 0.67020  0.75021  0.33023  Biso   1.000  N
  N18      1.0000 0.12370  0.20115  0.44356  Biso   1.000  N
  N19      1.0000 0.61370  0.03916  0.51926  Biso   1.000  N
  N20      1.0000 0.63230  0.93618  0.73899  Biso   1.000  N
  O49      1.0000 0.20820  0.64060  0.26990  Biso   1.000  O
  O50      1.0000 0.20320  0.48676  0.47265  Biso   1.000  O
  O51      1.0000 0.24460  0.59970  0.30544  Biso   1.000  O
  O52      1.0000 0.65880  0.03857  0.31212  Biso   1.000  O
  O53      1.0000 0.10240  0.49129  0.45092  Biso   1.000  O
  O54      1.0000 0.07664  0.61038  0.28814  Biso   1.000  O
  O55      1.0000 0.60970  0.03807  0.35574  Biso   1.000  O
  O56      1.0000 0.11300  0.61956  0.34442  Biso   1.000  O
  O57      1.0000 0.68962  0.06235  0.41686  Biso   1.000  O
  O58      1.0000 0.55254  0.06799  0.45170  Biso   1.000  O
  O59      1.0000 0.54014  0.08332  0.39563  Biso   1.000  O
  O60      1.0000 0.70356  0.07195  0.47415  Biso   1.000  O
  C365     1.0000 0.32180  0.67800  0.28190  Biso   1.000  C
  H245     1.0000 0.28630  0.68940  0.26980  Biso   1.000  H
  C366     1.0000 0.60740  0.06890  0.57320  Biso   1.000  C
  H246     1.0000 0.62170  0.08760  0.58890  Biso   1.000  H
  C367     1.0000 0.41960  0.64910  0.32130  Biso   1.000  C
  H247     1.0000 0.45090  0.63960  0.33840  Biso   1.000  H
  C368     1.0000 0.69460  0.81050  0.31060  Biso   1.000  C
  H248     1.0000 0.71700  0.79980  0.29510  Biso   1.000  H
  C369     1.0000 0.56600  0.02750  0.64336  Biso   1.000  C
  H249     1.0000 0.58520  0.03830  0.66430  Biso   1.000  H
  C370     1.0000 0.53690  0.04970  0.61330  Biso   1.000  C
  H250     1.0000 0.54030  0.07520  0.62010  Biso   1.000  H
  H251     1.0000 0.49310  0.04380  0.60760  Biso   1.000  H
  C371     1.0000 0.56510  0.04480  0.58030  Biso   1.000  C
  C372     1.0000 0.56390  0.98820  0.63965  Biso   1.000  C
  H252     1.0000 0.58820  0.98110  0.62220  Biso   1.000  H
  H253     1.0000 0.52130  0.98080  0.63110  Biso   1.000  H
  C373     1.0000 0.55220  0.96160  0.69680  Biso   1.000  C
  H254     1.0000 0.51020  0.96730  0.69100  Biso   1.000  H
  C374     1.0000 0.65810  0.92740  0.30500  Biso   1.000  C
  H255     1.0000 0.66830  0.91610  0.28540  Biso   1.000  H
  C375     1.0000 0.62600  0.84320  0.35370  Biso   1.000  C
  H256     1.0000 0.60050  0.85360  0.36770  Biso   1.000  H
  C376     1.0000 0.54800  0.01810  0.55710  Biso   1.000  C
  H257     1.0000 0.51890  0.00090  0.56110  Biso   1.000  H
  C377     1.0000 0.65370  0.96440  0.30510  Biso   1.000  C
  H258     1.0000 0.66080  0.97770  0.28580  Biso   1.000  H
  C378     1.0000 0.31600  0.64360  0.29565  Biso   1.000  C
  C379     1.0000 0.36320  0.63180  0.31610  Biso   1.000  C
  H259     1.0000 0.35970  0.61030  0.32830  Biso   1.000  H
  C380     1.0000 0.07690  0.26064  0.43040  Biso   1.000  C
  H260     1.0000 0.04050  0.24970  0.41900  Biso   1.000  H
  C381     1.0000 0.50480  0.72790  0.29550  Biso   1.000  C
  H261     1.0000 0.47260  0.73850  0.27970  Biso   1.000  H
  C382     1.0000 0.57470  0.94670  0.72880  Biso   1.000  C
  H262     1.0000 0.54740  0.94380  0.74440  Biso   1.000  H
  C383     1.0000 0.60160  0.69830  0.33740  Biso   1.000  C
  H263     1.0000 0.63480  0.68770  0.35250  Biso   1.000  H
  C384     1.0000 0.61060  0.73090  0.32220  Biso   1.000  C
  C385     1.0000 0.63450  0.80530  0.35440  Biso   1.000  C
  H264     1.0000 0.61750  0.79110  0.37020  Biso   1.000  H
  C386     1.0000 0.65490  0.86550  0.33249  Biso   1.000  C
  C387     1.0000 0.62940  0.06524  0.54120  Biso   1.000  C
  H265     1.0000 0.65690  0.08270  0.53580  Biso   1.000  H
  C388     1.0000 0.15210  0.47312  0.45996  Biso   1.000  C
  C389     1.0000 0.43300  0.67800  0.30417  Biso   1.000  C
  C390     1.0000 0.96280  0.64312  0.29212  Biso   1.000  C
  H266     1.0000 0.96670  0.63080  0.27170  Biso   1.000  H
  C391     1.0000 0.90840  0.66019  0.29395  Biso   1.000  C
  H267     1.0000 0.87550  0.65860  0.27500  Biso   1.000  H
  C392     1.0000 0.37750  0.69630  0.28540  Biso   1.000  C
  H268     1.0000 0.37970  0.71950  0.27600  Biso   1.000  H
  C393     1.0000 0.25310  0.62650  0.29010  Biso   1.000  C
  C394     1.0000 0.64720  0.95590  0.68340  Biso   1.000  C
  H269     1.0000 0.67490  0.95860  0.66810  Biso   1.000  H
  C395     1.0000 0.56110  0.74570  0.30190  Biso   1.000  C
  H270     1.0000 0.56470  0.76850  0.29190  Biso   1.000  H
  C396     1.0000 0.58850  0.96804  0.67393  Biso   1.000  C
  C397     1.0000 0.83710  0.72984  0.34511  Biso   1.000  C
  H271     1.0000 0.87380  0.73980  0.35730  Biso   1.000  H
  C398     1.0000 0.78530  0.68340  0.30780  Biso   1.000  C
  H272     1.0000 0.78590  0.66160  0.29560  Biso   1.000  H
  C399     1.0000 0.66660  0.93960  0.71510  Biso   1.000  C
  H273     1.0000 0.70680  0.93040  0.71990  Biso   1.000  H
  C400     1.0000 0.72900  0.70180  0.30830  Biso   1.000  C
  H274     1.0000 0.69280  0.69310  0.29440  Biso   1.000  H
  C401     1.0000 0.49380  0.69660  0.31033  Biso   1.000  C
  C402     1.0000 0.54750  0.68120  0.33160  Biso   1.000  C
  H275     1.0000 0.54440  0.65840  0.34180  Biso   1.000  H
  C403     1.0000 0.64790  0.90550  0.33291  Biso   1.000  C
  C404     1.0000 0.78280  0.74647  0.34700  Biso   1.000  C
  H276     1.0000 0.78260  0.76750  0.36030  Biso   1.000  H
  C405     1.0000 0.13270  0.31553  0.44888  Biso   1.000  C
  C406     1.0000 0.95160  0.68150  0.35088  Biso   1.000  C
  H277     1.0000 0.94900  0.69550  0.37060  Biso   1.000  H
  C407     1.0000 0.19850  0.41103  0.45637  Biso   1.000  C
  H278     1.0000 0.23720  0.42220  0.45910  Biso   1.000  H
  C408     1.0000 0.07970  0.29843  0.43260  Biso   1.000  C
  H279     1.0000 0.04520  0.31220  0.42280  Biso   1.000  H
  C409     1.0000 0.72580  0.73182  0.32867  Biso   1.000  C
  C410     1.0000 0.86240  0.11088  0.41488  Biso   1.000  C
  H280     1.0000 0.87960  0.11080  0.39460  Biso   1.000  H
  C411     1.0000 0.00580  0.66289  0.34963  Biso   1.000  C
  H281     1.0000 0.03810  0.66330  0.36890  Biso   1.000  H
  C412     1.0000 0.57280  0.01600  0.52777  Biso   1.000  C
  H282     1.0000 0.56010  0.99690  0.51240  Biso   1.000  H
  C413     1.0000 0.18200  0.29483  0.46314  Biso   1.000  C
  H283     1.0000 0.21850  0.30610  0.47390  Biso   1.000  H
  C414     1.0000 0.62920  0.92450  0.36049  Biso   1.000  C
  H284     1.0000 0.62020  0.91150  0.37960  Biso   1.000  H
  C415     1.0000 0.68940  0.84820  0.31140  Biso   1.000  C
  H285     1.0000 0.71010  0.86210  0.29710  Biso   1.000  H
  C416     1.0000 0.08380  0.37787  0.44820  Biso   1.000  C
  H286     1.0000 0.04460  0.36730  0.44540  Biso   1.000  H
  C417     1.0000 0.13630  0.35590  0.44991  Biso   1.000  C
  C418     1.0000 0.02860  0.19324  0.46660  Biso   1.000  C
  H287     1.0000 0.03970  0.21280  0.48170  Biso   1.000  H
  C419     1.0000 0.14730  0.43126  0.45514  Biso   1.000  C
  C420     1.0000 0.24510  0.13032  0.45458  Biso   1.000  C
  H288     1.0000 0.25500  0.10910  0.46740  Biso   1.000  H
  C421     1.0000 0.17710  0.18181  0.43942  Biso   1.000  C
  C422     1.0000 0.63880  0.98216  0.33361  Biso   1.000  C
  C423     1.0000 0.90070  0.68003  0.32374  Biso   1.000  C
  C424     1.0000 0.66800  0.78915  0.33180  Biso   1.000  C
  C425     1.0000 0.19310  0.14980  0.45856  Biso   1.000  C
  H289     1.0000 0.16850  0.14160  0.47410  Biso   1.000  H
  C426     1.0000 0.99510  0.13476  0.42196  Biso   1.000  C
  H290     1.0000 0.98490  0.11480  0.40720  Biso   1.000  H
  C427     1.0000 0.84010  0.69880  0.32583  Biso   1.000  C
  C428     1.0000 0.36300  0.12079  0.39716  Biso   1.000  C
  H291     1.0000 0.33800  0.12900  0.37660  Biso   1.000  H
  C429     1.0000 0.81640  0.10657  0.47510  Biso   1.000  C
  H292     1.0000 0.80250  0.10400  0.49630  Biso   1.000  H
  C430     1.0000 0.26700  0.17341  0.41261  Biso   1.000  C
  H293     1.0000 0.29140  0.18130  0.39680  Biso   1.000  H
  C431     1.0000 0.62370  0.96183  0.36022  Biso   1.000  C
  H294     1.0000 0.60940  0.97340  0.37860  Biso   1.000  H
  C432     1.0000 0.37870  0.10785  0.45900  Biso   1.000  C
  H295     1.0000 0.36500  0.10810  0.48040  Biso   1.000  H
  C433     1.0000 0.19380  0.37382  0.45367  Biso   1.000  C
  H296     1.0000 0.22960  0.36010  0.45430  Biso   1.000  H
  C434     1.0000 0.08990  0.41527  0.45073  Biso   1.000  C
  H297     1.0000 0.05470  0.42970  0.44940  Biso   1.000  H
  C435     1.0000 0.01240  0.64366  0.31985  Biso   1.000  C
  C436     1.0000 0.12600  0.23913  0.44468  Biso   1.000  C
  C437     1.0000 0.06710  0.18193  0.44440  Biso   1.000  C
  C438     1.0000 0.17910  0.25646  0.46195  Biso   1.000  C
  H298     1.0000 0.21300  0.24280  0.47280  Biso   1.000  H
  C439     1.0000 0.97310  0.17505  0.46610  Biso   1.000  C
  H299     1.0000 0.94730  0.18290  0.48110  Biso   1.000  H
  C440     1.0000 0.21520  0.19356  0.41662  Biso   1.000  C
  H300     1.0000 0.20590  0.21500  0.40400  Biso   1.000  H
  C441     1.0000 0.34200  0.12338  0.42897  Biso   1.000  C
  C442     1.0000 0.52190  0.07942  0.42434  Biso   1.000  C
  C443     1.0000 0.80520  0.09468  0.41341  Biso   1.000  C
  H301     1.0000 0.78290  0.08570  0.39240  Biso   1.000  H
  C444     1.0000 0.95420  0.14551  0.44416  Biso   1.000  C
  C445     1.0000 0.04900  0.15279  0.42151  Biso   1.000  C
  H302     1.0000 0.07420  0.14570  0.40580  Biso   1.000  H
  C446     1.0000 0.45740  0.09239  0.42535  Biso   1.000  C
  C447     1.0000 0.07070  0.62293  0.31750  Biso   1.000  C
  C448     1.0000 0.89580  0.12715  0.44459  Biso   1.000  C
  C449     1.0000 0.63490  0.02270  0.33396  Biso   1.000  C
  C450     1.0000 0.78180  0.09227  0.44475  Biso   1.000  C
  C451     1.0000 0.28310  0.14204  0.43150  Biso   1.000  C
  C452     1.0000 0.43570  0.09211  0.45662  Biso   1.000  C
  H303     1.0000 0.45930  0.08130  0.47640  Biso   1.000  H
  C453     1.0000 0.42020  0.10633  0.39586  Biso   1.000  C
  H304     1.0000 0.43420  0.10590  0.37460  Biso   1.000  H
  C454     1.0000 0.72010  0.07463  0.44520  Biso   1.000  C
  C455     1.0000 0.87100  0.12447  0.47447  Biso   1.000  C
  H305     1.0000 0.89200  0.13520  0.49500  Biso   1.000  H
  Zn20     1.0000 0.61440  0.07550  0.38180  Biso   1.000  Zn
  Zn21     1.0000 0.13050  0.53968  0.46840  Biso   1.000  Zn
  Zn22     1.0000 0.12563  0.58812  0.38477  Biso   1.000  Zn
  Zn23     1.0000 0.65771  0.08617  0.28847  Biso   1.000  Zn
  N21      1.0000 0.17020  0.25021  0.33023  Biso   1.000  N
  N22      1.0000 0.62370  0.70115  0.44356  Biso   1.000  N
  N23      1.0000 0.11370  0.53916  0.51926  Biso   1.000  N
  N24      1.0000 0.13230  0.43618  0.73899  Biso   1.000  N
  O61      1.0000 0.70820  0.14060  0.26990  Biso   1.000  O
  O62      1.0000 0.70320  0.98676  0.47265  Biso   1.000  O
  O63      1.0000 0.74460  0.09970  0.30544  Biso   1.000  O
  O64      1.0000 0.15880  0.53857  0.31212  Biso   1.000  O
  O65      1.0000 0.60240  0.99129  0.45092  Biso   1.000  O
  O66      1.0000 0.57664  0.11038  0.28814  Biso   1.000  O
  O67      1.0000 0.10970  0.53807  0.35574  Biso   1.000  O
  O68      1.0000 0.61300  0.11956  0.34442  Biso   1.000  O
  O69      1.0000 0.18962  0.56235  0.41686  Biso   1.000  O
  O70      1.0000 0.05254  0.56799  0.45170  Biso   1.000  O
  O71      1.0000 0.04014  0.58332  0.39563  Biso   1.000  O
  O72      1.0000 0.20356  0.57195  0.47415  Biso   1.000  O
  C456     1.0000 0.82180  0.17800  0.28190  Biso   1.000  C
  H306     1.0000 0.78630  0.18940  0.26980  Biso   1.000  H
  C457     1.0000 0.10740  0.56890  0.57320  Biso   1.000  C
  H307     1.0000 0.12170  0.58760  0.58890  Biso   1.000  H
  C458     1.0000 0.91960  0.14910  0.32130  Biso   1.000  C
  H308     1.0000 0.95090  0.13960  0.33840  Biso   1.000  H
  C459     1.0000 0.19460  0.31050  0.31060  Biso   1.000  C
  H309     1.0000 0.21700  0.29980  0.29510  Biso   1.000  H
  C460     1.0000 0.06600  0.52750  0.64336  Biso   1.000  C
  H310     1.0000 0.08520  0.53830  0.66430  Biso   1.000  H
  C461     1.0000 0.03690  0.54970  0.61330  Biso   1.000  C
  H311     1.0000 0.04030  0.57520  0.62010  Biso   1.000  H
  H312     1.0000 0.99310  0.54380  0.60760  Biso   1.000  H
  C462     1.0000 0.06510  0.54480  0.58030  Biso   1.000  C
  C463     1.0000 0.06390  0.48820  0.63965  Biso   1.000  C
  H313     1.0000 0.08820  0.48110  0.62220  Biso   1.000  H
  H314     1.0000 0.02130  0.48080  0.63110  Biso   1.000  H
  C464     1.0000 0.05220  0.46160  0.69680  Biso   1.000  C
  H315     1.0000 0.01020  0.46730  0.69100  Biso   1.000  H
  C465     1.0000 0.15810  0.42740  0.30500  Biso   1.000  C
  H316     1.0000 0.16830  0.41610  0.28540  Biso   1.000  H
  C466     1.0000 0.12600  0.34320  0.35370  Biso   1.000  C
  H317     1.0000 0.10050  0.35360  0.36770  Biso   1.000  H
  C467     1.0000 0.04800  0.51810  0.55710  Biso   1.000  C
  H318     1.0000 0.01890  0.50090  0.56110  Biso   1.000  H
  C468     1.0000 0.15370  0.46440  0.30510  Biso   1.000  C
  H319     1.0000 0.16080  0.47770  0.28580  Biso   1.000  H
  C469     1.0000 0.81600  0.14360  0.29565  Biso   1.000  C
  C470     1.0000 0.86320  0.13180  0.31610  Biso   1.000  C
  H320     1.0000 0.85970  0.11030  0.32830  Biso   1.000  H
  C471     1.0000 0.57690  0.76064  0.43040  Biso   1.000  C
  H321     1.0000 0.54050  0.74970  0.41900  Biso   1.000  H
  C472     1.0000 0.00480  0.22790  0.29550  Biso   1.000  C
  H322     1.0000 0.97260  0.23850  0.27970  Biso   1.000  H
  C473     1.0000 0.07470  0.44670  0.72880  Biso   1.000  C
  H323     1.0000 0.04740  0.44380  0.74440  Biso   1.000  H
  C474     1.0000 0.10160  0.19830  0.33740  Biso   1.000  C
  H324     1.0000 0.13480  0.18770  0.35250  Biso   1.000  H
  C475     1.0000 0.11060  0.23090  0.32220  Biso   1.000  C
  C476     1.0000 0.13450  0.30530  0.35440  Biso   1.000  C
  H325     1.0000 0.11750  0.29110  0.37020  Biso   1.000  H
  C477     1.0000 0.15490  0.36550  0.33249  Biso   1.000  C
  C478     1.0000 0.12940  0.56524  0.54120  Biso   1.000  C
  H326     1.0000 0.15690  0.58270  0.53580  Biso   1.000  H
  C479     1.0000 0.65210  0.97312  0.45996  Biso   1.000  C
  C480     1.0000 0.93300  0.17800  0.30417  Biso   1.000  C
  C481     1.0000 0.46280  0.14312  0.29212  Biso   1.000  C
  H327     1.0000 0.46670  0.13080  0.27170  Biso   1.000  H
  C482     1.0000 0.40840  0.16019  0.29395  Biso   1.000  C
  H328     1.0000 0.37550  0.15860  0.27500  Biso   1.000  H
  C483     1.0000 0.87750  0.19630  0.28540  Biso   1.000  C
  H329     1.0000 0.87970  0.21950  0.27600  Biso   1.000  H
  C484     1.0000 0.75310  0.12650  0.29010  Biso   1.000  C
  C485     1.0000 0.14720  0.45590  0.68340  Biso   1.000  C
  H330     1.0000 0.17490  0.45860  0.66810  Biso   1.000  H
  C486     1.0000 0.06110  0.24570  0.30190  Biso   1.000  C
  H331     1.0000 0.06470  0.26850  0.29190  Biso   1.000  H
  C487     1.0000 0.08850  0.46804  0.67393  Biso   1.000  C
  C488     1.0000 0.33710  0.22984  0.34511  Biso   1.000  C
  H332     1.0000 0.37380  0.23980  0.35730  Biso   1.000  H
  C489     1.0000 0.28530  0.18340  0.30780  Biso   1.000  C
  H333     1.0000 0.28590  0.16160  0.29560  Biso   1.000  H
  C490     1.0000 0.16660  0.43960  0.71510  Biso   1.000  C
  H334     1.0000 0.20680  0.43040  0.71990  Biso   1.000  H
  C491     1.0000 0.22900  0.20180  0.30830  Biso   1.000  C
  H335     1.0000 0.19280  0.19310  0.29440  Biso   1.000  H
  C492     1.0000 0.99380  0.19660  0.31033  Biso   1.000  C
  C493     1.0000 0.04750  0.18120  0.33160  Biso   1.000  C
  H336     1.0000 0.04440  0.15840  0.34180  Biso   1.000  H
  C494     1.0000 0.14790  0.40550  0.33291  Biso   1.000  C
  C495     1.0000 0.28280  0.24647  0.34700  Biso   1.000  C
  H337     1.0000 0.28260  0.26750  0.36030  Biso   1.000  H
  C496     1.0000 0.63270  0.81553  0.44888  Biso   1.000  C
  C497     1.0000 0.45160  0.18150  0.35088  Biso   1.000  C
  H338     1.0000 0.44900  0.19550  0.37060  Biso   1.000  H
  C498     1.0000 0.69850  0.91103  0.45637  Biso   1.000  C
  H339     1.0000 0.73720  0.92220  0.45910  Biso   1.000  H
  C499     1.0000 0.57970  0.79843  0.43260  Biso   1.000  C
  H340     1.0000 0.54520  0.81220  0.42280  Biso   1.000  H
  C500     1.0000 0.22580  0.23182  0.32867  Biso   1.000  C
  C501     1.0000 0.36240  0.61088  0.41488  Biso   1.000  C
  H341     1.0000 0.37960  0.61080  0.39460  Biso   1.000  H
  C502     1.0000 0.50580  0.16289  0.34963  Biso   1.000  C
  H342     1.0000 0.53810  0.16330  0.36890  Biso   1.000  H
  C503     1.0000 0.07280  0.51600  0.52777  Biso   1.000  C
  H343     1.0000 0.06010  0.49690  0.51240  Biso   1.000  H
  C504     1.0000 0.68200  0.79483  0.46314  Biso   1.000  C
  H344     1.0000 0.71850  0.80610  0.47390  Biso   1.000  H
  C505     1.0000 0.12920  0.42450  0.36049  Biso   1.000  C
  H345     1.0000 0.12020  0.41150  0.37960  Biso   1.000  H
  C506     1.0000 0.18940  0.34820  0.31140  Biso   1.000  C
  H346     1.0000 0.21010  0.36210  0.29710  Biso   1.000  H
  C507     1.0000 0.58380  0.87787  0.44820  Biso   1.000  C
  H347     1.0000 0.54460  0.86730  0.44540  Biso   1.000  H
  C508     1.0000 0.63630  0.85590  0.44991  Biso   1.000  C
  C509     1.0000 0.52860  0.69324  0.46660  Biso   1.000  C
  H348     1.0000 0.53970  0.71280  0.48170  Biso   1.000  H
  C510     1.0000 0.64730  0.93126  0.45514  Biso   1.000  C
  C511     1.0000 0.74510  0.63032  0.45458  Biso   1.000  C
  H349     1.0000 0.75500  0.60910  0.46740  Biso   1.000  H
  C512     1.0000 0.67710  0.68181  0.43942  Biso   1.000  C
  C513     1.0000 0.13880  0.48216  0.33361  Biso   1.000  C
  C514     1.0000 0.40070  0.18003  0.32374  Biso   1.000  C
  C515     1.0000 0.16800  0.28915  0.33180  Biso   1.000  C
  C516     1.0000 0.69310  0.64980  0.45856  Biso   1.000  C
  H350     1.0000 0.66850  0.64160  0.47410  Biso   1.000  H
  C517     1.0000 0.49510  0.63476  0.42196  Biso   1.000  C
  H351     1.0000 0.48490  0.61480  0.40720  Biso   1.000  H
  C518     1.0000 0.34010  0.19880  0.32583  Biso   1.000  C
  C519     1.0000 0.86300  0.62079  0.39716  Biso   1.000  C
  H352     1.0000 0.83800  0.62900  0.37660  Biso   1.000  H
  C520     1.0000 0.31640  0.60657  0.47510  Biso   1.000  C
  H353     1.0000 0.30250  0.60400  0.49630  Biso   1.000  H
  C521     1.0000 0.76700  0.67341  0.41261  Biso   1.000  C
  H354     1.0000 0.79140  0.68130  0.39680  Biso   1.000  H
  C522     1.0000 0.12370  0.46183  0.36022  Biso   1.000  C
  H355     1.0000 0.10940  0.47340  0.37860  Biso   1.000  H
  C523     1.0000 0.87870  0.60785  0.45900  Biso   1.000  C
  H356     1.0000 0.86500  0.60810  0.48040  Biso   1.000  H
  C524     1.0000 0.69380  0.87382  0.45367  Biso   1.000  C
  H357     1.0000 0.72960  0.86010  0.45430  Biso   1.000  H
  C525     1.0000 0.58990  0.91527  0.45073  Biso   1.000  C
  H358     1.0000 0.55470  0.92970  0.44940  Biso   1.000  H
  C526     1.0000 0.51240  0.14366  0.31985  Biso   1.000  C
  C527     1.0000 0.62600  0.73913  0.44468  Biso   1.000  C
  C528     1.0000 0.56710  0.68193  0.44440  Biso   1.000  C
  C529     1.0000 0.67910  0.75646  0.46195  Biso   1.000  C
  H359     1.0000 0.71300  0.74280  0.47280  Biso   1.000  H
  C530     1.0000 0.47310  0.67505  0.46610  Biso   1.000  C
  H360     1.0000 0.44730  0.68290  0.48110  Biso   1.000  H
  C531     1.0000 0.71520  0.69356  0.41662  Biso   1.000  C
  H361     1.0000 0.70590  0.71500  0.40400  Biso   1.000  H
  C532     1.0000 0.84200  0.62338  0.42897  Biso   1.000  C
  C533     1.0000 0.02190  0.57942  0.42434  Biso   1.000  C
  C534     1.0000 0.30520  0.59468  0.41341  Biso   1.000  C
  H362     1.0000 0.28290  0.58570  0.39240  Biso   1.000  H
  C535     1.0000 0.45420  0.64551  0.44416  Biso   1.000  C
  C536     1.0000 0.54900  0.65279  0.42151  Biso   1.000  C
  H363     1.0000 0.57420  0.64570  0.40580  Biso   1.000  H
  C537     1.0000 0.95740  0.59239  0.42535  Biso   1.000  C
  C538     1.0000 0.57070  0.12293  0.31750  Biso   1.000  C
  C539     1.0000 0.39580  0.62715  0.44459  Biso   1.000  C
  C540     1.0000 0.13490  0.52270  0.33396  Biso   1.000  C
  C541     1.0000 0.28180  0.59227  0.44475  Biso   1.000  C
  C542     1.0000 0.78310  0.64204  0.43150  Biso   1.000  C
  C543     1.0000 0.93570  0.59211  0.45662  Biso   1.000  C
  H364     1.0000 0.95930  0.58130  0.47640  Biso   1.000  H
  C544     1.0000 0.92020  0.60633  0.39586  Biso   1.000  C
  H365     1.0000 0.93420  0.60590  0.37460  Biso   1.000  H
  C545     1.0000 0.22010  0.57463  0.44520  Biso   1.000  C
  C546     1.0000 0.37100  0.62447  0.47447  Biso   1.000  C
  H366     1.0000 0.39200  0.63520  0.49500  Biso   1.000  H
  Zn24     1.0000 0.11440  0.57550  0.38180  Biso   1.000  Zn
  Zn25     1.0000 0.63050  0.96032  0.96840  Biso   1.000  Zn
  Zn26     1.0000 0.62563  0.91188  0.88477  Biso   1.000  Zn
  Zn27     1.0000 0.15771  0.41383  0.78847  Biso   1.000  Zn
  N25      1.0000 0.67020  0.24979  0.83023  Biso   1.000  N
  N26      1.0000 0.12370  0.79885  0.94356  Biso   1.000  N
  N27      1.0000 0.61370  0.96084  0.01926  Biso   1.000  N
  N28      1.0000 0.63230  0.06382  0.23899  Biso   1.000  N
  O73      1.0000 0.20820  0.35940  0.76990  Biso   1.000  O
  O74      1.0000 0.20320  0.51324  0.97265  Biso   1.000  O
  O75      1.0000 0.24460  0.40030  0.80544  Biso   1.000  O
  O76      1.0000 0.65880  0.96143  0.81212  Biso   1.000  O
  O77      1.0000 0.10240  0.50871  0.95092  Biso   1.000  O
  O78      1.0000 0.07664  0.38962  0.78814  Biso   1.000  O
  O79      1.0000 0.60970  0.96193  0.85574  Biso   1.000  O
  O80      1.0000 0.11300  0.38044  0.84442  Biso   1.000  O
  O81      1.0000 0.68962  0.93765  0.91686  Biso   1.000  O
  O82      1.0000 0.55254  0.93201  0.95170  Biso   1.000  O
  O83      1.0000 0.54014  0.91668  0.89563  Biso   1.000  O
  O84      1.0000 0.70356  0.92805  0.97415  Biso   1.000  O
  C547     1.0000 0.32180  0.32200  0.78190  Biso   1.000  C
  H367     1.0000 0.28630  0.31060  0.76980  Biso   1.000  H
  C548     1.0000 0.60740  0.93110  0.07320  Biso   1.000  C
  H368     1.0000 0.62170  0.91240  0.08890  Biso   1.000  H
  C549     1.0000 0.41960  0.35090  0.82130  Biso   1.000  C
  H369     1.0000 0.45090  0.36040  0.83840  Biso   1.000  H
  C550     1.0000 0.69460  0.18950  0.81060  Biso   1.000  C
  H370     1.0000 0.71700  0.20020  0.79510  Biso   1.000  H
  C551     1.0000 0.56600  0.97250  0.14336  Biso   1.000  C
  H371     1.0000 0.58520  0.96170  0.16430  Biso   1.000  H
  C552     1.0000 0.53690  0.95030  0.11330  Biso   1.000  C
  H372     1.0000 0.54030  0.92480  0.12010  Biso   1.000  H
  H373     1.0000 0.49310  0.95620  0.10760  Biso   1.000  H
  C553     1.0000 0.56510  0.95520  0.08030  Biso   1.000  C
  C554     1.0000 0.56390  0.01180  0.13965  Biso   1.000  C
  H374     1.0000 0.58820  0.01890  0.12220  Biso   1.000  H
  H375     1.0000 0.52130  0.01920  0.13110  Biso   1.000  H
  C555     1.0000 0.55220  0.03840  0.19680  Biso   1.000  C
  H376     1.0000 0.51020  0.03270  0.19100  Biso   1.000  H
  C556     1.0000 0.65810  0.07260  0.80500  Biso   1.000  C
  H377     1.0000 0.66830  0.08390  0.78540  Biso   1.000  H
  C557     1.0000 0.62600  0.15680  0.85370  Biso   1.000  C
  H378     1.0000 0.60050  0.14640  0.86770  Biso   1.000  H
  C558     1.0000 0.54800  0.98190  0.05710  Biso   1.000  C
  H379     1.0000 0.51890  0.99910  0.06110  Biso   1.000  H
  C559     1.0000 0.65370  0.03560  0.80510  Biso   1.000  C
  H380     1.0000 0.66080  0.02230  0.78580  Biso   1.000  H
  C560     1.0000 0.31600  0.35640  0.79565  Biso   1.000  C
  C561     1.0000 0.36320  0.36820  0.81610  Biso   1.000  C
  H381     1.0000 0.35970  0.38970  0.82830  Biso   1.000  H
  C562     1.0000 0.07690  0.73936  0.93040  Biso   1.000  C
  H382     1.0000 0.04050  0.75030  0.91900  Biso   1.000  H
  C563     1.0000 0.50480  0.27210  0.79550  Biso   1.000  C
  H383     1.0000 0.47260  0.26150  0.77970  Biso   1.000  H
  C564     1.0000 0.57470  0.05330  0.22880  Biso   1.000  C
  H384     1.0000 0.54740  0.05620  0.24440  Biso   1.000  H
  C565     1.0000 0.60160  0.30170  0.83740  Biso   1.000  C
  H385     1.0000 0.63480  0.31230  0.85250  Biso   1.000  H
  C566     1.0000 0.61060  0.26910  0.82220  Biso   1.000  C
  C567     1.0000 0.63450  0.19470  0.85440  Biso   1.000  C
  H386     1.0000 0.61750  0.20890  0.87020  Biso   1.000  H
  C568     1.0000 0.65490  0.13450  0.83249  Biso   1.000  C
  C569     1.0000 0.62940  0.93476  0.04120  Biso   1.000  C
  H387     1.0000 0.65690  0.91730  0.03580  Biso   1.000  H
  C570     1.0000 0.15210  0.52688  0.95996  Biso   1.000  C
  C571     1.0000 0.43300  0.32200  0.80417  Biso   1.000  C
  C572     1.0000 0.96280  0.35688  0.79212  Biso   1.000  C
  H388     1.0000 0.96670  0.36920  0.77170  Biso   1.000  H
  C573     1.0000 0.90840  0.33981  0.79395  Biso   1.000  C
  H389     1.0000 0.87550  0.34140  0.77500  Biso   1.000  H
  C574     1.0000 0.37750  0.30370  0.78540  Biso   1.000  C
  H390     1.0000 0.37970  0.28050  0.77600  Biso   1.000  H
  C575     1.0000 0.25310  0.37350  0.79010  Biso   1.000  C
  C576     1.0000 0.64720  0.04410  0.18340  Biso   1.000  C
  H391     1.0000 0.67490  0.04140  0.16810  Biso   1.000  H
  C577     1.0000 0.56110  0.25430  0.80190  Biso   1.000  C
  H392     1.0000 0.56470  0.23150  0.79190  Biso   1.000  H
  C578     1.0000 0.58850  0.03196  0.17393  Biso   1.000  C
  C579     1.0000 0.83710  0.27016  0.84511  Biso   1.000  C
  H393     1.0000 0.87380  0.26020  0.85730  Biso   1.000  H
  C580     1.0000 0.78530  0.31660  0.80780  Biso   1.000  C
  H394     1.0000 0.78590  0.33840  0.79560  Biso   1.000  H
  C581     1.0000 0.66660  0.06040  0.21510  Biso   1.000  C
  H395     1.0000 0.70680  0.06960  0.21990  Biso   1.000  H
  C582     1.0000 0.72900  0.29820  0.80830  Biso   1.000  C
  H396     1.0000 0.69280  0.30690  0.79440  Biso   1.000  H
  C583     1.0000 0.49380  0.30340  0.81033  Biso   1.000  C
  C584     1.0000 0.54750  0.31880  0.83160  Biso   1.000  C
  H397     1.0000 0.54440  0.34160  0.84180  Biso   1.000  H
  C585     1.0000 0.64790  0.09450  0.83291  Biso   1.000  C
  C586     1.0000 0.78280  0.25353  0.84700  Biso   1.000  C
  H398     1.0000 0.78260  0.23250  0.86030  Biso   1.000  H
  C587     1.0000 0.13270  0.68447  0.94888  Biso   1.000  C
  C588     1.0000 0.95160  0.31850  0.85088  Biso   1.000  C
  H399     1.0000 0.94900  0.30450  0.87060  Biso   1.000  H
  C589     1.0000 0.19850  0.58897  0.95637  Biso   1.000  C
  H400     1.0000 0.23720  0.57780  0.95910  Biso   1.000  H
  C590     1.0000 0.07970  0.70157  0.93260  Biso   1.000  C
  H401     1.0000 0.04520  0.68780  0.92280  Biso   1.000  H
  C591     1.0000 0.72580  0.26818  0.82867  Biso   1.000  C
  C592     1.0000 0.86240  0.88912  0.91488  Biso   1.000  C
  H402     1.0000 0.87960  0.88920  0.89460  Biso   1.000  H
  C593     1.0000 0.00580  0.33711  0.84963  Biso   1.000  C
  H403     1.0000 0.03810  0.33670  0.86890  Biso   1.000  H
  C594     1.0000 0.57280  0.98400  0.02777  Biso   1.000  C
  H404     1.0000 0.56010  0.00310  0.01240  Biso   1.000  H
  C595     1.0000 0.18200  0.70517  0.96314  Biso   1.000  C
  H405     1.0000 0.21850  0.69390  0.97390  Biso   1.000  H
  C596     1.0000 0.62920  0.07550  0.86049  Biso   1.000  C
  H406     1.0000 0.62020  0.08850  0.87960  Biso   1.000  H
  C597     1.0000 0.68940  0.15180  0.81140  Biso   1.000  C
  H407     1.0000 0.71010  0.13790  0.79710  Biso   1.000  H
  C598     1.0000 0.08380  0.62213  0.94820  Biso   1.000  C
  H408     1.0000 0.04460  0.63270  0.94540  Biso   1.000  H
  C599     1.0000 0.13630  0.64410  0.94991  Biso   1.000  C
  C600     1.0000 0.02860  0.80676  0.96660  Biso   1.000  C
  H409     1.0000 0.03970  0.78720  0.98170  Biso   1.000  H
  C601     1.0000 0.14730  0.56874  0.95514  Biso   1.000  C
  C602     1.0000 0.24510  0.86968  0.95458  Biso   1.000  C
  H410     1.0000 0.25500  0.89090  0.96740  Biso   1.000  H
  C603     1.0000 0.17710  0.81819  0.93942  Biso   1.000  C
  C604     1.0000 0.63880  0.01784  0.83361  Biso   1.000  C
  C605     1.0000 0.90070  0.31997  0.82374  Biso   1.000  C
  C606     1.0000 0.66800  0.21085  0.83180  Biso   1.000  C
  C607     1.0000 0.19310  0.85020  0.95856  Biso   1.000  C
  H411     1.0000 0.16850  0.85840  0.97410  Biso   1.000  H
  C608     1.0000 0.99510  0.86524  0.92196  Biso   1.000  C
  H412     1.0000 0.98490  0.88520  0.90720  Biso   1.000  H
  C609     1.0000 0.84010  0.30120  0.82583  Biso   1.000  C
  C610     1.0000 0.36300  0.87921  0.89716  Biso   1.000  C
  H413     1.0000 0.33800  0.87100  0.87660  Biso   1.000  H
  C611     1.0000 0.81640  0.89343  0.97510  Biso   1.000  C
  H414     1.0000 0.80250  0.89600  0.99630  Biso   1.000  H
  C612     1.0000 0.26700  0.82659  0.91261  Biso   1.000  C
  H415     1.0000 0.29140  0.81870  0.89680  Biso   1.000  H
  C613     1.0000 0.62370  0.03817  0.86022  Biso   1.000  C
  H416     1.0000 0.60940  0.02660  0.87860  Biso   1.000  H
  C614     1.0000 0.37870  0.89215  0.95900  Biso   1.000  C
  H417     1.0000 0.36500  0.89190  0.98040  Biso   1.000  H
  C615     1.0000 0.19380  0.62618  0.95367  Biso   1.000  C
  H418     1.0000 0.22960  0.63990  0.95430  Biso   1.000  H
  C616     1.0000 0.08990  0.58473  0.95073  Biso   1.000  C
  H419     1.0000 0.05470  0.57030  0.94940  Biso   1.000  H
  C617     1.0000 0.01240  0.35634  0.81985  Biso   1.000  C
  C618     1.0000 0.12600  0.76087  0.94468  Biso   1.000  C
  C619     1.0000 0.06710  0.81807  0.94440  Biso   1.000  C
  C620     1.0000 0.17910  0.74354  0.96195  Biso   1.000  C
  H420     1.0000 0.21300  0.75720  0.97280  Biso   1.000  H
  C621     1.0000 0.97310  0.82495  0.96610  Biso   1.000  C
  H421     1.0000 0.94730  0.81710  0.98110  Biso   1.000  H
  C622     1.0000 0.21520  0.80644  0.91662  Biso   1.000  C
  H422     1.0000 0.20590  0.78500  0.90400  Biso   1.000  H
  C623     1.0000 0.34200  0.87662  0.92897  Biso   1.000  C
  C624     1.0000 0.52190  0.92058  0.92434  Biso   1.000  C
  C625     1.0000 0.80520  0.90532  0.91341  Biso   1.000  C
  H423     1.0000 0.78290  0.91430  0.89240  Biso   1.000  H
  C626     1.0000 0.95420  0.85449  0.94416  Biso   1.000  C
  C627     1.0000 0.04900  0.84721  0.92151  Biso   1.000  C
  H424     1.0000 0.07420  0.85430  0.90580  Biso   1.000  H
  C628     1.0000 0.45740  0.90761  0.92535  Biso   1.000  C
  C629     1.0000 0.07070  0.37707  0.81750  Biso   1.000  C
  C630     1.0000 0.89580  0.87285  0.94459  Biso   1.000  C
  C631     1.0000 0.63490  0.97730  0.83396  Biso   1.000  C
  C632     1.0000 0.78180  0.90773  0.94475  Biso   1.000  C
  C633     1.0000 0.28310  0.85796  0.93150  Biso   1.000  C
  C634     1.0000 0.43570  0.90789  0.95662  Biso   1.000  C
  H425     1.0000 0.45930  0.91870  0.97640  Biso   1.000  H
  C635     1.0000 0.42020  0.89367  0.89586  Biso   1.000  C
  H426     1.0000 0.43420  0.89410  0.87460  Biso   1.000  H
  C636     1.0000 0.72010  0.92537  0.94520  Biso   1.000  C
  C637     1.0000 0.87100  0.87553  0.97447  Biso   1.000  C
  H427     1.0000 0.89200  0.86480  0.99500  Biso   1.000  H
  Zn28     1.0000 0.61440  0.92450  0.88180  Biso   1.000  Zn
  Zn29     1.0000 0.13050  0.46032  0.96840  Biso   1.000  Zn
  Zn30     1.0000 0.12563  0.41188  0.88477  Biso   1.000  Zn
  Zn31     1.0000 0.65771  0.91383  0.78847  Biso   1.000  Zn
  N29      1.0000 0.17020  0.74979  0.83023  Biso   1.000  N
  N30      1.0000 0.62370  0.29885  0.94356  Biso   1.000  N
  N31      1.0000 0.11370  0.46084  0.01926  Biso   1.000  N
  N32      1.0000 0.13230  0.56382  0.23899  Biso   1.000  N
  O85      1.0000 0.70820  0.85940  0.76990  Biso   1.000  O
  O86      1.0000 0.70320  0.01324  0.97265  Biso   1.000  O
  O87      1.0000 0.74460  0.90030  0.80544  Biso   1.000  O
  O88      1.0000 0.15880  0.46143  0.81212  Biso   1.000  O
  O89      1.0000 0.60240  0.00871  0.95092  Biso   1.000  O
  O90      1.0000 0.57664  0.88962  0.78814  Biso   1.000  O
  O91      1.0000 0.10970  0.46193  0.85574  Biso   1.000  O
  O92      1.0000 0.61300  0.88044  0.84442  Biso   1.000  O
  O93      1.0000 0.18962  0.43765  0.91686  Biso   1.000  O
  O94      1.0000 0.05254  0.43201  0.95170  Biso   1.000  O
  O95      1.0000 0.04014  0.41668  0.89563  Biso   1.000  O
  O96      1.0000 0.20356  0.42805  0.97415  Biso   1.000  O
  C638     1.0000 0.82180  0.82200  0.78190  Biso   1.000  C
  H428     1.0000 0.78630  0.81060  0.76980  Biso   1.000  H
  C639     1.0000 0.10740  0.43110  0.07320  Biso   1.000  C
  H429     1.0000 0.12170  0.41240  0.08890  Biso   1.000  H
  C640     1.0000 0.91960  0.85090  0.82130  Biso   1.000  C
  H430     1.0000 0.95090  0.86040  0.83840  Biso   1.000  H
  C641     1.0000 0.19460  0.68950  0.81060  Biso   1.000  C
  H431     1.0000 0.21700  0.70020  0.79510  Biso   1.000  H
  C642     1.0000 0.06600  0.47250  0.14336  Biso   1.000  C
  H432     1.0000 0.08520  0.46170  0.16430  Biso   1.000  H
  C643     1.0000 0.03690  0.45030  0.11330  Biso   1.000  C
  H433     1.0000 0.04030  0.42480  0.12010  Biso   1.000  H
  H434     1.0000 0.99310  0.45620  0.10760  Biso   1.000  H
  C644     1.0000 0.06510  0.45520  0.08030  Biso   1.000  C
  C645     1.0000 0.06390  0.51180  0.13965  Biso   1.000  C
  H435     1.0000 0.08820  0.51890  0.12220  Biso   1.000  H
  H436     1.0000 0.02130  0.51920  0.13110  Biso   1.000  H
  C646     1.0000 0.05220  0.53840  0.19680  Biso   1.000  C
  H437     1.0000 0.01020  0.53270  0.19100  Biso   1.000  H
  C647     1.0000 0.15810  0.57260  0.80500  Biso   1.000  C
  H438     1.0000 0.16830  0.58390  0.78540  Biso   1.000  H
  C648     1.0000 0.12600  0.65680  0.85370  Biso   1.000  C
  H439     1.0000 0.10050  0.64640  0.86770  Biso   1.000  H
  C649     1.0000 0.04800  0.48190  0.05710  Biso   1.000  C
  H440     1.0000 0.01890  0.49910  0.06110  Biso   1.000  H
  C650     1.0000 0.15370  0.53560  0.80510  Biso   1.000  C
  H441     1.0000 0.16080  0.52230  0.78580  Biso   1.000  H
  C651     1.0000 0.81600  0.85640  0.79565  Biso   1.000  C
  C652     1.0000 0.86320  0.86820  0.81610  Biso   1.000  C
  H442     1.0000 0.85970  0.88970  0.82830  Biso   1.000  H
  C653     1.0000 0.57690  0.23936  0.93040  Biso   1.000  C
  H443     1.0000 0.54050  0.25030  0.91900  Biso   1.000  H
  C654     1.0000 0.00480  0.77210  0.79550  Biso   1.000  C
  H444     1.0000 0.97260  0.76150  0.77970  Biso   1.000  H
  C655     1.0000 0.07470  0.55330  0.22880  Biso   1.000  C
  H445     1.0000 0.04740  0.55620  0.24440  Biso   1.000  H
  C656     1.0000 0.10160  0.80170  0.83740  Biso   1.000  C
  H446     1.0000 0.13480  0.81230  0.85250  Biso   1.000  H
  C657     1.0000 0.11060  0.76910  0.82220  Biso   1.000  C
  C658     1.0000 0.13450  0.69470  0.85440  Biso   1.000  C
  H447     1.0000 0.11750  0.70890  0.87020  Biso   1.000  H
  C659     1.0000 0.15490  0.63450  0.83249  Biso   1.000  C
  C660     1.0000 0.12940  0.43476  0.04120  Biso   1.000  C
  H448     1.0000 0.15690  0.41730  0.03580  Biso   1.000  H
  C661     1.0000 0.65210  0.02688  0.95996  Biso   1.000  C
  C662     1.0000 0.93300  0.82200  0.80417  Biso   1.000  C
  C663     1.0000 0.46280  0.85688  0.79212  Biso   1.000  C
  H449     1.0000 0.46670  0.86920  0.77170  Biso   1.000  H
  C664     1.0000 0.40840  0.83981  0.79395  Biso   1.000  C
  H450     1.0000 0.37550  0.84140  0.77500  Biso   1.000  H
  C665     1.0000 0.87750  0.80370  0.78540  Biso   1.000  C
  H451     1.0000 0.87970  0.78050  0.77600  Biso   1.000  H
  C666     1.0000 0.75310  0.87350  0.79010  Biso   1.000  C
  C667     1.0000 0.14720  0.54410  0.18340  Biso   1.000  C
  H452     1.0000 0.17490  0.54140  0.16810  Biso   1.000  H
  C668     1.0000 0.06110  0.75430  0.80190  Biso   1.000  C
  H453     1.0000 0.06470  0.73150  0.79190  Biso   1.000  H
  C669     1.0000 0.08850  0.53196  0.17393  Biso   1.000  C
  C670     1.0000 0.33710  0.77016  0.84511  Biso   1.000  C
  H454     1.0000 0.37380  0.76020  0.85730  Biso   1.000  H
  C671     1.0000 0.28530  0.81660  0.80780  Biso   1.000  C
  H455     1.0000 0.28590  0.83840  0.79560  Biso   1.000  H
  C672     1.0000 0.16660  0.56040  0.21510  Biso   1.000  C
  H456     1.0000 0.20680  0.56960  0.21990  Biso   1.000  H
  C673     1.0000 0.22900  0.79820  0.80830  Biso   1.000  C
  H457     1.0000 0.19280  0.80690  0.79440  Biso   1.000  H
  C674     1.0000 0.99380  0.80340  0.81033  Biso   1.000  C
  C675     1.0000 0.04750  0.81880  0.83160  Biso   1.000  C
  H458     1.0000 0.04440  0.84160  0.84180  Biso   1.000  H
  C676     1.0000 0.14790  0.59450  0.83291  Biso   1.000  C
  C677     1.0000 0.28280  0.75353  0.84700  Biso   1.000  C
  H459     1.0000 0.28260  0.73250  0.86030  Biso   1.000  H
  C678     1.0000 0.63270  0.18447  0.94888  Biso   1.000  C
  C679     1.0000 0.45160  0.81850  0.85088  Biso   1.000  C
  H460     1.0000 0.44900  0.80450  0.87060  Biso   1.000  H
  C680     1.0000 0.69850  0.08897  0.95637  Biso   1.000  C
  H461     1.0000 0.73720  0.07780  0.95910  Biso   1.000  H
  C681     1.0000 0.57970  0.20157  0.93260  Biso   1.000  C
  H462     1.0000 0.54520  0.18780  0.92280  Biso   1.000  H
  C682     1.0000 0.22580  0.76818  0.82867  Biso   1.000  C
  C683     1.0000 0.36240  0.38912  0.91488  Biso   1.000  C
  H463     1.0000 0.37960  0.38920  0.89460  Biso   1.000  H
  C684     1.0000 0.50580  0.83711  0.84963  Biso   1.000  C
  H464     1.0000 0.53810  0.83670  0.86890  Biso   1.000  H
  C685     1.0000 0.07280  0.48400  0.02777  Biso   1.000  C
  H465     1.0000 0.06010  0.50310  0.01240  Biso   1.000  H
  C686     1.0000 0.68200  0.20517  0.96314  Biso   1.000  C
  H466     1.0000 0.71850  0.19390  0.97390  Biso   1.000  H
  C687     1.0000 0.12920  0.57550  0.86049  Biso   1.000  C
  H467     1.0000 0.12020  0.58850  0.87960  Biso   1.000  H
  C688     1.0000 0.18940  0.65180  0.81140  Biso   1.000  C
  H468     1.0000 0.21010  0.63790  0.79710  Biso   1.000  H
  C689     1.0000 0.58380  0.12213  0.94820  Biso   1.000  C
  H469     1.0000 0.54460  0.13270  0.94540  Biso   1.000  H
  C690     1.0000 0.63630  0.14410  0.94991  Biso   1.000  C
  C691     1.0000 0.52860  0.30676  0.96660  Biso   1.000  C
  H470     1.0000 0.53970  0.28720  0.98170  Biso   1.000  H
  C692     1.0000 0.64730  0.06874  0.95514  Biso   1.000  C
  C693     1.0000 0.74510  0.36968  0.95458  Biso   1.000  C
  H471     1.0000 0.75500  0.39090  0.96740  Biso   1.000  H
  C694     1.0000 0.67710  0.31819  0.93942  Biso   1.000  C
  C695     1.0000 0.13880  0.51784  0.83361  Biso   1.000  C
  C696     1.0000 0.40070  0.81997  0.82374  Biso   1.000  C
  C697     1.0000 0.16800  0.71085  0.83180  Biso   1.000  C
  C698     1.0000 0.69310  0.35020  0.95856  Biso   1.000  C
  H472     1.0000 0.66850  0.35840  0.97410  Biso   1.000  H
  C699     1.0000 0.49510  0.36524  0.92196  Biso   1.000  C
  H473     1.0000 0.48490  0.38520  0.90720  Biso   1.000  H
  C700     1.0000 0.34010  0.80120  0.82583  Biso   1.000  C
  C701     1.0000 0.86300  0.37921  0.89716  Biso   1.000  C
  H474     1.0000 0.83800  0.37100  0.87660  Biso   1.000  H
  C702     1.0000 0.31640  0.39343  0.97510  Biso   1.000  C
  H475     1.0000 0.30250  0.39600  0.99630  Biso   1.000  H
  C703     1.0000 0.76700  0.32659  0.91261  Biso   1.000  C
  H476     1.0000 0.79140  0.31870  0.89680  Biso   1.000  H
  C704     1.0000 0.12370  0.53817  0.86022  Biso   1.000  C
  H477     1.0000 0.10940  0.52660  0.87860  Biso   1.000  H
  C705     1.0000 0.87870  0.39215  0.95900  Biso   1.000  C
  H478     1.0000 0.86500  0.39190  0.98040  Biso   1.000  H
  C706     1.0000 0.69380  0.12618  0.95367  Biso   1.000  C
  H479     1.0000 0.72960  0.13990  0.95430  Biso   1.000  H
  C707     1.0000 0.58990  0.08473  0.95073  Biso   1.000  C
  H480     1.0000 0.55470  0.07030  0.94940  Biso   1.000  H
  C708     1.0000 0.51240  0.85634  0.81985  Biso   1.000  C
  C709     1.0000 0.62600  0.26087  0.94468  Biso   1.000  C
  C710     1.0000 0.56710  0.31807  0.94440  Biso   1.000  C
  C711     1.0000 0.67910  0.24354  0.96195  Biso   1.000  C
  H481     1.0000 0.71300  0.25720  0.97280  Biso   1.000  H
  C712     1.0000 0.47310  0.32495  0.96610  Biso   1.000  C
  H482     1.0000 0.44730  0.31710  0.98110  Biso   1.000  H
  C713     1.0000 0.71520  0.30644  0.91662  Biso   1.000  C
  H483     1.0000 0.70590  0.28500  0.90400  Biso   1.000  H
  C714     1.0000 0.84200  0.37662  0.92897  Biso   1.000  C
  C715     1.0000 0.02190  0.42058  0.92434  Biso   1.000  C
  C716     1.0000 0.30520  0.40532  0.91341  Biso   1.000  C
  H484     1.0000 0.28290  0.41430  0.89240  Biso   1.000  H
  C717     1.0000 0.45420  0.35449  0.94416  Biso   1.000  C
  C718     1.0000 0.54900  0.34721  0.92151  Biso   1.000  C
  H485     1.0000 0.57420  0.35430  0.90580  Biso   1.000  H
  C719     1.0000 0.95740  0.40761  0.92535  Biso   1.000  C
  C720     1.0000 0.57070  0.87707  0.81750  Biso   1.000  C
  C721     1.0000 0.39580  0.37285  0.94459  Biso   1.000  C
  C722     1.0000 0.13490  0.47730  0.83396  Biso   1.000  C
  C723     1.0000 0.28180  0.40773  0.94475  Biso   1.000  C
  C724     1.0000 0.78310  0.35796  0.93150  Biso   1.000  C
  C725     1.0000 0.93570  0.40789  0.95662  Biso   1.000  C
  H486     1.0000 0.95930  0.41870  0.97640  Biso   1.000  H
  C726     1.0000 0.92020  0.39367  0.89586  Biso   1.000  C
  H487     1.0000 0.93420  0.39410  0.87460  Biso   1.000  H
  C727     1.0000 0.22010  0.42537  0.94520  Biso   1.000  C
  C728     1.0000 0.37100  0.37553  0.97447  Biso   1.000  C
  H488     1.0000 0.39200  0.36480  0.99500  Biso   1.000  H
  Zn32     1.0000 0.11440  0.42450  0.88180  Biso   1.000  Zn
