data_image0
_cell_length_a       21.9367
_cell_length_b       21.9367
_cell_length_c       16.3377
_cell_angle_alpha    90
_cell_angle_beta     90
_cell_angle_gamma    90

_symmetry_space_group_name_H-M    "P 1"
_symmetry_int_tables_number       1

loop_
  _symmetry_equiv_pos_as_xyz
  'x, y, z'

loop_
  _atom_site_label
  _atom_site_occupancy
  _atom_site_fract_x
  _atom_site_fract_y
  _atom_site_fract_z
  _atom_site_thermal_displace_type
  _atom_site_B_iso_or_equiv
  _atom_site_type_symbol
  Cd1      1.0000 0.08029  0.51124  0.04089  Biso   1.000  Cd
  O1       1.0000 0.08621  0.41788  0.95840  Biso   1.000  O
  O2       1.0000 0.11760  0.32250  0.96390  Biso   1.000  O
  O3       1.0000 0.17460  0.25674  0.05790  Biso   1.000  O
  O4       1.0000 0.21814  0.26395  0.17970  Biso   1.000  O
  N1       1.0000 0.13263  0.44364  0.11210  Biso   1.000  N
  N2       1.0000 0.18360  0.38299  0.19810  Biso   1.000  N
  C1       1.0000 0.11180  0.37590  0.99460  Biso   1.000  C
  C2       1.0000 0.18850  0.28590  0.12160  Biso   1.000  C
  C3       1.0000 0.13870  0.38770  0.07650  Biso   1.000  C
  C4       1.0000 0.17050  0.35040  0.12850  Biso   1.000  C
  C5       1.0000 0.15960  0.43830  0.18580  Biso   1.000  C
  C6       1.0000 0.16100  0.48850  0.24560  Biso   1.000  C
  C7       1.0000 0.11260  0.52280  0.25840  Biso   1.000  C
  H1       1.0000 0.07640  0.51440  0.23100  Biso   1.000  H
  C8       1.0000 0.11530  0.57260  0.31390  Biso   1.000  C
  H2       1.0000 0.08100  0.59720  0.31880  Biso   1.000  H
  C9       1.0000 0.16300  0.58600  0.35860  Biso   1.000  C
  C10      1.0000 0.21720  0.54710  0.34710  Biso   1.000  C
  H3       1.0000 0.25210  0.55370  0.37800  Biso   1.000  H
  C11      1.0000 0.21550  0.50080  0.28980  Biso   1.000  C
  H4       1.0000 0.25020  0.47760  0.28010  Biso   1.000  H
  C12      1.0000 0.16160  0.63970  0.41740  Biso   1.000  C
  C13      1.0000 0.10440  0.67430  0.42430  Biso   1.000  C
  H5       1.0000 0.09230  0.69230  0.37330  Biso   1.000  H
  H6       1.0000 0.10930  0.70560  0.46480  Biso   1.000  H
  H7       1.0000 0.07360  0.64610  0.44200  Biso   1.000  H
  C14      1.0000 0.17900  0.62010  0.50030  Biso   1.000  C
  H8       1.0000 0.14490  0.61380  0.53600  Biso   1.000  H
  H9       1.0000 0.20560  0.65020  0.52340  Biso   1.000  H
  H10      1.0000 0.20080  0.58250  0.49370  Biso   1.000  H
  C15      1.0000 0.20880  0.68220  0.38830  Biso   1.000  C
  H11      1.0000 0.24930  0.66760  0.39900  Biso   1.000  H
  H12      1.0000 0.20330  0.72110  0.41420  Biso   1.000  H
  H13      1.0000 0.20300  0.68630  0.33040  Biso   1.000  H
  C16      1.0000 0.15990  0.55090  0.21710  Biso   1.000  C
  H14      1.0000 0.15950  0.55860  0.16110  Biso   1.000  H
  C17      1.0000 0.15930  0.60000  0.27170  Biso   1.000  C
  H15      1.0000 0.15650  0.64000  0.25320  Biso   1.000  H
  C18      1.0000 0.15640  0.53220  0.38280  Biso   1.000  C
  H16      1.0000 0.15120  0.52510  0.43840  Biso   1.000  H
  C19      1.0000 0.15650  0.48000  0.32650  Biso   1.000  C
  H17      1.0000 0.15340  0.44070  0.34720  Biso   1.000  H
  C20      1.0000 0.14300  0.69920  0.38440  Biso   1.000  C
  H18      1.0000 0.17110  0.71480  0.34440  Biso   1.000  H
  H19      1.0000 0.13780  0.72870  0.42720  Biso   1.000  H
  H20      1.0000 0.10440  0.69140  0.35870  Biso   1.000  H
  C21      1.0000 0.11530  0.62530  0.47970  Biso   1.000  C
  H21      1.0000 0.07370  0.63230  0.46370  Biso   1.000  H
  H22      1.0000 0.12440  0.64900  0.52750  Biso   1.000  H
  H23      1.0000 0.12090  0.58280  0.49170  Biso   1.000  H
  C22      1.0000 0.21740  0.65230  0.46440  Biso   1.000  C
  H24      1.0000 0.22890  0.62170  0.50340  Biso   1.000  H
  H25      1.0000 0.21300  0.69080  0.49160  Biso   1.000  H
  H26      1.0000 0.24830  0.65550  0.42300  Biso   1.000  H
  Cd2      1.0000 0.58029  0.01124  0.54089  Biso   1.000  Cd
  O5       1.0000 0.58621  0.91788  0.45840  Biso   1.000  O
  O6       1.0000 0.61760  0.82250  0.46390  Biso   1.000  O
  O7       1.0000 0.67460  0.75674  0.55790  Biso   1.000  O
  O8       1.0000 0.71814  0.76395  0.67970  Biso   1.000  O
  N3       1.0000 0.63263  0.94364  0.61210  Biso   1.000  N
  N4       1.0000 0.68360  0.88299  0.69810  Biso   1.000  N
  C23      1.0000 0.61180  0.87590  0.49460  Biso   1.000  C
  C24      1.0000 0.68850  0.78590  0.62160  Biso   1.000  C
  C25      1.0000 0.63870  0.88770  0.57650  Biso   1.000  C
  C26      1.0000 0.67050  0.85040  0.62850  Biso   1.000  C
  C27      1.0000 0.65960  0.93830  0.68580  Biso   1.000  C
  C28      1.0000 0.66100  0.98850  0.74560  Biso   1.000  C
  C29      1.0000 0.61260  0.02280  0.75840  Biso   1.000  C
  H27      1.0000 0.57640  0.01440  0.73100  Biso   1.000  H
  C30      1.0000 0.61530  0.07260  0.81390  Biso   1.000  C
  H28      1.0000 0.58100  0.09720  0.81880  Biso   1.000  H
  C31      1.0000 0.66300  0.08600  0.85860  Biso   1.000  C
  C32      1.0000 0.71720  0.04710  0.84710  Biso   1.000  C
  H29      1.0000 0.75210  0.05370  0.87800  Biso   1.000  H
  C33      1.0000 0.71550  0.00080  0.78980  Biso   1.000  C
  H30      1.0000 0.75020  0.97760  0.78010  Biso   1.000  H
  C34      1.0000 0.66160  0.13970  0.91740  Biso   1.000  C
  C35      1.0000 0.60440  0.17430  0.92430  Biso   1.000  C
  H31      1.0000 0.59230  0.19230  0.87330  Biso   1.000  H
  H32      1.0000 0.60930  0.20560  0.96480  Biso   1.000  H
  H33      1.0000 0.57360  0.14610  0.94200  Biso   1.000  H
  C36      1.0000 0.67900  0.12010  0.00030  Biso   1.000  C
  H34      1.0000 0.64490  0.11380  0.03600  Biso   1.000  H
  H35      1.0000 0.70560  0.15020  0.02340  Biso   1.000  H
  H36      1.0000 0.70080  0.08250  0.99370  Biso   1.000  H
  C37      1.0000 0.70880  0.18220  0.88830  Biso   1.000  C
  H37      1.0000 0.74930  0.16760  0.89900  Biso   1.000  H
  H38      1.0000 0.70330  0.22110  0.91420  Biso   1.000  H
  H39      1.0000 0.70300  0.18630  0.83040  Biso   1.000  H
  C38      1.0000 0.65990  0.05090  0.71710  Biso   1.000  C
  H40      1.0000 0.65950  0.05860  0.66110  Biso   1.000  H
  C39      1.0000 0.65930  0.10000  0.77170  Biso   1.000  C
  H41      1.0000 0.65650  0.14000  0.75320  Biso   1.000  H
  C40      1.0000 0.65640  0.03220  0.88280  Biso   1.000  C
  H42      1.0000 0.65120  0.02510  0.93840  Biso   1.000  H
  C41      1.0000 0.65650  0.98000  0.82650  Biso   1.000  C
  H43      1.0000 0.65340  0.94070  0.84720  Biso   1.000  H
  C42      1.0000 0.64300  0.19920  0.88440  Biso   1.000  C
  H44      1.0000 0.67110  0.21480  0.84440  Biso   1.000  H
  H45      1.0000 0.63780  0.22870  0.92720  Biso   1.000  H
  H46      1.0000 0.60440  0.19140  0.85870  Biso   1.000  H
  C43      1.0000 0.61530  0.12530  0.97970  Biso   1.000  C
  H47      1.0000 0.57370  0.13230  0.96370  Biso   1.000  H
  H48      1.0000 0.62440  0.14900  0.02750  Biso   1.000  H
  H49      1.0000 0.62090  0.08280  0.99170  Biso   1.000  H
  C44      1.0000 0.71740  0.15230  0.96440  Biso   1.000  C
  H50      1.0000 0.72890  0.12170  0.00340  Biso   1.000  H
  H51      1.0000 0.71300  0.19080  0.99160  Biso   1.000  H
  H52      1.0000 0.74830  0.15550  0.92300  Biso   1.000  H
  Cd3      1.0000 0.41971  0.48876  0.54089  Biso   1.000  Cd
  O9       1.0000 0.41379  0.58212  0.45840  Biso   1.000  O
  O10      1.0000 0.38240  0.67750  0.46390  Biso   1.000  O
  O11      1.0000 0.32540  0.74326  0.55790  Biso   1.000  O
  O12      1.0000 0.28186  0.73605  0.67970  Biso   1.000  O
  N5       1.0000 0.36737  0.55636  0.61210  Biso   1.000  N
  N6       1.0000 0.31640  0.61701  0.69810  Biso   1.000  N
  C45      1.0000 0.38820  0.62410  0.49460  Biso   1.000  C
  C46      1.0000 0.31150  0.71410  0.62160  Biso   1.000  C
  C47      1.0000 0.36130  0.61230  0.57650  Biso   1.000  C
  C48      1.0000 0.32950  0.64960  0.62850  Biso   1.000  C
  C49      1.0000 0.34040  0.56170  0.68580  Biso   1.000  C
  C50      1.0000 0.33900  0.51150  0.74560  Biso   1.000  C
  C51      1.0000 0.38740  0.47720  0.75840  Biso   1.000  C
  H53      1.0000 0.42360  0.48560  0.73100  Biso   1.000  H
  C52      1.0000 0.38470  0.42740  0.81390  Biso   1.000  C
  H54      1.0000 0.41900  0.40280  0.81880  Biso   1.000  H
  C53      1.0000 0.33700  0.41400  0.85860  Biso   1.000  C
  C54      1.0000 0.28280  0.45290  0.84710  Biso   1.000  C
  H55      1.0000 0.24790  0.44630  0.87800  Biso   1.000  H
  C55      1.0000 0.28450  0.49920  0.78980  Biso   1.000  C
  H56      1.0000 0.24980  0.52240  0.78010  Biso   1.000  H
  C56      1.0000 0.33840  0.36030  0.91740  Biso   1.000  C
  C57      1.0000 0.39560  0.32570  0.92430  Biso   1.000  C
  H57      1.0000 0.40770  0.30770  0.87330  Biso   1.000  H
  H58      1.0000 0.39070  0.29440  0.96480  Biso   1.000  H
  H59      1.0000 0.42640  0.35390  0.94200  Biso   1.000  H
  C58      1.0000 0.32100  0.37990  0.00030  Biso   1.000  C
  H60      1.0000 0.35510  0.38620  0.03600  Biso   1.000  H
  H61      1.0000 0.29440  0.34980  0.02340  Biso   1.000  H
  H62      1.0000 0.29920  0.41750  0.99370  Biso   1.000  H
  C59      1.0000 0.29120  0.31780  0.88830  Biso   1.000  C
  H63      1.0000 0.25070  0.33240  0.89900  Biso   1.000  H
  H64      1.0000 0.29670  0.27890  0.91420  Biso   1.000  H
  H65      1.0000 0.29700  0.31370  0.83040  Biso   1.000  H
  C60      1.0000 0.34010  0.44910  0.71710  Biso   1.000  C
  H66      1.0000 0.34050  0.44140  0.66110  Biso   1.000  H
  C61      1.0000 0.34070  0.40000  0.77170  Biso   1.000  C
  H67      1.0000 0.34350  0.36000  0.75320  Biso   1.000  H
  C62      1.0000 0.34360  0.46780  0.88280  Biso   1.000  C
  H68      1.0000 0.34880  0.47490  0.93840  Biso   1.000  H
  C63      1.0000 0.34350  0.52000  0.82650  Biso   1.000  C
  H69      1.0000 0.34660  0.55930  0.84720  Biso   1.000  H
  C64      1.0000 0.35700  0.30080  0.88440  Biso   1.000  C
  H70      1.0000 0.32890  0.28520  0.84440  Biso   1.000  H
  H71      1.0000 0.36220  0.27130  0.92720  Biso   1.000  H
  H72      1.0000 0.39560  0.30860  0.85870  Biso   1.000  H
  C65      1.0000 0.38470  0.37470  0.97970  Biso   1.000  C
  H73      1.0000 0.42630  0.36770  0.96370  Biso   1.000  H
  H74      1.0000 0.37560  0.35100  0.02750  Biso   1.000  H
  H75      1.0000 0.37910  0.41720  0.99170  Biso   1.000  H
  C66      1.0000 0.28260  0.34770  0.96440  Biso   1.000  C
  H76      1.0000 0.27110  0.37830  0.00340  Biso   1.000  H
  H77      1.0000 0.28700  0.30920  0.99160  Biso   1.000  H
  H78      1.0000 0.25170  0.34450  0.92300  Biso   1.000  H
  Cd4      1.0000 0.91971  0.98876  0.04089  Biso   1.000  Cd
  O13      1.0000 0.91379  0.08212  0.95840  Biso   1.000  O
  O14      1.0000 0.88240  0.17750  0.96390  Biso   1.000  O
  O15      1.0000 0.82540  0.24326  0.05790  Biso   1.000  O
  O16      1.0000 0.78186  0.23605  0.17970  Biso   1.000  O
  N7       1.0000 0.86737  0.05636  0.11210  Biso   1.000  N
  N8       1.0000 0.81640  0.11701  0.19810  Biso   1.000  N
  C67      1.0000 0.88820  0.12410  0.99460  Biso   1.000  C
  C68      1.0000 0.81150  0.21410  0.12160  Biso   1.000  C
  C69      1.0000 0.86130  0.11230  0.07650  Biso   1.000  C
  C70      1.0000 0.82950  0.14960  0.12850  Biso   1.000  C
  C71      1.0000 0.84040  0.06170  0.18580  Biso   1.000  C
  C72      1.0000 0.83900  0.01150  0.24560  Biso   1.000  C
  C73      1.0000 0.88740  0.97720  0.25840  Biso   1.000  C
  H79      1.0000 0.92360  0.98560  0.23100  Biso   1.000  H
  C74      1.0000 0.88470  0.92740  0.31390  Biso   1.000  C
  H80      1.0000 0.91900  0.90280  0.31880  Biso   1.000  H
  C75      1.0000 0.83700  0.91400  0.35860  Biso   1.000  C
  C76      1.0000 0.78280  0.95290  0.34710  Biso   1.000  C
  H81      1.0000 0.74790  0.94630  0.37800  Biso   1.000  H
  C77      1.0000 0.78450  0.99920  0.28980  Biso   1.000  C
  H82      1.0000 0.74980  0.02240  0.28010  Biso   1.000  H
  C78      1.0000 0.83840  0.86030  0.41740  Biso   1.000  C
  C79      1.0000 0.89560  0.82570  0.42430  Biso   1.000  C
  H83      1.0000 0.90770  0.80770  0.37330  Biso   1.000  H
  H84      1.0000 0.89070  0.79440  0.46480  Biso   1.000  H
  H85      1.0000 0.92640  0.85390  0.44200  Biso   1.000  H
  C80      1.0000 0.82100  0.87990  0.50030  Biso   1.000  C
  H86      1.0000 0.85510  0.88620  0.53600  Biso   1.000  H
  H87      1.0000 0.79440  0.84980  0.52340  Biso   1.000  H
  H88      1.0000 0.79920  0.91750  0.49370  Biso   1.000  H
  C81      1.0000 0.79120  0.81780  0.38830  Biso   1.000  C
  H89      1.0000 0.75070  0.83240  0.39900  Biso   1.000  H
  H90      1.0000 0.79670  0.77890  0.41420  Biso   1.000  H
  H91      1.0000 0.79700  0.81370  0.33040  Biso   1.000  H
  C82      1.0000 0.84010  0.94910  0.21710  Biso   1.000  C
  H92      1.0000 0.84050  0.94140  0.16110  Biso   1.000  H
  C83      1.0000 0.84070  0.90000  0.27170  Biso   1.000  C
  H93      1.0000 0.84350  0.86000  0.25320  Biso   1.000  H
  C84      1.0000 0.84360  0.96780  0.38280  Biso   1.000  C
  H94      1.0000 0.84880  0.97490  0.43840  Biso   1.000  H
  C85      1.0000 0.84350  0.02000  0.32650  Biso   1.000  C
  H95      1.0000 0.84660  0.05930  0.34720  Biso   1.000  H
  C86      1.0000 0.85700  0.80080  0.38440  Biso   1.000  C
  H96      1.0000 0.82890  0.78520  0.34440  Biso   1.000  H
  H97      1.0000 0.86220  0.77130  0.42720  Biso   1.000  H
  H98      1.0000 0.89560  0.80860  0.35870  Biso   1.000  H
  C87      1.0000 0.88470  0.87470  0.47970  Biso   1.000  C
  H99      1.0000 0.92630  0.86770  0.46370  Biso   1.000  H
  H100     1.0000 0.87560  0.85100  0.52750  Biso   1.000  H
  H101     1.0000 0.87910  0.91720  0.49170  Biso   1.000  H
  C88      1.0000 0.78260  0.84770  0.46440  Biso   1.000  C
  H102     1.0000 0.77110  0.87830  0.50340  Biso   1.000  H
  H103     1.0000 0.78700  0.80920  0.49160  Biso   1.000  H
  H104     1.0000 0.75170  0.84450  0.42300  Biso   1.000  H
  Cd5      1.0000 0.23876  0.33029  0.29089  Biso   1.000  Cd
  O17      1.0000 0.33212  0.33621  0.20840  Biso   1.000  O
  O18      1.0000 0.42750  0.36760  0.21390  Biso   1.000  O
  O19      1.0000 0.49326  0.42460  0.30790  Biso   1.000  O
  O20      1.0000 0.48605  0.46814  0.42970  Biso   1.000  O
  N9       1.0000 0.30636  0.38263  0.36210  Biso   1.000  N
  N10      1.0000 0.36701  0.43360  0.44810  Biso   1.000  N
  C89      1.0000 0.37410  0.36180  0.24460  Biso   1.000  C
  C90      1.0000 0.46410  0.43850  0.37160  Biso   1.000  C
  C91      1.0000 0.36230  0.38870  0.32650  Biso   1.000  C
  C92      1.0000 0.39960  0.42050  0.37850  Biso   1.000  C
  C93      1.0000 0.31170  0.40960  0.43580  Biso   1.000  C
  C94      1.0000 0.26150  0.41100  0.49560  Biso   1.000  C
  C95      1.0000 0.22720  0.36260  0.50840  Biso   1.000  C
  H105     1.0000 0.23560  0.32640  0.48100  Biso   1.000  H
  C96      1.0000 0.17740  0.36530  0.56390  Biso   1.000  C
  H106     1.0000 0.15280  0.33100  0.56880  Biso   1.000  H
  C97      1.0000 0.16400  0.41300  0.60860  Biso   1.000  C
  C98      1.0000 0.20290  0.46720  0.59710  Biso   1.000  C
  H107     1.0000 0.19630  0.50210  0.62800  Biso   1.000  H
  C99      1.0000 0.24920  0.46550  0.53980  Biso   1.000  C
  H108     1.0000 0.27240  0.50020  0.53010  Biso   1.000  H
  C100     1.0000 0.11030  0.41160  0.66740  Biso   1.000  C
  C101     1.0000 0.07570  0.35440  0.67430  Biso   1.000  C
  H109     1.0000 0.05770  0.34230  0.62330  Biso   1.000  H
  H110     1.0000 0.04440  0.35930  0.71480  Biso   1.000  H
  H111     1.0000 0.10390  0.32360  0.69200  Biso   1.000  H
  C102     1.0000 0.12990  0.42900  0.75030  Biso   1.000  C
  H112     1.0000 0.13620  0.39490  0.78600  Biso   1.000  H
  H113     1.0000 0.09980  0.45560  0.77340  Biso   1.000  H
  H114     1.0000 0.16750  0.45080  0.74370  Biso   1.000  H
  C103     1.0000 0.06780  0.45880  0.63830  Biso   1.000  C
  H115     1.0000 0.08240  0.49930  0.64900  Biso   1.000  H
  H116     1.0000 0.02890  0.45330  0.66420  Biso   1.000  H
  H117     1.0000 0.06370  0.45300  0.58040  Biso   1.000  H
  C104     1.0000 0.19910  0.40990  0.46710  Biso   1.000  C
  H118     1.0000 0.19140  0.40950  0.41110  Biso   1.000  H
  C105     1.0000 0.15000  0.40930  0.52170  Biso   1.000  C
  H119     1.0000 0.11000  0.40650  0.50320  Biso   1.000  H
  C106     1.0000 0.21780  0.40640  0.63280  Biso   1.000  C
  H120     1.0000 0.22490  0.40120  0.68840  Biso   1.000  H
  C107     1.0000 0.27000  0.40650  0.57650  Biso   1.000  C
  H121     1.0000 0.30930  0.40340  0.59720  Biso   1.000  H
  C108     1.0000 0.05080  0.39300  0.63440  Biso   1.000  C
  H122     1.0000 0.03520  0.42110  0.59440  Biso   1.000  H
  H123     1.0000 0.02130  0.38780  0.67720  Biso   1.000  H
  H124     1.0000 0.05860  0.35440  0.60870  Biso   1.000  H
  C109     1.0000 0.12470  0.36530  0.72970  Biso   1.000  C
  H125     1.0000 0.11770  0.32370  0.71370  Biso   1.000  H
  H126     1.0000 0.10100  0.37440  0.77750  Biso   1.000  H
  H127     1.0000 0.16720  0.37090  0.74170  Biso   1.000  H
  C110     1.0000 0.09770  0.46740  0.71440  Biso   1.000  C
  H128     1.0000 0.12830  0.47890  0.75340  Biso   1.000  H
  H129     1.0000 0.05920  0.46300  0.74160  Biso   1.000  H
  H130     1.0000 0.09450  0.49830  0.67300  Biso   1.000  H
  Cd6      1.0000 0.73876  0.83029  0.79089  Biso   1.000  Cd
  O21      1.0000 0.83212  0.83621  0.70840  Biso   1.000  O
  O22      1.0000 0.92750  0.86760  0.71390  Biso   1.000  O
  O23      1.0000 0.99326  0.92460  0.80790  Biso   1.000  O
  O24      1.0000 0.98605  0.96814  0.92970  Biso   1.000  O
  N11      1.0000 0.80636  0.88263  0.86210  Biso   1.000  N
  N12      1.0000 0.86701  0.93360  0.94810  Biso   1.000  N
  C111     1.0000 0.87410  0.86180  0.74460  Biso   1.000  C
  C112     1.0000 0.96410  0.93850  0.87160  Biso   1.000  C
  C113     1.0000 0.86230  0.88870  0.82650  Biso   1.000  C
  C114     1.0000 0.89960  0.92050  0.87850  Biso   1.000  C
  C115     1.0000 0.81170  0.90960  0.93580  Biso   1.000  C
  C116     1.0000 0.76150  0.91100  0.99560  Biso   1.000  C
  C117     1.0000 0.72720  0.86260  0.00840  Biso   1.000  C
  H131     1.0000 0.73560  0.82640  0.98100  Biso   1.000  H
  C118     1.0000 0.67740  0.86530  0.06390  Biso   1.000  C
  H132     1.0000 0.65280  0.83100  0.06880  Biso   1.000  H
  C119     1.0000 0.66400  0.91300  0.10860  Biso   1.000  C
  C120     1.0000 0.70290  0.96720  0.09710  Biso   1.000  C
  H133     1.0000 0.69630  0.00210  0.12800  Biso   1.000  H
  C121     1.0000 0.74920  0.96550  0.03980  Biso   1.000  C
  H134     1.0000 0.77240  0.00020  0.03010  Biso   1.000  H
  C122     1.0000 0.61030  0.91160  0.16740  Biso   1.000  C
  C123     1.0000 0.57570  0.85440  0.17430  Biso   1.000  C
  H135     1.0000 0.55770  0.84230  0.12330  Biso   1.000  H
  H136     1.0000 0.54440  0.85930  0.21480  Biso   1.000  H
  H137     1.0000 0.60390  0.82360  0.19200  Biso   1.000  H
  C124     1.0000 0.62990  0.92900  0.25030  Biso   1.000  C
  H138     1.0000 0.63620  0.89490  0.28600  Biso   1.000  H
  H139     1.0000 0.59980  0.95560  0.27340  Biso   1.000  H
  H140     1.0000 0.66750  0.95080  0.24370  Biso   1.000  H
  C125     1.0000 0.56780  0.95880  0.13830  Biso   1.000  C
  H141     1.0000 0.58240  0.99930  0.14900  Biso   1.000  H
  H142     1.0000 0.52890  0.95330  0.16420  Biso   1.000  H
  H143     1.0000 0.56370  0.95300  0.08040  Biso   1.000  H
  C126     1.0000 0.69910  0.90990  0.96710  Biso   1.000  C
  H144     1.0000 0.69140  0.90950  0.91110  Biso   1.000  H
  C127     1.0000 0.65000  0.90930  0.02170  Biso   1.000  C
  H145     1.0000 0.61000  0.90650  0.00320  Biso   1.000  H
  C128     1.0000 0.71780  0.90640  0.13280  Biso   1.000  C
  H146     1.0000 0.72490  0.90120  0.18840  Biso   1.000  H
  C129     1.0000 0.77000  0.90650  0.07650  Biso   1.000  C
  H147     1.0000 0.80930  0.90340  0.09720  Biso   1.000  H
  C130     1.0000 0.55080  0.89300  0.13440  Biso   1.000  C
  H148     1.0000 0.53520  0.92110  0.09440  Biso   1.000  H
  H149     1.0000 0.52130  0.88780  0.17720  Biso   1.000  H
  H150     1.0000 0.55860  0.85440  0.10870  Biso   1.000  H
  C131     1.0000 0.62470  0.86530  0.22970  Biso   1.000  C
  H151     1.0000 0.61770  0.82370  0.21370  Biso   1.000  H
  H152     1.0000 0.60100  0.87440  0.27750  Biso   1.000  H
  H153     1.0000 0.66720  0.87090  0.24170  Biso   1.000  H
  C132     1.0000 0.59770  0.96740  0.21440  Biso   1.000  C
  H154     1.0000 0.62830  0.97890  0.25340  Biso   1.000  H
  H155     1.0000 0.55920  0.96300  0.24160  Biso   1.000  H
  H156     1.0000 0.59450  0.99830  0.17300  Biso   1.000  H
  Cd7      1.0000 0.26124  0.66971  0.79089  Biso   1.000  Cd
  O25      1.0000 0.16788  0.66379  0.70840  Biso   1.000  O
  O26      1.0000 0.07250  0.63240  0.71390  Biso   1.000  O
  O27      1.0000 0.00674  0.57540  0.80790  Biso   1.000  O
  O28      1.0000 0.01395  0.53186  0.92970  Biso   1.000  O
  N13      1.0000 0.19364  0.61737  0.86210  Biso   1.000  N
  N14      1.0000 0.13299  0.56640  0.94810  Biso   1.000  N
  C133     1.0000 0.12590  0.63820  0.74460  Biso   1.000  C
  C134     1.0000 0.03590  0.56150  0.87160  Biso   1.000  C
  C135     1.0000 0.13770  0.61130  0.82650  Biso   1.000  C
  C136     1.0000 0.10040  0.57950  0.87850  Biso   1.000  C
  C137     1.0000 0.18830  0.59040  0.93580  Biso   1.000  C
  C138     1.0000 0.23850  0.58900  0.99560  Biso   1.000  C
  C139     1.0000 0.27280  0.63740  0.00840  Biso   1.000  C
  H157     1.0000 0.26440  0.67360  0.98100  Biso   1.000  H
  C140     1.0000 0.32260  0.63470  0.06390  Biso   1.000  C
  H158     1.0000 0.34720  0.66900  0.06880  Biso   1.000  H
  C141     1.0000 0.33600  0.58700  0.10860  Biso   1.000  C
  C142     1.0000 0.29710  0.53280  0.09710  Biso   1.000  C
  H159     1.0000 0.30370  0.49790  0.12800  Biso   1.000  H
  C143     1.0000 0.25080  0.53450  0.03980  Biso   1.000  C
  H160     1.0000 0.22760  0.49980  0.03010  Biso   1.000  H
  C144     1.0000 0.38970  0.58840  0.16740  Biso   1.000  C
  C145     1.0000 0.42430  0.64560  0.17430  Biso   1.000  C
  H161     1.0000 0.44230  0.65770  0.12330  Biso   1.000  H
  H162     1.0000 0.45560  0.64070  0.21480  Biso   1.000  H
  H163     1.0000 0.39610  0.67640  0.19200  Biso   1.000  H
  C146     1.0000 0.37010  0.57100  0.25030  Biso   1.000  C
  H164     1.0000 0.36380  0.60510  0.28600  Biso   1.000  H
  H165     1.0000 0.40020  0.54440  0.27340  Biso   1.000  H
  H166     1.0000 0.33250  0.54920  0.24370  Biso   1.000  H
  C147     1.0000 0.43220  0.54120  0.13830  Biso   1.000  C
  H167     1.0000 0.41760  0.50070  0.14900  Biso   1.000  H
  H168     1.0000 0.47110  0.54670  0.16420  Biso   1.000  H
  H169     1.0000 0.43630  0.54700  0.08040  Biso   1.000  H
  C148     1.0000 0.30090  0.59010  0.96710  Biso   1.000  C
  H170     1.0000 0.30860  0.59050  0.91110  Biso   1.000  H
  C149     1.0000 0.35000  0.59070  0.02170  Biso   1.000  C
  H171     1.0000 0.39000  0.59350  0.00320  Biso   1.000  H
  C150     1.0000 0.28220  0.59360  0.13280  Biso   1.000  C
  H172     1.0000 0.27510  0.59880  0.18840  Biso   1.000  H
  C151     1.0000 0.23000  0.59350  0.07650  Biso   1.000  C
  H173     1.0000 0.19070  0.59660  0.09720  Biso   1.000  H
  C152     1.0000 0.44920  0.60700  0.13440  Biso   1.000  C
  H174     1.0000 0.46480  0.57890  0.09440  Biso   1.000  H
  H175     1.0000 0.47870  0.61220  0.17720  Biso   1.000  H
  H176     1.0000 0.44140  0.64560  0.10870  Biso   1.000  H
  C153     1.0000 0.37530  0.63470  0.22970  Biso   1.000  C
  H177     1.0000 0.38230  0.67630  0.21370  Biso   1.000  H
  H178     1.0000 0.39900  0.62560  0.27750  Biso   1.000  H
  H179     1.0000 0.33280  0.62910  0.24170  Biso   1.000  H
  C154     1.0000 0.40230  0.53260  0.21440  Biso   1.000  C
  H180     1.0000 0.37170  0.52110  0.25340  Biso   1.000  H
  H181     1.0000 0.44080  0.53700  0.24160  Biso   1.000  H
  H182     1.0000 0.40550  0.50170  0.17300  Biso   1.000  H
  Cd8      1.0000 0.76124  0.16971  0.29089  Biso   1.000  Cd
  O29      1.0000 0.66788  0.16379  0.20840  Biso   1.000  O
  O30      1.0000 0.57250  0.13240  0.21390  Biso   1.000  O
  O31      1.0000 0.50674  0.07540  0.30790  Biso   1.000  O
  O32      1.0000 0.51395  0.03186  0.42970  Biso   1.000  O
  N15      1.0000 0.69364  0.11737  0.36210  Biso   1.000  N
  N16      1.0000 0.63299  0.06640  0.44810  Biso   1.000  N
  C155     1.0000 0.62590  0.13820  0.24460  Biso   1.000  C
  C156     1.0000 0.53590  0.06150  0.37160  Biso   1.000  C
  C157     1.0000 0.63770  0.11130  0.32650  Biso   1.000  C
  C158     1.0000 0.60040  0.07950  0.37850  Biso   1.000  C
  C159     1.0000 0.68830  0.09040  0.43580  Biso   1.000  C
  C160     1.0000 0.73850  0.08900  0.49560  Biso   1.000  C
  C161     1.0000 0.77280  0.13740  0.50840  Biso   1.000  C
  H183     1.0000 0.76440  0.17360  0.48100  Biso   1.000  H
  C162     1.0000 0.82260  0.13470  0.56390  Biso   1.000  C
  H184     1.0000 0.84720  0.16900  0.56880  Biso   1.000  H
  C163     1.0000 0.83600  0.08700  0.60860  Biso   1.000  C
  C164     1.0000 0.79710  0.03280  0.59710  Biso   1.000  C
  H185     1.0000 0.80370  0.99790  0.62800  Biso   1.000  H
  C165     1.0000 0.75080  0.03450  0.53980  Biso   1.000  C
  H186     1.0000 0.72760  0.99980  0.53010  Biso   1.000  H
  C166     1.0000 0.88970  0.08840  0.66740  Biso   1.000  C
  C167     1.0000 0.92430  0.14560  0.67430  Biso   1.000  C
  H187     1.0000 0.94230  0.15770  0.62330  Biso   1.000  H
  H188     1.0000 0.95560  0.14070  0.71480  Biso   1.000  H
  H189     1.0000 0.89610  0.17640  0.69200  Biso   1.000  H
  C168     1.0000 0.87010  0.07100  0.75030  Biso   1.000  C
  H190     1.0000 0.86380  0.10510  0.78600  Biso   1.000  H
  H191     1.0000 0.90020  0.04440  0.77340  Biso   1.000  H
  H192     1.0000 0.83250  0.04920  0.74370  Biso   1.000  H
  C169     1.0000 0.93220  0.04120  0.63830  Biso   1.000  C
  H193     1.0000 0.91760  0.00070  0.64900  Biso   1.000  H
  H194     1.0000 0.97110  0.04670  0.66420  Biso   1.000  H
  H195     1.0000 0.93630  0.04700  0.58040  Biso   1.000  H
  C170     1.0000 0.80090  0.09010  0.46710  Biso   1.000  C
  H196     1.0000 0.80860  0.09050  0.41110  Biso   1.000  H
  C171     1.0000 0.85000  0.09070  0.52170  Biso   1.000  C
  H197     1.0000 0.89000  0.09350  0.50320  Biso   1.000  H
  C172     1.0000 0.78220  0.09360  0.63280  Biso   1.000  C
  H198     1.0000 0.77510  0.09880  0.68840  Biso   1.000  H
  C173     1.0000 0.73000  0.09350  0.57650  Biso   1.000  C
  H199     1.0000 0.69070  0.09660  0.59720  Biso   1.000  H
  C174     1.0000 0.94920  0.10700  0.63440  Biso   1.000  C
  H200     1.0000 0.96480  0.07890  0.59440  Biso   1.000  H
  H201     1.0000 0.97870  0.11220  0.67720  Biso   1.000  H
  H202     1.0000 0.94140  0.14560  0.60870  Biso   1.000  H
  C175     1.0000 0.87530  0.13470  0.72970  Biso   1.000  C
  H203     1.0000 0.88230  0.17630  0.71370  Biso   1.000  H
  H204     1.0000 0.89900  0.12560  0.77750  Biso   1.000  H
  H205     1.0000 0.83280  0.12910  0.74170  Biso   1.000  H
  C176     1.0000 0.90230  0.03260  0.71440  Biso   1.000  C
  H206     1.0000 0.87170  0.02110  0.75340  Biso   1.000  H
  H207     1.0000 0.94080  0.03700  0.74160  Biso   1.000  H
  H208     1.0000 0.90550  0.00170  0.67300  Biso   1.000  H
  Cd9      1.0000 0.91971  0.48876  0.95911  Biso   1.000  Cd
  O33      1.0000 0.91379  0.58212  0.04160  Biso   1.000  O
  O34      1.0000 0.88240  0.67750  0.03610  Biso   1.000  O
  O35      1.0000 0.82540  0.74326  0.94210  Biso   1.000  O
  O36      1.0000 0.78186  0.73605  0.82030  Biso   1.000  O
  N17      1.0000 0.86737  0.55636  0.88790  Biso   1.000  N
  N18      1.0000 0.81640  0.61701  0.80190  Biso   1.000  N
  C177     1.0000 0.88820  0.62410  0.00540  Biso   1.000  C
  C178     1.0000 0.81150  0.71410  0.87840  Biso   1.000  C
  C179     1.0000 0.86130  0.61230  0.92350  Biso   1.000  C
  C180     1.0000 0.82950  0.64960  0.87150  Biso   1.000  C
  C181     1.0000 0.84040  0.56170  0.81420  Biso   1.000  C
  C182     1.0000 0.83900  0.51150  0.75440  Biso   1.000  C
  C183     1.0000 0.88740  0.47720  0.74160  Biso   1.000  C
  H209     1.0000 0.92360  0.48560  0.76900  Biso   1.000  H
  C184     1.0000 0.88470  0.42740  0.68610  Biso   1.000  C
  H210     1.0000 0.91900  0.40280  0.68120  Biso   1.000  H
  C185     1.0000 0.83700  0.41400  0.64140  Biso   1.000  C
  C186     1.0000 0.78280  0.45290  0.65290  Biso   1.000  C
  H211     1.0000 0.74790  0.44630  0.62200  Biso   1.000  H
  C187     1.0000 0.78450  0.49920  0.71020  Biso   1.000  C
  H212     1.0000 0.74980  0.52240  0.71990  Biso   1.000  H
  C188     1.0000 0.83840  0.36030  0.58260  Biso   1.000  C
  C189     1.0000 0.89560  0.32570  0.57570  Biso   1.000  C
  H213     1.0000 0.90770  0.30770  0.62670  Biso   1.000  H
  H214     1.0000 0.89070  0.29440  0.53520  Biso   1.000  H
  H215     1.0000 0.92640  0.35390  0.55800  Biso   1.000  H
  C190     1.0000 0.82100  0.37990  0.49970  Biso   1.000  C
  H216     1.0000 0.85510  0.38620  0.46400  Biso   1.000  H
  H217     1.0000 0.79440  0.34980  0.47660  Biso   1.000  H
  H218     1.0000 0.79920  0.41750  0.50630  Biso   1.000  H
  C191     1.0000 0.79120  0.31780  0.61170  Biso   1.000  C
  H219     1.0000 0.75070  0.33240  0.60100  Biso   1.000  H
  H220     1.0000 0.79670  0.27890  0.58580  Biso   1.000  H
  H221     1.0000 0.79700  0.31370  0.66960  Biso   1.000  H
  C192     1.0000 0.84010  0.44910  0.78290  Biso   1.000  C
  H222     1.0000 0.84050  0.44140  0.83890  Biso   1.000  H
  C193     1.0000 0.84070  0.40000  0.72830  Biso   1.000  C
  H223     1.0000 0.84350  0.36000  0.74680  Biso   1.000  H
  C194     1.0000 0.84360  0.46780  0.61720  Biso   1.000  C
  H224     1.0000 0.84880  0.47490  0.56160  Biso   1.000  H
  C195     1.0000 0.84350  0.52000  0.67350  Biso   1.000  C
  H225     1.0000 0.84660  0.55930  0.65280  Biso   1.000  H
  C196     1.0000 0.85700  0.30080  0.61560  Biso   1.000  C
  H226     1.0000 0.82890  0.28520  0.65560  Biso   1.000  H
  H227     1.0000 0.86220  0.27130  0.57280  Biso   1.000  H
  H228     1.0000 0.89560  0.30860  0.64130  Biso   1.000  H
  C197     1.0000 0.88470  0.37470  0.52030  Biso   1.000  C
  H229     1.0000 0.92630  0.36770  0.53630  Biso   1.000  H
  H230     1.0000 0.87560  0.35100  0.47250  Biso   1.000  H
  H231     1.0000 0.87910  0.41720  0.50830  Biso   1.000  H
  C198     1.0000 0.78260  0.34770  0.53560  Biso   1.000  C
  H232     1.0000 0.77110  0.37830  0.49660  Biso   1.000  H
  H233     1.0000 0.78700  0.30920  0.50840  Biso   1.000  H
  H234     1.0000 0.75170  0.34450  0.57700  Biso   1.000  H
  Cd10     1.0000 0.41971  0.98876  0.45911  Biso   1.000  Cd
  O37      1.0000 0.41379  0.08212  0.54160  Biso   1.000  O
  O38      1.0000 0.38240  0.17750  0.53610  Biso   1.000  O
  O39      1.0000 0.32540  0.24326  0.44210  Biso   1.000  O
  O40      1.0000 0.28186  0.23605  0.32030  Biso   1.000  O
  N19      1.0000 0.36737  0.05636  0.38790  Biso   1.000  N
  N20      1.0000 0.31640  0.11701  0.30190  Biso   1.000  N
  C199     1.0000 0.38820  0.12410  0.50540  Biso   1.000  C
  C200     1.0000 0.31150  0.21410  0.37840  Biso   1.000  C
  C201     1.0000 0.36130  0.11230  0.42350  Biso   1.000  C
  C202     1.0000 0.32950  0.14960  0.37150  Biso   1.000  C
  C203     1.0000 0.34040  0.06170  0.31420  Biso   1.000  C
  C204     1.0000 0.33900  0.01150  0.25440  Biso   1.000  C
  C205     1.0000 0.38740  0.97720  0.24160  Biso   1.000  C
  H235     1.0000 0.42360  0.98560  0.26900  Biso   1.000  H
  C206     1.0000 0.38470  0.92740  0.18610  Biso   1.000  C
  H236     1.0000 0.41900  0.90280  0.18120  Biso   1.000  H
  C207     1.0000 0.33700  0.91400  0.14140  Biso   1.000  C
  C208     1.0000 0.28280  0.95290  0.15290  Biso   1.000  C
  H237     1.0000 0.24790  0.94630  0.12200  Biso   1.000  H
  C209     1.0000 0.28450  0.99920  0.21020  Biso   1.000  C
  H238     1.0000 0.24980  0.02240  0.21990  Biso   1.000  H
  C210     1.0000 0.33840  0.86030  0.08260  Biso   1.000  C
  C211     1.0000 0.39560  0.82570  0.07570  Biso   1.000  C
  H239     1.0000 0.40770  0.80770  0.12670  Biso   1.000  H
  H240     1.0000 0.39070  0.79440  0.03520  Biso   1.000  H
  H241     1.0000 0.42640  0.85390  0.05800  Biso   1.000  H
  C212     1.0000 0.32100  0.87990  0.99970  Biso   1.000  C
  H242     1.0000 0.35510  0.88620  0.96400  Biso   1.000  H
  H243     1.0000 0.29440  0.84980  0.97660  Biso   1.000  H
  H244     1.0000 0.29920  0.91750  0.00630  Biso   1.000  H
  C213     1.0000 0.29120  0.81780  0.11170  Biso   1.000  C
  H245     1.0000 0.25070  0.83240  0.10100  Biso   1.000  H
  H246     1.0000 0.29670  0.77890  0.08580  Biso   1.000  H
  H247     1.0000 0.29700  0.81370  0.16960  Biso   1.000  H
  C214     1.0000 0.34010  0.94910  0.28290  Biso   1.000  C
  H248     1.0000 0.34050  0.94140  0.33890  Biso   1.000  H
  C215     1.0000 0.34070  0.90000  0.22830  Biso   1.000  C
  H249     1.0000 0.34350  0.86000  0.24680  Biso   1.000  H
  C216     1.0000 0.34360  0.96780  0.11720  Biso   1.000  C
  H250     1.0000 0.34880  0.97490  0.06160  Biso   1.000  H
  C217     1.0000 0.34350  0.02000  0.17350  Biso   1.000  C
  H251     1.0000 0.34660  0.05930  0.15280  Biso   1.000  H
  C218     1.0000 0.35700  0.80080  0.11560  Biso   1.000  C
  H252     1.0000 0.32890  0.78520  0.15560  Biso   1.000  H
  H253     1.0000 0.36220  0.77130  0.07280  Biso   1.000  H
  H254     1.0000 0.39560  0.80860  0.14130  Biso   1.000  H
  C219     1.0000 0.38470  0.87470  0.02030  Biso   1.000  C
  H255     1.0000 0.42630  0.86770  0.03630  Biso   1.000  H
  H256     1.0000 0.37560  0.85100  0.97250  Biso   1.000  H
  H257     1.0000 0.37910  0.91720  0.00830  Biso   1.000  H
  C220     1.0000 0.28260  0.84770  0.03560  Biso   1.000  C
  H258     1.0000 0.27110  0.87830  0.99660  Biso   1.000  H
  H259     1.0000 0.28700  0.80920  0.00840  Biso   1.000  H
  H260     1.0000 0.25170  0.84450  0.07700  Biso   1.000  H
  Cd11     1.0000 0.58029  0.51124  0.45911  Biso   1.000  Cd
  O41      1.0000 0.58621  0.41788  0.54160  Biso   1.000  O
  O42      1.0000 0.61760  0.32250  0.53610  Biso   1.000  O
  O43      1.0000 0.67460  0.25674  0.44210  Biso   1.000  O
  O44      1.0000 0.71814  0.26395  0.32030  Biso   1.000  O
  N21      1.0000 0.63263  0.44364  0.38790  Biso   1.000  N
  N22      1.0000 0.68360  0.38299  0.30190  Biso   1.000  N
  C221     1.0000 0.61180  0.37590  0.50540  Biso   1.000  C
  C222     1.0000 0.68850  0.28590  0.37840  Biso   1.000  C
  C223     1.0000 0.63870  0.38770  0.42350  Biso   1.000  C
  C224     1.0000 0.67050  0.35040  0.37150  Biso   1.000  C
  C225     1.0000 0.65960  0.43830  0.31420  Biso   1.000  C
  C226     1.0000 0.66100  0.48850  0.25440  Biso   1.000  C
  C227     1.0000 0.61260  0.52280  0.24160  Biso   1.000  C
  H261     1.0000 0.57640  0.51440  0.26900  Biso   1.000  H
  C228     1.0000 0.61530  0.57260  0.18610  Biso   1.000  C
  H262     1.0000 0.58100  0.59720  0.18120  Biso   1.000  H
  C229     1.0000 0.66300  0.58600  0.14140  Biso   1.000  C
  C230     1.0000 0.71720  0.54710  0.15290  Biso   1.000  C
  H263     1.0000 0.75210  0.55370  0.12200  Biso   1.000  H
  C231     1.0000 0.71550  0.50080  0.21020  Biso   1.000  C
  H264     1.0000 0.75020  0.47760  0.21990  Biso   1.000  H
  C232     1.0000 0.66160  0.63970  0.08260  Biso   1.000  C
  C233     1.0000 0.60440  0.67430  0.07570  Biso   1.000  C
  H265     1.0000 0.59230  0.69230  0.12670  Biso   1.000  H
  H266     1.0000 0.60930  0.70560  0.03520  Biso   1.000  H
  H267     1.0000 0.57360  0.64610  0.05800  Biso   1.000  H
  C234     1.0000 0.67900  0.62010  0.99970  Biso   1.000  C
  H268     1.0000 0.64490  0.61380  0.96400  Biso   1.000  H
  H269     1.0000 0.70560  0.65020  0.97660  Biso   1.000  H
  H270     1.0000 0.70080  0.58250  0.00630  Biso   1.000  H
  C235     1.0000 0.70880  0.68220  0.11170  Biso   1.000  C
  H271     1.0000 0.74930  0.66760  0.10100  Biso   1.000  H
  H272     1.0000 0.70330  0.72110  0.08580  Biso   1.000  H
  H273     1.0000 0.70300  0.68630  0.16960  Biso   1.000  H
  C236     1.0000 0.65990  0.55090  0.28290  Biso   1.000  C
  H274     1.0000 0.65950  0.55860  0.33890  Biso   1.000  H
  C237     1.0000 0.65930  0.60000  0.22830  Biso   1.000  C
  H275     1.0000 0.65650  0.64000  0.24680  Biso   1.000  H
  C238     1.0000 0.65640  0.53220  0.11720  Biso   1.000  C
  H276     1.0000 0.65120  0.52510  0.06160  Biso   1.000  H
  C239     1.0000 0.65650  0.48000  0.17350  Biso   1.000  C
  H277     1.0000 0.65340  0.44070  0.15280  Biso   1.000  H
  C240     1.0000 0.64300  0.69920  0.11560  Biso   1.000  C
  H278     1.0000 0.67110  0.71480  0.15560  Biso   1.000  H
  H279     1.0000 0.63780  0.72870  0.07280  Biso   1.000  H
  H280     1.0000 0.60440  0.69140  0.14130  Biso   1.000  H
  C241     1.0000 0.61530  0.62530  0.02030  Biso   1.000  C
  H281     1.0000 0.57370  0.63230  0.03630  Biso   1.000  H
  H282     1.0000 0.62440  0.64900  0.97250  Biso   1.000  H
  H283     1.0000 0.62090  0.58280  0.00830  Biso   1.000  H
  C242     1.0000 0.71740  0.65230  0.03560  Biso   1.000  C
  H284     1.0000 0.72890  0.62170  0.99660  Biso   1.000  H
  H285     1.0000 0.71300  0.69080  0.00840  Biso   1.000  H
  H286     1.0000 0.74830  0.65550  0.07700  Biso   1.000  H
  Cd12     1.0000 0.08029  0.01124  0.95911  Biso   1.000  Cd
  O45      1.0000 0.08621  0.91788  0.04160  Biso   1.000  O
  O46      1.0000 0.11760  0.82250  0.03610  Biso   1.000  O
  O47      1.0000 0.17460  0.75674  0.94210  Biso   1.000  O
  O48      1.0000 0.21814  0.76395  0.82030  Biso   1.000  O
  N23      1.0000 0.13263  0.94364  0.88790  Biso   1.000  N
  N24      1.0000 0.18360  0.88299  0.80190  Biso   1.000  N
  C243     1.0000 0.11180  0.87590  0.00540  Biso   1.000  C
  C244     1.0000 0.18850  0.78590  0.87840  Biso   1.000  C
  C245     1.0000 0.13870  0.88770  0.92350  Biso   1.000  C
  C246     1.0000 0.17050  0.85040  0.87150  Biso   1.000  C
  C247     1.0000 0.15960  0.93830  0.81420  Biso   1.000  C
  C248     1.0000 0.16100  0.98850  0.75440  Biso   1.000  C
  C249     1.0000 0.11260  0.02280  0.74160  Biso   1.000  C
  H287     1.0000 0.07640  0.01440  0.76900  Biso   1.000  H
  C250     1.0000 0.11530  0.07260  0.68610  Biso   1.000  C
  H288     1.0000 0.08100  0.09720  0.68120  Biso   1.000  H
  C251     1.0000 0.16300  0.08600  0.64140  Biso   1.000  C
  C252     1.0000 0.21720  0.04710  0.65290  Biso   1.000  C
  H289     1.0000 0.25210  0.05370  0.62200  Biso   1.000  H
  C253     1.0000 0.21550  0.00080  0.71020  Biso   1.000  C
  H290     1.0000 0.25020  0.97760  0.71990  Biso   1.000  H
  C254     1.0000 0.16160  0.13970  0.58260  Biso   1.000  C
  C255     1.0000 0.10440  0.17430  0.57570  Biso   1.000  C
  H291     1.0000 0.09230  0.19230  0.62670  Biso   1.000  H
  H292     1.0000 0.10930  0.20560  0.53520  Biso   1.000  H
  H293     1.0000 0.07360  0.14610  0.55800  Biso   1.000  H
  C256     1.0000 0.17900  0.12010  0.49970  Biso   1.000  C
  H294     1.0000 0.14490  0.11380  0.46400  Biso   1.000  H
  H295     1.0000 0.20560  0.15020  0.47660  Biso   1.000  H
  H296     1.0000 0.20080  0.08250  0.50630  Biso   1.000  H
  C257     1.0000 0.20880  0.18220  0.61170  Biso   1.000  C
  H297     1.0000 0.24930  0.16760  0.60100  Biso   1.000  H
  H298     1.0000 0.20330  0.22110  0.58580  Biso   1.000  H
  H299     1.0000 0.20300  0.18630  0.66960  Biso   1.000  H
  C258     1.0000 0.15990  0.05090  0.78290  Biso   1.000  C
  H300     1.0000 0.15950  0.05860  0.83890  Biso   1.000  H
  C259     1.0000 0.15930  0.10000  0.72830  Biso   1.000  C
  H301     1.0000 0.15650  0.14000  0.74680  Biso   1.000  H
  C260     1.0000 0.15640  0.03220  0.61720  Biso   1.000  C
  H302     1.0000 0.15120  0.02510  0.56160  Biso   1.000  H
  C261     1.0000 0.15650  0.98000  0.67350  Biso   1.000  C
  H303     1.0000 0.15340  0.94070  0.65280  Biso   1.000  H
  C262     1.0000 0.14300  0.19920  0.61560  Biso   1.000  C
  H304     1.0000 0.17110  0.21480  0.65560  Biso   1.000  H
  H305     1.0000 0.13780  0.22870  0.57280  Biso   1.000  H
  H306     1.0000 0.10440  0.19140  0.64130  Biso   1.000  H
  C263     1.0000 0.11530  0.12530  0.52030  Biso   1.000  C
  H307     1.0000 0.07370  0.13230  0.53630  Biso   1.000  H
  H308     1.0000 0.12440  0.14900  0.47250  Biso   1.000  H
  H309     1.0000 0.12090  0.08280  0.50830  Biso   1.000  H
  C264     1.0000 0.21740  0.15230  0.53560  Biso   1.000  C
  H310     1.0000 0.22890  0.12170  0.49660  Biso   1.000  H
  H311     1.0000 0.21300  0.19080  0.50840  Biso   1.000  H
  H312     1.0000 0.24830  0.15550  0.57700  Biso   1.000  H
  Cd13     1.0000 0.76124  0.66971  0.70911  Biso   1.000  Cd
  O49      1.0000 0.66788  0.66379  0.79160  Biso   1.000  O
  O50      1.0000 0.57250  0.63240  0.78610  Biso   1.000  O
  O51      1.0000 0.50674  0.57540  0.69210  Biso   1.000  O
  O52      1.0000 0.51395  0.53186  0.57030  Biso   1.000  O
  N25      1.0000 0.69364  0.61737  0.63790  Biso   1.000  N
  N26      1.0000 0.63299  0.56640  0.55190  Biso   1.000  N
  C265     1.0000 0.62590  0.63820  0.75540  Biso   1.000  C
  C266     1.0000 0.53590  0.56150  0.62840  Biso   1.000  C
  C267     1.0000 0.63770  0.61130  0.67350  Biso   1.000  C
  C268     1.0000 0.60040  0.57950  0.62150  Biso   1.000  C
  C269     1.0000 0.68830  0.59040  0.56420  Biso   1.000  C
  C270     1.0000 0.73850  0.58900  0.50440  Biso   1.000  C
  C271     1.0000 0.77280  0.63740  0.49160  Biso   1.000  C
  H313     1.0000 0.76440  0.67360  0.51900  Biso   1.000  H
  C272     1.0000 0.82260  0.63470  0.43610  Biso   1.000  C
  H314     1.0000 0.84720  0.66900  0.43120  Biso   1.000  H
  C273     1.0000 0.83600  0.58700  0.39140  Biso   1.000  C
  C274     1.0000 0.79710  0.53280  0.40290  Biso   1.000  C
  H315     1.0000 0.80370  0.49790  0.37200  Biso   1.000  H
  C275     1.0000 0.75080  0.53450  0.46020  Biso   1.000  C
  H316     1.0000 0.72760  0.49980  0.46990  Biso   1.000  H
  C276     1.0000 0.88970  0.58840  0.33260  Biso   1.000  C
  C277     1.0000 0.92430  0.64560  0.32570  Biso   1.000  C
  H317     1.0000 0.94230  0.65770  0.37670  Biso   1.000  H
  H318     1.0000 0.95560  0.64070  0.28520  Biso   1.000  H
  H319     1.0000 0.89610  0.67640  0.30800  Biso   1.000  H
  C278     1.0000 0.87010  0.57100  0.24970  Biso   1.000  C
  H320     1.0000 0.86380  0.60510  0.21400  Biso   1.000  H
  H321     1.0000 0.90020  0.54440  0.22660  Biso   1.000  H
  H322     1.0000 0.83250  0.54920  0.25630  Biso   1.000  H
  C279     1.0000 0.93220  0.54120  0.36170  Biso   1.000  C
  H323     1.0000 0.91760  0.50070  0.35100  Biso   1.000  H
  H324     1.0000 0.97110  0.54670  0.33580  Biso   1.000  H
  H325     1.0000 0.93630  0.54700  0.41960  Biso   1.000  H
  C280     1.0000 0.80090  0.59010  0.53290  Biso   1.000  C
  H326     1.0000 0.80860  0.59050  0.58890  Biso   1.000  H
  C281     1.0000 0.85000  0.59070  0.47830  Biso   1.000  C
  H327     1.0000 0.89000  0.59350  0.49680  Biso   1.000  H
  C282     1.0000 0.78220  0.59360  0.36720  Biso   1.000  C
  H328     1.0000 0.77510  0.59880  0.31160  Biso   1.000  H
  C283     1.0000 0.73000  0.59350  0.42350  Biso   1.000  C
  H329     1.0000 0.69070  0.59660  0.40280  Biso   1.000  H
  C284     1.0000 0.94920  0.60700  0.36560  Biso   1.000  C
  H330     1.0000 0.96480  0.57890  0.40560  Biso   1.000  H
  H331     1.0000 0.97870  0.61220  0.32280  Biso   1.000  H
  H332     1.0000 0.94140  0.64560  0.39130  Biso   1.000  H
  C285     1.0000 0.87530  0.63470  0.27030  Biso   1.000  C
  H333     1.0000 0.88230  0.67630  0.28630  Biso   1.000  H
  H334     1.0000 0.89900  0.62560  0.22250  Biso   1.000  H
  H335     1.0000 0.83280  0.62910  0.25830  Biso   1.000  H
  C286     1.0000 0.90230  0.53260  0.28560  Biso   1.000  C
  H336     1.0000 0.87170  0.52110  0.24660  Biso   1.000  H
  H337     1.0000 0.94080  0.53700  0.25840  Biso   1.000  H
  H338     1.0000 0.90550  0.50170  0.32700  Biso   1.000  H
  Cd14     1.0000 0.26124  0.16971  0.20911  Biso   1.000  Cd
  O53      1.0000 0.16788  0.16379  0.29160  Biso   1.000  O
  O54      1.0000 0.07250  0.13240  0.28610  Biso   1.000  O
  O55      1.0000 0.00674  0.07540  0.19210  Biso   1.000  O
  O56      1.0000 0.01395  0.03186  0.07030  Biso   1.000  O
  N27      1.0000 0.19364  0.11737  0.13790  Biso   1.000  N
  N28      1.0000 0.13299  0.06640  0.05190  Biso   1.000  N
  C287     1.0000 0.12590  0.13820  0.25540  Biso   1.000  C
  C288     1.0000 0.03590  0.06150  0.12840  Biso   1.000  C
  C289     1.0000 0.13770  0.11130  0.17350  Biso   1.000  C
  C290     1.0000 0.10040  0.07950  0.12150  Biso   1.000  C
  C291     1.0000 0.18830  0.09040  0.06420  Biso   1.000  C
  C292     1.0000 0.23850  0.08900  0.00440  Biso   1.000  C
  C293     1.0000 0.27280  0.13740  0.99160  Biso   1.000  C
  H339     1.0000 0.26440  0.17360  0.01900  Biso   1.000  H
  C294     1.0000 0.32260  0.13470  0.93610  Biso   1.000  C
  H340     1.0000 0.34720  0.16900  0.93120  Biso   1.000  H
  C295     1.0000 0.33600  0.08700  0.89140  Biso   1.000  C
  C296     1.0000 0.29710  0.03280  0.90290  Biso   1.000  C
  H341     1.0000 0.30370  0.99790  0.87200  Biso   1.000  H
  C297     1.0000 0.25080  0.03450  0.96020  Biso   1.000  C
  H342     1.0000 0.22760  0.99980  0.96990  Biso   1.000  H
  C298     1.0000 0.38970  0.08840  0.83260  Biso   1.000  C
  C299     1.0000 0.42430  0.14560  0.82570  Biso   1.000  C
  H343     1.0000 0.44230  0.15770  0.87670  Biso   1.000  H
  H344     1.0000 0.45560  0.14070  0.78520  Biso   1.000  H
  H345     1.0000 0.39610  0.17640  0.80800  Biso   1.000  H
  C300     1.0000 0.37010  0.07100  0.74970  Biso   1.000  C
  H346     1.0000 0.36380  0.10510  0.71400  Biso   1.000  H
  H347     1.0000 0.40020  0.04440  0.72660  Biso   1.000  H
  H348     1.0000 0.33250  0.04920  0.75630  Biso   1.000  H
  C301     1.0000 0.43220  0.04120  0.86170  Biso   1.000  C
  H349     1.0000 0.41760  0.00070  0.85100  Biso   1.000  H
  H350     1.0000 0.47110  0.04670  0.83580  Biso   1.000  H
  H351     1.0000 0.43630  0.04700  0.91960  Biso   1.000  H
  C302     1.0000 0.30090  0.09010  0.03290  Biso   1.000  C
  H352     1.0000 0.30860  0.09050  0.08890  Biso   1.000  H
  C303     1.0000 0.35000  0.09070  0.97830  Biso   1.000  C
  H353     1.0000 0.39000  0.09350  0.99680  Biso   1.000  H
  C304     1.0000 0.28220  0.09360  0.86720  Biso   1.000  C
  H354     1.0000 0.27510  0.09880  0.81160  Biso   1.000  H
  C305     1.0000 0.23000  0.09350  0.92350  Biso   1.000  C
  H355     1.0000 0.19070  0.09660  0.90280  Biso   1.000  H
  C306     1.0000 0.44920  0.10700  0.86560  Biso   1.000  C
  H356     1.0000 0.46480  0.07890  0.90560  Biso   1.000  H
  H357     1.0000 0.47870  0.11220  0.82280  Biso   1.000  H
  H358     1.0000 0.44140  0.14560  0.89130  Biso   1.000  H
  C307     1.0000 0.37530  0.13470  0.77030  Biso   1.000  C
  H359     1.0000 0.38230  0.17630  0.78630  Biso   1.000  H
  H360     1.0000 0.39900  0.12560  0.72250  Biso   1.000  H
  H361     1.0000 0.33280  0.12910  0.75830  Biso   1.000  H
  C308     1.0000 0.40230  0.03260  0.78560  Biso   1.000  C
  H362     1.0000 0.37170  0.02110  0.74660  Biso   1.000  H
  H363     1.0000 0.44080  0.03700  0.75840  Biso   1.000  H
  H364     1.0000 0.40550  0.00170  0.82700  Biso   1.000  H
  Cd15     1.0000 0.73876  0.33029  0.20911  Biso   1.000  Cd
  O57      1.0000 0.83212  0.33621  0.29160  Biso   1.000  O
  O58      1.0000 0.92750  0.36760  0.28610  Biso   1.000  O
  O59      1.0000 0.99326  0.42460  0.19210  Biso   1.000  O
  O60      1.0000 0.98605  0.46814  0.07030  Biso   1.000  O
  N29      1.0000 0.80636  0.38263  0.13790  Biso   1.000  N
  N30      1.0000 0.86701  0.43360  0.05190  Biso   1.000  N
  C309     1.0000 0.87410  0.36180  0.25540  Biso   1.000  C
  C310     1.0000 0.96410  0.43850  0.12840  Biso   1.000  C
  C311     1.0000 0.86230  0.38870  0.17350  Biso   1.000  C
  C312     1.0000 0.89960  0.42050  0.12150  Biso   1.000  C
  C313     1.0000 0.81170  0.40960  0.06420  Biso   1.000  C
  C314     1.0000 0.76150  0.41100  0.00440  Biso   1.000  C
  C315     1.0000 0.72720  0.36260  0.99160  Biso   1.000  C
  H365     1.0000 0.73560  0.32640  0.01900  Biso   1.000  H
  C316     1.0000 0.67740  0.36530  0.93610  Biso   1.000  C
  H366     1.0000 0.65280  0.33100  0.93120  Biso   1.000  H
  C317     1.0000 0.66400  0.41300  0.89140  Biso   1.000  C
  C318     1.0000 0.70290  0.46720  0.90290  Biso   1.000  C
  H367     1.0000 0.69630  0.50210  0.87200  Biso   1.000  H
  C319     1.0000 0.74920  0.46550  0.96020  Biso   1.000  C
  H368     1.0000 0.77240  0.50020  0.96990  Biso   1.000  H
  C320     1.0000 0.61030  0.41160  0.83260  Biso   1.000  C
  C321     1.0000 0.57570  0.35440  0.82570  Biso   1.000  C
  H369     1.0000 0.55770  0.34230  0.87670  Biso   1.000  H
  H370     1.0000 0.54440  0.35930  0.78520  Biso   1.000  H
  H371     1.0000 0.60390  0.32360  0.80800  Biso   1.000  H
  C322     1.0000 0.62990  0.42900  0.74970  Biso   1.000  C
  H372     1.0000 0.63620  0.39490  0.71400  Biso   1.000  H
  H373     1.0000 0.59980  0.45560  0.72660  Biso   1.000  H
  H374     1.0000 0.66750  0.45080  0.75630  Biso   1.000  H
  C323     1.0000 0.56780  0.45880  0.86170  Biso   1.000  C
  H375     1.0000 0.58240  0.49930  0.85100  Biso   1.000  H
  H376     1.0000 0.52890  0.45330  0.83580  Biso   1.000  H
  H377     1.0000 0.56370  0.45300  0.91960  Biso   1.000  H
  C324     1.0000 0.69910  0.40990  0.03290  Biso   1.000  C
  H378     1.0000 0.69140  0.40950  0.08890  Biso   1.000  H
  C325     1.0000 0.65000  0.40930  0.97830  Biso   1.000  C
  H379     1.0000 0.61000  0.40650  0.99680  Biso   1.000  H
  C326     1.0000 0.71780  0.40640  0.86720  Biso   1.000  C
  H380     1.0000 0.72490  0.40120  0.81160  Biso   1.000  H
  C327     1.0000 0.77000  0.40650  0.92350  Biso   1.000  C
  H381     1.0000 0.80930  0.40340  0.90280  Biso   1.000  H
  C328     1.0000 0.55080  0.39300  0.86560  Biso   1.000  C
  H382     1.0000 0.53520  0.42110  0.90560  Biso   1.000  H
  H383     1.0000 0.52130  0.38780  0.82280  Biso   1.000  H
  H384     1.0000 0.55860  0.35440  0.89130  Biso   1.000  H
  C329     1.0000 0.62470  0.36530  0.77030  Biso   1.000  C
  H385     1.0000 0.61770  0.32370  0.78630  Biso   1.000  H
  H386     1.0000 0.60100  0.37440  0.72250  Biso   1.000  H
  H387     1.0000 0.66720  0.37090  0.75830  Biso   1.000  H
  C330     1.0000 0.59770  0.46740  0.78560  Biso   1.000  C
  H388     1.0000 0.62830  0.47890  0.74660  Biso   1.000  H
  H389     1.0000 0.55920  0.46300  0.75840  Biso   1.000  H
  H390     1.0000 0.59450  0.49830  0.82700  Biso   1.000  H
  Cd16     1.0000 0.23876  0.83029  0.70911  Biso   1.000  Cd
  O61      1.0000 0.33212  0.83621  0.79160  Biso   1.000  O
  O62      1.0000 0.42750  0.86760  0.78610  Biso   1.000  O
  O63      1.0000 0.49326  0.92460  0.69210  Biso   1.000  O
  O64      1.0000 0.48605  0.96814  0.57030  Biso   1.000  O
  N31      1.0000 0.30636  0.88263  0.63790  Biso   1.000  N
  N32      1.0000 0.36701  0.93360  0.55190  Biso   1.000  N
  C331     1.0000 0.37410  0.86180  0.75540  Biso   1.000  C
  C332     1.0000 0.46410  0.93850  0.62840  Biso   1.000  C
  C333     1.0000 0.36230  0.88870  0.67350  Biso   1.000  C
  C334     1.0000 0.39960  0.92050  0.62150  Biso   1.000  C
  C335     1.0000 0.31170  0.90960  0.56420  Biso   1.000  C
  C336     1.0000 0.26150  0.91100  0.50440  Biso   1.000  C
  C337     1.0000 0.22720  0.86260  0.49160  Biso   1.000  C
  H391     1.0000 0.23560  0.82640  0.51900  Biso   1.000  H
  C338     1.0000 0.17740  0.86530  0.43610  Biso   1.000  C
  H392     1.0000 0.15280  0.83100  0.43120  Biso   1.000  H
  C339     1.0000 0.16400  0.91300  0.39140  Biso   1.000  C
  C340     1.0000 0.20290  0.96720  0.40290  Biso   1.000  C
  H393     1.0000 0.19630  0.00210  0.37200  Biso   1.000  H
  C341     1.0000 0.24920  0.96550  0.46020  Biso   1.000  C
  H394     1.0000 0.27240  0.00020  0.46990  Biso   1.000  H
  C342     1.0000 0.11030  0.91160  0.33260  Biso   1.000  C
  C343     1.0000 0.07570  0.85440  0.32570  Biso   1.000  C
  H395     1.0000 0.05770  0.84230  0.37670  Biso   1.000  H
  H396     1.0000 0.04440  0.85930  0.28520  Biso   1.000  H
  H397     1.0000 0.10390  0.82360  0.30800  Biso   1.000  H
  C344     1.0000 0.12990  0.92900  0.24970  Biso   1.000  C
  H398     1.0000 0.13620  0.89490  0.21400  Biso   1.000  H
  H399     1.0000 0.09980  0.95560  0.22660  Biso   1.000  H
  H400     1.0000 0.16750  0.95080  0.25630  Biso   1.000  H
  C345     1.0000 0.06780  0.95880  0.36170  Biso   1.000  C
  H401     1.0000 0.08240  0.99930  0.35100  Biso   1.000  H
  H402     1.0000 0.02890  0.95330  0.33580  Biso   1.000  H
  H403     1.0000 0.06370  0.95300  0.41960  Biso   1.000  H
  C346     1.0000 0.19910  0.90990  0.53290  Biso   1.000  C
  H404     1.0000 0.19140  0.90950  0.58890  Biso   1.000  H
  C347     1.0000 0.15000  0.90930  0.47830  Biso   1.000  C
  H405     1.0000 0.11000  0.90650  0.49680  Biso   1.000  H
  C348     1.0000 0.21780  0.90640  0.36720  Biso   1.000  C
  H406     1.0000 0.22490  0.90120  0.31160  Biso   1.000  H
  C349     1.0000 0.27000  0.90650  0.42350  Biso   1.000  C
  H407     1.0000 0.30930  0.90340  0.40280  Biso   1.000  H
  C350     1.0000 0.05080  0.89300  0.36560  Biso   1.000  C
  H408     1.0000 0.03520  0.92110  0.40560  Biso   1.000  H
  H409     1.0000 0.02130  0.88780  0.32280  Biso   1.000  H
  H410     1.0000 0.05860  0.85440  0.39130  Biso   1.000  H
  C351     1.0000 0.12470  0.86530  0.27030  Biso   1.000  C
  H411     1.0000 0.11770  0.82370  0.28630  Biso   1.000  H
  H412     1.0000 0.10100  0.87440  0.22250  Biso   1.000  H
  H413     1.0000 0.16720  0.87090  0.25830  Biso   1.000  H
  C352     1.0000 0.09770  0.96740  0.28560  Biso   1.000  C
  H414     1.0000 0.12830  0.97890  0.24660  Biso   1.000  H
  H415     1.0000 0.05920  0.96300  0.25840  Biso   1.000  H
  H416     1.0000 0.09450  0.99830  0.32700  Biso   1.000  H
