data_image0
_cell_length_a       28.457
_cell_length_b       28.457
_cell_length_c       28.457
_cell_angle_alpha    90
_cell_angle_beta     90
_cell_angle_gamma    90

_symmetry_space_group_name_H-M    "P 1"
_symmetry_int_tables_number       1

loop_
  _symmetry_equiv_pos_as_xyz
  'x, y, z'

loop_
  _atom_site_label
  _atom_site_occupancy
  _atom_site_fract_x
  _atom_site_fract_y
  _atom_site_fract_z
  _atom_site_thermal_displace_type
  _atom_site_B_iso_or_equiv
  _atom_site_type_symbol
  Ni1      1.0000 0.34940  0.61960  0.89920  Biso   1.000  Ni
  Ni2      1.0000 0.34040  0.62810  0.92340  Biso   1.000  Ni
  Ni3      1.0000 0.34410  0.64290  0.92310  Biso   1.000  Ni
  Ni4      1.0000 0.38010  0.63220  0.90340  Biso   1.000  Ni
  Ni5      1.0000 0.36300  0.60270  0.92440  Biso   1.000  Ni
  Ni6      1.0000 0.36230  0.62280  0.93000  Biso   1.000  Ni
  Ni7      1.0000 0.35610  0.65340  0.88840  Biso   1.000  Ni
  O1       1.0000 0.39450  0.58440  0.93980  Biso   1.000  O
  O2       1.0000 0.38870  0.59230  0.95300  Biso   1.000  O
  O3       1.0000 0.45420  0.63120  0.95250  Biso   1.000  O
  O4       1.0000 0.45970  0.62690  0.94100  Biso   1.000  O
  C1       1.0000 0.43110  0.59570  0.96310  Biso   1.000  C
  C2       1.0000 0.44530  0.56900  0.00340  Biso   1.000  C
  C3       1.0000 0.48260  0.58090  0.03030  Biso   1.000  C
  O5       1.0000 0.36780  0.57940  0.84120  Biso   1.000  O
  O6       1.0000 0.40830  0.65990  0.87490  Biso   1.000  O
  C4       1.0000 0.41320  0.59100  0.82540  Biso   1.000  C
  C5       1.0000 0.42050  0.60620  0.83120  Biso   1.000  C
  C6       1.0000 0.41620  0.57440  0.77440  Biso   1.000  C
  C7       1.0000 0.43100  0.59040  0.78100  Biso   1.000  C
  N1       1.0000 0.33450  0.66810  0.95580  Biso   1.000  N
  C8       1.0000 0.32830  0.65570  0.99950  Biso   1.000  C
  C9       1.0000 0.31600  0.68530  0.03350  Biso   1.000  C
  C10      1.0000 0.30910  0.73070  0.02590  Biso   1.000  C
  C11      1.0000 0.31600  0.74340  0.98170  Biso   1.000  C
  C12      1.0000 0.32800  0.71300  0.94830  Biso   1.000  C
  N2       1.0000 0.33090  0.67940  0.95070  Biso   1.000  N
  C13      1.0000 0.32400  0.67060  0.99520  Biso   1.000  C
  C14      1.0000 0.31410  0.70320  0.02710  Biso   1.000  C
  C15      1.0000 0.31030  0.74840  0.01620  Biso   1.000  C
  C16      1.0000 0.31740  0.75740  0.97110  Biso   1.000  C
  C17      1.0000 0.32670  0.72390  0.94000  Biso   1.000  C
  H1       1.0000 0.50000  0.60900  0.02200  Biso   1.000  H
  H2       1.0000 0.43600  0.57500  0.84400  Biso   1.000  H
  H3       1.0000 0.44200  0.59100  0.85200  Biso   1.000  H
  H4       1.0000 0.41200  0.54100  0.77300  Biso   1.000  H
  H5       1.0000 0.44600  0.58300  0.76200  Biso   1.000  H
  H6       1.0000 0.39200  0.58900  0.75600  Biso   1.000  H
  H7       1.0000 0.42800  0.55700  0.77900  Biso   1.000  H
  H8       1.0000 0.46200  0.60000  0.77300  Biso   1.000  H
  H9       1.0000 0.40900  0.60500  0.76000  Biso   1.000  H
  H10      1.0000 0.33300  0.62300  0.00800  Biso   1.000  H
  H11      1.0000 0.31200  0.67300  0.06500  Biso   1.000  H
  H12      1.0000 0.30000  0.75200  0.05000  Biso   1.000  H
  H13      1.0000 0.31200  0.77600  0.97300  Biso   1.000  H
  H14      1.0000 0.33200  0.72500  0.91700  Biso   1.000  H
  H15      1.0000 0.32600  0.63800  0.00500  Biso   1.000  H
  H16      1.0000 0.31000  0.69400  0.05900  Biso   1.000  H
  H17      1.0000 0.30300  0.77200  0.03900  Biso   1.000  H
  H18      1.0000 0.31600  0.78900  0.96000  Biso   1.000  H
  H19      1.0000 0.33000  0.73300  0.90800  Biso   1.000  H
  Ni8      1.0000 0.15060  0.38040  0.39920  Biso   1.000  Ni
  Ni9      1.0000 0.15960  0.37190  0.42340  Biso   1.000  Ni
  Ni10     1.0000 0.15590  0.35710  0.42310  Biso   1.000  Ni
  Ni11     1.0000 0.11990  0.36780  0.40340  Biso   1.000  Ni
  Ni12     1.0000 0.13700  0.39730  0.42440  Biso   1.000  Ni
  Ni13     1.0000 0.13770  0.37720  0.43000  Biso   1.000  Ni
  Ni14     1.0000 0.14390  0.34660  0.38840  Biso   1.000  Ni
  O7       1.0000 0.10550  0.41560  0.43980  Biso   1.000  O
  O8       1.0000 0.11130  0.40770  0.45300  Biso   1.000  O
  O9       1.0000 0.04580  0.36880  0.45250  Biso   1.000  O
  O10      1.0000 0.04030  0.37310  0.44100  Biso   1.000  O
  C18      1.0000 0.06890  0.40430  0.46310  Biso   1.000  C
  C19      1.0000 0.05470  0.43100  0.50340  Biso   1.000  C
  C20      1.0000 0.01740  0.41910  0.53030  Biso   1.000  C
  O11      1.0000 0.13220  0.42060  0.34120  Biso   1.000  O
  O12      1.0000 0.09170  0.34010  0.37490  Biso   1.000  O
  C21      1.0000 0.08680  0.40900  0.32540  Biso   1.000  C
  C22      1.0000 0.07950  0.39380  0.33120  Biso   1.000  C
  C23      1.0000 0.08380  0.42560  0.27440  Biso   1.000  C
  C24      1.0000 0.06900  0.40960  0.28100  Biso   1.000  C
  N3       1.0000 0.16550  0.33190  0.45580  Biso   1.000  N
  C25      1.0000 0.17170  0.34430  0.49950  Biso   1.000  C
  C26      1.0000 0.18400  0.31470  0.53350  Biso   1.000  C
  C27      1.0000 0.19090  0.26930  0.52590  Biso   1.000  C
  C28      1.0000 0.18400  0.25660  0.48170  Biso   1.000  C
  C29      1.0000 0.17200  0.28700  0.44830  Biso   1.000  C
  N4       1.0000 0.16910  0.32060  0.45070  Biso   1.000  N
  C30      1.0000 0.17600  0.32940  0.49520  Biso   1.000  C
  C31      1.0000 0.18590  0.29680  0.52710  Biso   1.000  C
  C32      1.0000 0.18970  0.25160  0.51620  Biso   1.000  C
  C33      1.0000 0.18260  0.24260  0.47110  Biso   1.000  C
  C34      1.0000 0.17330  0.27610  0.44000  Biso   1.000  C
  H20      1.0000 0.00000  0.39100  0.52200  Biso   1.000  H
  H21      1.0000 0.06400  0.42500  0.34400  Biso   1.000  H
  H22      1.0000 0.05800  0.40900  0.35200  Biso   1.000  H
  H23      1.0000 0.08800  0.45900  0.27300  Biso   1.000  H
  H24      1.0000 0.05400  0.41700  0.26200  Biso   1.000  H
  H25      1.0000 0.10800  0.41100  0.25600  Biso   1.000  H
  H26      1.0000 0.07200  0.44300  0.27900  Biso   1.000  H
  H27      1.0000 0.03800  0.40000  0.27300  Biso   1.000  H
  H28      1.0000 0.09100  0.39500  0.26000  Biso   1.000  H
  H29      1.0000 0.16700  0.37700  0.50800  Biso   1.000  H
  H30      1.0000 0.18800  0.32700  0.56500  Biso   1.000  H
  H31      1.0000 0.20000  0.24800  0.55000  Biso   1.000  H
  H32      1.0000 0.18800  0.22400  0.47300  Biso   1.000  H
  H33      1.0000 0.16800  0.27500  0.41700  Biso   1.000  H
  H34      1.0000 0.17400  0.36200  0.50500  Biso   1.000  H
  H35      1.0000 0.19000  0.30600  0.55900  Biso   1.000  H
  H36      1.0000 0.19700  0.22800  0.53900  Biso   1.000  H
  H37      1.0000 0.18400  0.21100  0.46000  Biso   1.000  H
  H38      1.0000 0.17000  0.26700  0.40800  Biso   1.000  H
  Ni15     1.0000 0.65060  0.11960  0.60080  Biso   1.000  Ni
  Ni16     1.0000 0.65960  0.12810  0.57660  Biso   1.000  Ni
  Ni17     1.0000 0.65590  0.14290  0.57690  Biso   1.000  Ni
  Ni18     1.0000 0.61990  0.13220  0.59660  Biso   1.000  Ni
  Ni19     1.0000 0.63700  0.10270  0.57560  Biso   1.000  Ni
  Ni20     1.0000 0.63770  0.12280  0.57000  Biso   1.000  Ni
  Ni21     1.0000 0.64390  0.15340  0.61160  Biso   1.000  Ni
  O13      1.0000 0.60550  0.08440  0.56020  Biso   1.000  O
  O14      1.0000 0.61130  0.09230  0.54700  Biso   1.000  O
  O15      1.0000 0.54580  0.13120  0.54750  Biso   1.000  O
  O16      1.0000 0.54030  0.12690  0.55900  Biso   1.000  O
  C35      1.0000 0.56890  0.09570  0.53690  Biso   1.000  C
  C36      1.0000 0.55470  0.06900  0.49660  Biso   1.000  C
  C37      1.0000 0.51740  0.08090  0.46970  Biso   1.000  C
  O17      1.0000 0.63220  0.07940  0.65880  Biso   1.000  O
  O18      1.0000 0.59170  0.15990  0.62510  Biso   1.000  O
  C38      1.0000 0.58680  0.09100  0.67460  Biso   1.000  C
  C39      1.0000 0.57950  0.10620  0.66880  Biso   1.000  C
  C40      1.0000 0.58380  0.07440  0.72560  Biso   1.000  C
  C41      1.0000 0.56900  0.09040  0.71900  Biso   1.000  C
  N5       1.0000 0.66550  0.16810  0.54420  Biso   1.000  N
  C42      1.0000 0.67170  0.15570  0.50050  Biso   1.000  C
  C43      1.0000 0.68400  0.18530  0.46650  Biso   1.000  C
  C44      1.0000 0.69090  0.23070  0.47410  Biso   1.000  C
  C45      1.0000 0.68400  0.24340  0.51830  Biso   1.000  C
  C46      1.0000 0.67200  0.21300  0.55170  Biso   1.000  C
  N6       1.0000 0.66910  0.17940  0.54930  Biso   1.000  N
  C47      1.0000 0.67600  0.17060  0.50480  Biso   1.000  C
  C48      1.0000 0.68590  0.20320  0.47290  Biso   1.000  C
  C49      1.0000 0.68970  0.24840  0.48380  Biso   1.000  C
  C50      1.0000 0.68260  0.25740  0.52890  Biso   1.000  C
  C51      1.0000 0.67330  0.22390  0.56000  Biso   1.000  C
  H39      1.0000 0.50000  0.10900  0.47800  Biso   1.000  H
  H40      1.0000 0.56400  0.07500  0.65600  Biso   1.000  H
  H41      1.0000 0.55800  0.09100  0.64800  Biso   1.000  H
  H42      1.0000 0.58800  0.04100  0.72700  Biso   1.000  H
  H43      1.0000 0.55400  0.08300  0.73800  Biso   1.000  H
  H44      1.0000 0.60800  0.08900  0.74400  Biso   1.000  H
  H45      1.0000 0.57200  0.05700  0.72100  Biso   1.000  H
  H46      1.0000 0.53800  0.10000  0.72700  Biso   1.000  H
  H47      1.0000 0.59100  0.10500  0.74000  Biso   1.000  H
  H48      1.0000 0.66700  0.12300  0.49200  Biso   1.000  H
  H49      1.0000 0.68800  0.17300  0.43500  Biso   1.000  H
  H50      1.0000 0.70000  0.25200  0.45000  Biso   1.000  H
  H51      1.0000 0.68800  0.27600  0.52700  Biso   1.000  H
  H52      1.0000 0.66800  0.22500  0.58300  Biso   1.000  H
  H53      1.0000 0.67400  0.13800  0.49500  Biso   1.000  H
  H54      1.0000 0.69000  0.19400  0.44100  Biso   1.000  H
  H55      1.0000 0.69700  0.27200  0.46100  Biso   1.000  H
  H56      1.0000 0.68400  0.28900  0.54000  Biso   1.000  H
  H57      1.0000 0.67000  0.23300  0.59200  Biso   1.000  H
  Ni22     1.0000 0.84940  0.88040  0.10080  Biso   1.000  Ni
  Ni23     1.0000 0.84040  0.87190  0.07660  Biso   1.000  Ni
  Ni24     1.0000 0.84410  0.85710  0.07690  Biso   1.000  Ni
  Ni25     1.0000 0.88010  0.86780  0.09660  Biso   1.000  Ni
  Ni26     1.0000 0.86300  0.89730  0.07560  Biso   1.000  Ni
  Ni27     1.0000 0.86230  0.87720  0.07000  Biso   1.000  Ni
  Ni28     1.0000 0.85610  0.84660  0.11160  Biso   1.000  Ni
  O19      1.0000 0.89450  0.91560  0.06020  Biso   1.000  O
  O20      1.0000 0.88870  0.90770  0.04700  Biso   1.000  O
  O21      1.0000 0.95420  0.86880  0.04750  Biso   1.000  O
  O22      1.0000 0.95970  0.87310  0.05900  Biso   1.000  O
  C52      1.0000 0.93110  0.90430  0.03690  Biso   1.000  C
  C53      1.0000 0.94530  0.93100  0.99660  Biso   1.000  C
  C54      1.0000 0.98260  0.91910  0.96970  Biso   1.000  C
  O23      1.0000 0.86780  0.92060  0.15880  Biso   1.000  O
  O24      1.0000 0.90830  0.84010  0.12510  Biso   1.000  O
  C55      1.0000 0.91320  0.90900  0.17460  Biso   1.000  C
  C56      1.0000 0.92050  0.89380  0.16880  Biso   1.000  C
  C57      1.0000 0.91620  0.92560  0.22560  Biso   1.000  C
  C58      1.0000 0.93100  0.90960  0.21900  Biso   1.000  C
  N7       1.0000 0.83450  0.83190  0.04420  Biso   1.000  N
  C59      1.0000 0.82830  0.84430  0.00050  Biso   1.000  C
  C60      1.0000 0.81600  0.81470  0.96650  Biso   1.000  C
  C61      1.0000 0.80910  0.76930  0.97410  Biso   1.000  C
  C62      1.0000 0.81600  0.75660  0.01830  Biso   1.000  C
  C63      1.0000 0.82800  0.78700  0.05170  Biso   1.000  C
  N8       1.0000 0.83090  0.82060  0.04930  Biso   1.000  N
  C64      1.0000 0.82400  0.82940  0.00480  Biso   1.000  C
  C65      1.0000 0.81410  0.79680  0.97290  Biso   1.000  C
  C66      1.0000 0.81030  0.75160  0.98380  Biso   1.000  C
  C67      1.0000 0.81740  0.74260  0.02890  Biso   1.000  C
  C68      1.0000 0.82670  0.77610  0.06000  Biso   1.000  C
  H58      1.0000 0.00000  0.89100  0.97800  Biso   1.000  H
  H59      1.0000 0.93600  0.92500  0.15600  Biso   1.000  H
  H60      1.0000 0.94200  0.90900  0.14800  Biso   1.000  H
  H61      1.0000 0.91200  0.95900  0.22700  Biso   1.000  H
  H62      1.0000 0.94600  0.91700  0.23800  Biso   1.000  H
  H63      1.0000 0.89200  0.91100  0.24400  Biso   1.000  H
  H64      1.0000 0.92800  0.94300  0.22100  Biso   1.000  H
  H65      1.0000 0.96200  0.90000  0.22700  Biso   1.000  H
  H66      1.0000 0.90900  0.89500  0.24000  Biso   1.000  H
  H67      1.0000 0.83300  0.87700  0.99200  Biso   1.000  H
  H68      1.0000 0.81200  0.82700  0.93500  Biso   1.000  H
  H69      1.0000 0.80000  0.74800  0.95000  Biso   1.000  H
  H70      1.0000 0.81200  0.72400  0.02700  Biso   1.000  H
  H71      1.0000 0.83200  0.77500  0.08300  Biso   1.000  H
  H72      1.0000 0.82600  0.86200  0.99500  Biso   1.000  H
  H73      1.0000 0.81000  0.80600  0.94100  Biso   1.000  H
  H74      1.0000 0.80300  0.72800  0.96100  Biso   1.000  H
  H75      1.0000 0.81600  0.71100  0.04000  Biso   1.000  H
  H76      1.0000 0.83000  0.76700  0.09200  Biso   1.000  H
  Ni29     1.0000 0.89920  0.34940  0.61960  Biso   1.000  Ni
  Ni30     1.0000 0.92340  0.34040  0.62810  Biso   1.000  Ni
  Ni31     1.0000 0.92310  0.34410  0.64290  Biso   1.000  Ni
  Ni32     1.0000 0.90340  0.38010  0.63220  Biso   1.000  Ni
  Ni33     1.0000 0.92440  0.36300  0.60270  Biso   1.000  Ni
  Ni34     1.0000 0.93000  0.36230  0.62280  Biso   1.000  Ni
  Ni35     1.0000 0.88840  0.35610  0.65340  Biso   1.000  Ni
  O25      1.0000 0.93980  0.39450  0.58440  Biso   1.000  O
  O26      1.0000 0.95300  0.38870  0.59230  Biso   1.000  O
  O27      1.0000 0.95250  0.45420  0.63120  Biso   1.000  O
  O28      1.0000 0.94100  0.45970  0.62690  Biso   1.000  O
  C69      1.0000 0.96310  0.43110  0.59570  Biso   1.000  C
  C70      1.0000 0.00340  0.44530  0.56900  Biso   1.000  C
  C71      1.0000 0.03030  0.48260  0.58090  Biso   1.000  C
  O29      1.0000 0.84120  0.36780  0.57940  Biso   1.000  O
  O30      1.0000 0.87490  0.40830  0.65990  Biso   1.000  O
  C72      1.0000 0.82540  0.41320  0.59100  Biso   1.000  C
  C73      1.0000 0.83120  0.42050  0.60620  Biso   1.000  C
  C74      1.0000 0.77440  0.41620  0.57440  Biso   1.000  C
  C75      1.0000 0.78100  0.43100  0.59040  Biso   1.000  C
  N9       1.0000 0.95580  0.33450  0.66810  Biso   1.000  N
  C76      1.0000 0.99950  0.32830  0.65570  Biso   1.000  C
  C77      1.0000 0.03350  0.31600  0.68530  Biso   1.000  C
  C78      1.0000 0.02590  0.30910  0.73070  Biso   1.000  C
  C79      1.0000 0.98170  0.31600  0.74340  Biso   1.000  C
  C80      1.0000 0.94830  0.32800  0.71300  Biso   1.000  C
  N10      1.0000 0.95070  0.33090  0.67940  Biso   1.000  N
  C81      1.0000 0.99520  0.32400  0.67060  Biso   1.000  C
  C82      1.0000 0.02710  0.31410  0.70320  Biso   1.000  C
  C83      1.0000 0.01620  0.31030  0.74840  Biso   1.000  C
  C84      1.0000 0.97110  0.31740  0.75740  Biso   1.000  C
  C85      1.0000 0.94000  0.32670  0.72390  Biso   1.000  C
  H77      1.0000 0.02200  0.50000  0.60900  Biso   1.000  H
  H78      1.0000 0.84400  0.43600  0.57500  Biso   1.000  H
  H79      1.0000 0.85200  0.44200  0.59100  Biso   1.000  H
  H80      1.0000 0.77300  0.41200  0.54100  Biso   1.000  H
  H81      1.0000 0.76200  0.44600  0.58300  Biso   1.000  H
  H82      1.0000 0.75600  0.39200  0.58900  Biso   1.000  H
  H83      1.0000 0.77900  0.42800  0.55700  Biso   1.000  H
  H84      1.0000 0.77300  0.46200  0.60000  Biso   1.000  H
  H85      1.0000 0.76000  0.40900  0.60500  Biso   1.000  H
  H86      1.0000 0.00800  0.33300  0.62300  Biso   1.000  H
  H87      1.0000 0.06500  0.31200  0.67300  Biso   1.000  H
  H88      1.0000 0.05000  0.30000  0.75200  Biso   1.000  H
  H89      1.0000 0.97300  0.31200  0.77600  Biso   1.000  H
  H90      1.0000 0.91700  0.33200  0.72500  Biso   1.000  H
  H91      1.0000 0.00500  0.32600  0.63800  Biso   1.000  H
  H92      1.0000 0.05900  0.31000  0.69400  Biso   1.000  H
  H93      1.0000 0.03900  0.30300  0.77200  Biso   1.000  H
  H94      1.0000 0.96000  0.31600  0.78900  Biso   1.000  H
  H95      1.0000 0.90800  0.33000  0.73300  Biso   1.000  H
  Ni36     1.0000 0.39920  0.15060  0.38040  Biso   1.000  Ni
  Ni37     1.0000 0.42340  0.15960  0.37190  Biso   1.000  Ni
  Ni38     1.0000 0.42310  0.15590  0.35710  Biso   1.000  Ni
  Ni39     1.0000 0.40340  0.11990  0.36780  Biso   1.000  Ni
  Ni40     1.0000 0.42440  0.13700  0.39730  Biso   1.000  Ni
  Ni41     1.0000 0.43000  0.13770  0.37720  Biso   1.000  Ni
  Ni42     1.0000 0.38840  0.14390  0.34660  Biso   1.000  Ni
  O31      1.0000 0.43980  0.10550  0.41560  Biso   1.000  O
  O32      1.0000 0.45300  0.11130  0.40770  Biso   1.000  O
  O33      1.0000 0.45250  0.04580  0.36880  Biso   1.000  O
  O34      1.0000 0.44100  0.04030  0.37310  Biso   1.000  O
  C86      1.0000 0.46310  0.06890  0.40430  Biso   1.000  C
  C87      1.0000 0.50340  0.05470  0.43100  Biso   1.000  C
  C88      1.0000 0.53030  0.01740  0.41910  Biso   1.000  C
  O35      1.0000 0.34120  0.13220  0.42060  Biso   1.000  O
  O36      1.0000 0.37490  0.09170  0.34010  Biso   1.000  O
  C89      1.0000 0.32540  0.08680  0.40900  Biso   1.000  C
  C90      1.0000 0.33120  0.07950  0.39380  Biso   1.000  C
  C91      1.0000 0.27440  0.08380  0.42560  Biso   1.000  C
  C92      1.0000 0.28100  0.06900  0.40960  Biso   1.000  C
  N11      1.0000 0.45580  0.16550  0.33190  Biso   1.000  N
  C93      1.0000 0.49950  0.17170  0.34430  Biso   1.000  C
  C94      1.0000 0.53350  0.18400  0.31470  Biso   1.000  C
  C95      1.0000 0.52590  0.19090  0.26930  Biso   1.000  C
  C96      1.0000 0.48170  0.18400  0.25660  Biso   1.000  C
  C97      1.0000 0.44830  0.17200  0.28700  Biso   1.000  C
  N12      1.0000 0.45070  0.16910  0.32060  Biso   1.000  N
  C98      1.0000 0.49520  0.17600  0.32940  Biso   1.000  C
  C99      1.0000 0.52710  0.18590  0.29680  Biso   1.000  C
  C100     1.0000 0.51620  0.18970  0.25160  Biso   1.000  C
  C101     1.0000 0.47110  0.18260  0.24260  Biso   1.000  C
  C102     1.0000 0.44000  0.17330  0.27610  Biso   1.000  C
  H96      1.0000 0.52200  0.00000  0.39100  Biso   1.000  H
  H97      1.0000 0.34400  0.06400  0.42500  Biso   1.000  H
  H98      1.0000 0.35200  0.05800  0.40900  Biso   1.000  H
  H99      1.0000 0.27300  0.08800  0.45900  Biso   1.000  H
  H100     1.0000 0.26200  0.05400  0.41700  Biso   1.000  H
  H101     1.0000 0.25600  0.10800  0.41100  Biso   1.000  H
  H102     1.0000 0.27900  0.07200  0.44300  Biso   1.000  H
  H103     1.0000 0.27300  0.03800  0.40000  Biso   1.000  H
  H104     1.0000 0.26000  0.09100  0.39500  Biso   1.000  H
  H105     1.0000 0.50800  0.16700  0.37700  Biso   1.000  H
  H106     1.0000 0.56500  0.18800  0.32700  Biso   1.000  H
  H107     1.0000 0.55000  0.20000  0.24800  Biso   1.000  H
  H108     1.0000 0.47300  0.18800  0.22400  Biso   1.000  H
  H109     1.0000 0.41700  0.16800  0.27500  Biso   1.000  H
  H110     1.0000 0.50500  0.17400  0.36200  Biso   1.000  H
  H111     1.0000 0.55900  0.19000  0.30600  Biso   1.000  H
  H112     1.0000 0.53900  0.19700  0.22800  Biso   1.000  H
  H113     1.0000 0.46000  0.18400  0.21100  Biso   1.000  H
  H114     1.0000 0.40800  0.17000  0.26700  Biso   1.000  H
  Ni43     1.0000 0.60080  0.65060  0.11960  Biso   1.000  Ni
  Ni44     1.0000 0.57660  0.65960  0.12810  Biso   1.000  Ni
  Ni45     1.0000 0.57690  0.65590  0.14290  Biso   1.000  Ni
  Ni46     1.0000 0.59660  0.61990  0.13220  Biso   1.000  Ni
  Ni47     1.0000 0.57560  0.63700  0.10270  Biso   1.000  Ni
  Ni48     1.0000 0.57000  0.63770  0.12280  Biso   1.000  Ni
  Ni49     1.0000 0.61160  0.64390  0.15340  Biso   1.000  Ni
  O37      1.0000 0.56020  0.60550  0.08440  Biso   1.000  O
  O38      1.0000 0.54700  0.61130  0.09230  Biso   1.000  O
  O39      1.0000 0.54750  0.54580  0.13120  Biso   1.000  O
  O40      1.0000 0.55900  0.54030  0.12690  Biso   1.000  O
  C103     1.0000 0.53690  0.56890  0.09570  Biso   1.000  C
  C104     1.0000 0.49660  0.55470  0.06900  Biso   1.000  C
  C105     1.0000 0.46970  0.51740  0.08090  Biso   1.000  C
  O41      1.0000 0.65880  0.63220  0.07940  Biso   1.000  O
  O42      1.0000 0.62510  0.59170  0.15990  Biso   1.000  O
  C106     1.0000 0.67460  0.58680  0.09100  Biso   1.000  C
  C107     1.0000 0.66880  0.57950  0.10620  Biso   1.000  C
  C108     1.0000 0.72560  0.58380  0.07440  Biso   1.000  C
  C109     1.0000 0.71900  0.56900  0.09040  Biso   1.000  C
  N13      1.0000 0.54420  0.66550  0.16810  Biso   1.000  N
  C110     1.0000 0.50050  0.67170  0.15570  Biso   1.000  C
  C111     1.0000 0.46650  0.68400  0.18530  Biso   1.000  C
  C112     1.0000 0.47410  0.69090  0.23070  Biso   1.000  C
  C113     1.0000 0.51830  0.68400  0.24340  Biso   1.000  C
  C114     1.0000 0.55170  0.67200  0.21300  Biso   1.000  C
  N14      1.0000 0.54930  0.66910  0.17940  Biso   1.000  N
  C115     1.0000 0.50480  0.67600  0.17060  Biso   1.000  C
  C116     1.0000 0.47290  0.68590  0.20320  Biso   1.000  C
  C117     1.0000 0.48380  0.68970  0.24840  Biso   1.000  C
  C118     1.0000 0.52890  0.68260  0.25740  Biso   1.000  C
  C119     1.0000 0.56000  0.67330  0.22390  Biso   1.000  C
  H115     1.0000 0.47800  0.50000  0.10900  Biso   1.000  H
  H116     1.0000 0.65600  0.56400  0.07500  Biso   1.000  H
  H117     1.0000 0.64800  0.55800  0.09100  Biso   1.000  H
  H118     1.0000 0.72700  0.58800  0.04100  Biso   1.000  H
  H119     1.0000 0.73800  0.55400  0.08300  Biso   1.000  H
  H120     1.0000 0.74400  0.60800  0.08900  Biso   1.000  H
  H121     1.0000 0.72100  0.57200  0.05700  Biso   1.000  H
  H122     1.0000 0.72700  0.53800  0.10000  Biso   1.000  H
  H123     1.0000 0.74000  0.59100  0.10500  Biso   1.000  H
  H124     1.0000 0.49200  0.66700  0.12300  Biso   1.000  H
  H125     1.0000 0.43500  0.68800  0.17300  Biso   1.000  H
  H126     1.0000 0.45000  0.70000  0.25200  Biso   1.000  H
  H127     1.0000 0.52700  0.68800  0.27600  Biso   1.000  H
  H128     1.0000 0.58300  0.66800  0.22500  Biso   1.000  H
  H129     1.0000 0.49500  0.67400  0.13800  Biso   1.000  H
  H130     1.0000 0.44100  0.69000  0.19400  Biso   1.000  H
  H131     1.0000 0.46100  0.69700  0.27200  Biso   1.000  H
  H132     1.0000 0.54000  0.68400  0.28900  Biso   1.000  H
  H133     1.0000 0.59200  0.67000  0.23300  Biso   1.000  H
  Ni50     1.0000 0.10080  0.84940  0.88040  Biso   1.000  Ni
  Ni51     1.0000 0.07660  0.84040  0.87190  Biso   1.000  Ni
  Ni52     1.0000 0.07690  0.84410  0.85710  Biso   1.000  Ni
  Ni53     1.0000 0.09660  0.88010  0.86780  Biso   1.000  Ni
  Ni54     1.0000 0.07560  0.86300  0.89730  Biso   1.000  Ni
  Ni55     1.0000 0.07000  0.86230  0.87720  Biso   1.000  Ni
  Ni56     1.0000 0.11160  0.85610  0.84660  Biso   1.000  Ni
  O43      1.0000 0.06020  0.89450  0.91560  Biso   1.000  O
  O44      1.0000 0.04700  0.88870  0.90770  Biso   1.000  O
  O45      1.0000 0.04750  0.95420  0.86880  Biso   1.000  O
  O46      1.0000 0.05900  0.95970  0.87310  Biso   1.000  O
  C120     1.0000 0.03690  0.93110  0.90430  Biso   1.000  C
  C121     1.0000 0.99660  0.94530  0.93100  Biso   1.000  C
  C122     1.0000 0.96970  0.98260  0.91910  Biso   1.000  C
  O47      1.0000 0.15880  0.86780  0.92060  Biso   1.000  O
  O48      1.0000 0.12510  0.90830  0.84010  Biso   1.000  O
  C123     1.0000 0.17460  0.91320  0.90900  Biso   1.000  C
  C124     1.0000 0.16880  0.92050  0.89380  Biso   1.000  C
  C125     1.0000 0.22560  0.91620  0.92560  Biso   1.000  C
  C126     1.0000 0.21900  0.93100  0.90960  Biso   1.000  C
  N15      1.0000 0.04420  0.83450  0.83190  Biso   1.000  N
  C127     1.0000 0.00050  0.82830  0.84430  Biso   1.000  C
  C128     1.0000 0.96650  0.81600  0.81470  Biso   1.000  C
  C129     1.0000 0.97410  0.80910  0.76930  Biso   1.000  C
  C130     1.0000 0.01830  0.81600  0.75660  Biso   1.000  C
  C131     1.0000 0.05170  0.82800  0.78700  Biso   1.000  C
  N16      1.0000 0.04930  0.83090  0.82060  Biso   1.000  N
  C132     1.0000 0.00480  0.82400  0.82940  Biso   1.000  C
  C133     1.0000 0.97290  0.81410  0.79680  Biso   1.000  C
  C134     1.0000 0.98380  0.81030  0.75160  Biso   1.000  C
  C135     1.0000 0.02890  0.81740  0.74260  Biso   1.000  C
  C136     1.0000 0.06000  0.82670  0.77610  Biso   1.000  C
  H134     1.0000 0.97800  0.00000  0.89100  Biso   1.000  H
  H135     1.0000 0.15600  0.93600  0.92500  Biso   1.000  H
  H136     1.0000 0.14800  0.94200  0.90900  Biso   1.000  H
  H137     1.0000 0.22700  0.91200  0.95900  Biso   1.000  H
  H138     1.0000 0.23800  0.94600  0.91700  Biso   1.000  H
  H139     1.0000 0.24400  0.89200  0.91100  Biso   1.000  H
  H140     1.0000 0.22100  0.92800  0.94300  Biso   1.000  H
  H141     1.0000 0.22700  0.96200  0.90000  Biso   1.000  H
  H142     1.0000 0.24000  0.90900  0.89500  Biso   1.000  H
  H143     1.0000 0.99200  0.83300  0.87700  Biso   1.000  H
  H144     1.0000 0.93500  0.81200  0.82700  Biso   1.000  H
  H145     1.0000 0.95000  0.80000  0.74800  Biso   1.000  H
  H146     1.0000 0.02700  0.81200  0.72400  Biso   1.000  H
  H147     1.0000 0.08300  0.83200  0.77500  Biso   1.000  H
  H148     1.0000 0.99500  0.82600  0.86200  Biso   1.000  H
  H149     1.0000 0.94100  0.81000  0.80600  Biso   1.000  H
  H150     1.0000 0.96100  0.80300  0.72800  Biso   1.000  H
  H151     1.0000 0.04000  0.81600  0.71100  Biso   1.000  H
  H152     1.0000 0.09200  0.83000  0.76700  Biso   1.000  H
  Ni57     1.0000 0.61960  0.89920  0.34940  Biso   1.000  Ni
  Ni58     1.0000 0.62810  0.92340  0.34040  Biso   1.000  Ni
  Ni59     1.0000 0.64290  0.92310  0.34410  Biso   1.000  Ni
  Ni60     1.0000 0.63220  0.90340  0.38010  Biso   1.000  Ni
  Ni61     1.0000 0.60270  0.92440  0.36300  Biso   1.000  Ni
  Ni62     1.0000 0.62280  0.93000  0.36230  Biso   1.000  Ni
  Ni63     1.0000 0.65340  0.88840  0.35610  Biso   1.000  Ni
  O49      1.0000 0.58440  0.93980  0.39450  Biso   1.000  O
  O50      1.0000 0.59230  0.95300  0.38870  Biso   1.000  O
  O51      1.0000 0.63120  0.95250  0.45420  Biso   1.000  O
  O52      1.0000 0.62690  0.94100  0.45970  Biso   1.000  O
  C137     1.0000 0.59570  0.96310  0.43110  Biso   1.000  C
  C138     1.0000 0.56900  0.00340  0.44530  Biso   1.000  C
  C139     1.0000 0.58090  0.03030  0.48260  Biso   1.000  C
  O53      1.0000 0.57940  0.84120  0.36780  Biso   1.000  O
  O54      1.0000 0.65990  0.87490  0.40830  Biso   1.000  O
  C140     1.0000 0.59100  0.82540  0.41320  Biso   1.000  C
  C141     1.0000 0.60620  0.83120  0.42050  Biso   1.000  C
  C142     1.0000 0.57440  0.77440  0.41620  Biso   1.000  C
  C143     1.0000 0.59040  0.78100  0.43100  Biso   1.000  C
  N17      1.0000 0.66810  0.95580  0.33450  Biso   1.000  N
  C144     1.0000 0.65570  0.99950  0.32830  Biso   1.000  C
  C145     1.0000 0.68530  0.03350  0.31600  Biso   1.000  C
  C146     1.0000 0.73070  0.02590  0.30910  Biso   1.000  C
  C147     1.0000 0.74340  0.98170  0.31600  Biso   1.000  C
  C148     1.0000 0.71300  0.94830  0.32800  Biso   1.000  C
  N18      1.0000 0.67940  0.95070  0.33090  Biso   1.000  N
  C149     1.0000 0.67060  0.99520  0.32400  Biso   1.000  C
  C150     1.0000 0.70320  0.02710  0.31410  Biso   1.000  C
  C151     1.0000 0.74840  0.01620  0.31030  Biso   1.000  C
  C152     1.0000 0.75740  0.97110  0.31740  Biso   1.000  C
  C153     1.0000 0.72390  0.94000  0.32670  Biso   1.000  C
  H153     1.0000 0.60900  0.02200  0.50000  Biso   1.000  H
  H154     1.0000 0.57500  0.84400  0.43600  Biso   1.000  H
  H155     1.0000 0.59100  0.85200  0.44200  Biso   1.000  H
  H156     1.0000 0.54100  0.77300  0.41200  Biso   1.000  H
  H157     1.0000 0.58300  0.76200  0.44600  Biso   1.000  H
  H158     1.0000 0.58900  0.75600  0.39200  Biso   1.000  H
  H159     1.0000 0.55700  0.77900  0.42800  Biso   1.000  H
  H160     1.0000 0.60000  0.77300  0.46200  Biso   1.000  H
  H161     1.0000 0.60500  0.76000  0.40900  Biso   1.000  H
  H162     1.0000 0.62300  0.00800  0.33300  Biso   1.000  H
  H163     1.0000 0.67300  0.06500  0.31200  Biso   1.000  H
  H164     1.0000 0.75200  0.05000  0.30000  Biso   1.000  H
  H165     1.0000 0.77600  0.97300  0.31200  Biso   1.000  H
  H166     1.0000 0.72500  0.91700  0.33200  Biso   1.000  H
  H167     1.0000 0.63800  0.00500  0.32600  Biso   1.000  H
  H168     1.0000 0.69400  0.05900  0.31000  Biso   1.000  H
  H169     1.0000 0.77200  0.03900  0.30300  Biso   1.000  H
  H170     1.0000 0.78900  0.96000  0.31600  Biso   1.000  H
  H171     1.0000 0.73300  0.90800  0.33000  Biso   1.000  H
  Ni64     1.0000 0.38040  0.39920  0.15060  Biso   1.000  Ni
  Ni65     1.0000 0.37190  0.42340  0.15960  Biso   1.000  Ni
  Ni66     1.0000 0.35710  0.42310  0.15590  Biso   1.000  Ni
  Ni67     1.0000 0.36780  0.40340  0.11990  Biso   1.000  Ni
  Ni68     1.0000 0.39730  0.42440  0.13700  Biso   1.000  Ni
  Ni69     1.0000 0.37720  0.43000  0.13770  Biso   1.000  Ni
  Ni70     1.0000 0.34660  0.38840  0.14390  Biso   1.000  Ni
  O55      1.0000 0.41560  0.43980  0.10550  Biso   1.000  O
  O56      1.0000 0.40770  0.45300  0.11130  Biso   1.000  O
  O57      1.0000 0.36880  0.45250  0.04580  Biso   1.000  O
  O58      1.0000 0.37310  0.44100  0.04030  Biso   1.000  O
  C154     1.0000 0.40430  0.46310  0.06890  Biso   1.000  C
  C155     1.0000 0.43100  0.50340  0.05470  Biso   1.000  C
  C156     1.0000 0.41910  0.53030  0.01740  Biso   1.000  C
  O59      1.0000 0.42060  0.34120  0.13220  Biso   1.000  O
  O60      1.0000 0.34010  0.37490  0.09170  Biso   1.000  O
  C157     1.0000 0.40900  0.32540  0.08680  Biso   1.000  C
  C158     1.0000 0.39380  0.33120  0.07950  Biso   1.000  C
  C159     1.0000 0.42560  0.27440  0.08380  Biso   1.000  C
  C160     1.0000 0.40960  0.28100  0.06900  Biso   1.000  C
  N19      1.0000 0.33190  0.45580  0.16550  Biso   1.000  N
  C161     1.0000 0.34430  0.49950  0.17170  Biso   1.000  C
  C162     1.0000 0.31470  0.53350  0.18400  Biso   1.000  C
  C163     1.0000 0.26930  0.52590  0.19090  Biso   1.000  C
  C164     1.0000 0.25660  0.48170  0.18400  Biso   1.000  C
  C165     1.0000 0.28700  0.44830  0.17200  Biso   1.000  C
  N20      1.0000 0.32060  0.45070  0.16910  Biso   1.000  N
  C166     1.0000 0.32940  0.49520  0.17600  Biso   1.000  C
  C167     1.0000 0.29680  0.52710  0.18590  Biso   1.000  C
  C168     1.0000 0.25160  0.51620  0.18970  Biso   1.000  C
  C169     1.0000 0.24260  0.47110  0.18260  Biso   1.000  C
  C170     1.0000 0.27610  0.44000  0.17330  Biso   1.000  C
  H172     1.0000 0.39100  0.52200  0.00000  Biso   1.000  H
  H173     1.0000 0.42500  0.34400  0.06400  Biso   1.000  H
  H174     1.0000 0.40900  0.35200  0.05800  Biso   1.000  H
  H175     1.0000 0.45900  0.27300  0.08800  Biso   1.000  H
  H176     1.0000 0.41700  0.26200  0.05400  Biso   1.000  H
  H177     1.0000 0.41100  0.25600  0.10800  Biso   1.000  H
  H178     1.0000 0.44300  0.27900  0.07200  Biso   1.000  H
  H179     1.0000 0.40000  0.27300  0.03800  Biso   1.000  H
  H180     1.0000 0.39500  0.26000  0.09100  Biso   1.000  H
  H181     1.0000 0.37700  0.50800  0.16700  Biso   1.000  H
  H182     1.0000 0.32700  0.56500  0.18800  Biso   1.000  H
  H183     1.0000 0.24800  0.55000  0.20000  Biso   1.000  H
  H184     1.0000 0.22400  0.47300  0.18800  Biso   1.000  H
  H185     1.0000 0.27500  0.41700  0.16800  Biso   1.000  H
  H186     1.0000 0.36200  0.50500  0.17400  Biso   1.000  H
  H187     1.0000 0.30600  0.55900  0.19000  Biso   1.000  H
  H188     1.0000 0.22800  0.53900  0.19700  Biso   1.000  H
  H189     1.0000 0.21100  0.46000  0.18400  Biso   1.000  H
  H190     1.0000 0.26700  0.40800  0.17000  Biso   1.000  H
  Ni71     1.0000 0.11960  0.60080  0.65060  Biso   1.000  Ni
  Ni72     1.0000 0.12810  0.57660  0.65960  Biso   1.000  Ni
  Ni73     1.0000 0.14290  0.57690  0.65590  Biso   1.000  Ni
  Ni74     1.0000 0.13220  0.59660  0.61990  Biso   1.000  Ni
  Ni75     1.0000 0.10270  0.57560  0.63700  Biso   1.000  Ni
  Ni76     1.0000 0.12280  0.57000  0.63770  Biso   1.000  Ni
  Ni77     1.0000 0.15340  0.61160  0.64390  Biso   1.000  Ni
  O61      1.0000 0.08440  0.56020  0.60550  Biso   1.000  O
  O62      1.0000 0.09230  0.54700  0.61130  Biso   1.000  O
  O63      1.0000 0.13120  0.54750  0.54580  Biso   1.000  O
  O64      1.0000 0.12690  0.55900  0.54030  Biso   1.000  O
  C171     1.0000 0.09570  0.53690  0.56890  Biso   1.000  C
  C172     1.0000 0.06900  0.49660  0.55470  Biso   1.000  C
  C173     1.0000 0.08090  0.46970  0.51740  Biso   1.000  C
  O65      1.0000 0.07940  0.65880  0.63220  Biso   1.000  O
  O66      1.0000 0.15990  0.62510  0.59170  Biso   1.000  O
  C174     1.0000 0.09100  0.67460  0.58680  Biso   1.000  C
  C175     1.0000 0.10620  0.66880  0.57950  Biso   1.000  C
  C176     1.0000 0.07440  0.72560  0.58380  Biso   1.000  C
  C177     1.0000 0.09040  0.71900  0.56900  Biso   1.000  C
  N21      1.0000 0.16810  0.54420  0.66550  Biso   1.000  N
  C178     1.0000 0.15570  0.50050  0.67170  Biso   1.000  C
  C179     1.0000 0.18530  0.46650  0.68400  Biso   1.000  C
  C180     1.0000 0.23070  0.47410  0.69090  Biso   1.000  C
  C181     1.0000 0.24340  0.51830  0.68400  Biso   1.000  C
  C182     1.0000 0.21300  0.55170  0.67200  Biso   1.000  C
  N22      1.0000 0.17940  0.54930  0.66910  Biso   1.000  N
  C183     1.0000 0.17060  0.50480  0.67600  Biso   1.000  C
  C184     1.0000 0.20320  0.47290  0.68590  Biso   1.000  C
  C185     1.0000 0.24840  0.48380  0.68970  Biso   1.000  C
  C186     1.0000 0.25740  0.52890  0.68260  Biso   1.000  C
  C187     1.0000 0.22390  0.56000  0.67330  Biso   1.000  C
  H191     1.0000 0.10900  0.47800  0.50000  Biso   1.000  H
  H192     1.0000 0.07500  0.65600  0.56400  Biso   1.000  H
  H193     1.0000 0.09100  0.64800  0.55800  Biso   1.000  H
  H194     1.0000 0.04100  0.72700  0.58800  Biso   1.000  H
  H195     1.0000 0.08300  0.73800  0.55400  Biso   1.000  H
  H196     1.0000 0.08900  0.74400  0.60800  Biso   1.000  H
  H197     1.0000 0.05700  0.72100  0.57200  Biso   1.000  H
  H198     1.0000 0.10000  0.72700  0.53800  Biso   1.000  H
  H199     1.0000 0.10500  0.74000  0.59100  Biso   1.000  H
  H200     1.0000 0.12300  0.49200  0.66700  Biso   1.000  H
  H201     1.0000 0.17300  0.43500  0.68800  Biso   1.000  H
  H202     1.0000 0.25200  0.45000  0.70000  Biso   1.000  H
  H203     1.0000 0.27600  0.52700  0.68800  Biso   1.000  H
  H204     1.0000 0.22500  0.58300  0.66800  Biso   1.000  H
  H205     1.0000 0.13800  0.49500  0.67400  Biso   1.000  H
  H206     1.0000 0.19400  0.44100  0.69000  Biso   1.000  H
  H207     1.0000 0.27200  0.46100  0.69700  Biso   1.000  H
  H208     1.0000 0.28900  0.54000  0.68400  Biso   1.000  H
  H209     1.0000 0.23300  0.59200  0.67000  Biso   1.000  H
  Ni78     1.0000 0.88040  0.10080  0.84940  Biso   1.000  Ni
  Ni79     1.0000 0.87190  0.07660  0.84040  Biso   1.000  Ni
  Ni80     1.0000 0.85710  0.07690  0.84410  Biso   1.000  Ni
  Ni81     1.0000 0.86780  0.09660  0.88010  Biso   1.000  Ni
  Ni82     1.0000 0.89730  0.07560  0.86300  Biso   1.000  Ni
  Ni83     1.0000 0.87720  0.07000  0.86230  Biso   1.000  Ni
  Ni84     1.0000 0.84660  0.11160  0.85610  Biso   1.000  Ni
  O67      1.0000 0.91560  0.06020  0.89450  Biso   1.000  O
  O68      1.0000 0.90770  0.04700  0.88870  Biso   1.000  O
  O69      1.0000 0.86880  0.04750  0.95420  Biso   1.000  O
  O70      1.0000 0.87310  0.05900  0.95970  Biso   1.000  O
  C188     1.0000 0.90430  0.03690  0.93110  Biso   1.000  C
  C189     1.0000 0.93100  0.99660  0.94530  Biso   1.000  C
  C190     1.0000 0.91910  0.96970  0.98260  Biso   1.000  C
  O71      1.0000 0.92060  0.15880  0.86780  Biso   1.000  O
  O72      1.0000 0.84010  0.12510  0.90830  Biso   1.000  O
  C191     1.0000 0.90900  0.17460  0.91320  Biso   1.000  C
  C192     1.0000 0.89380  0.16880  0.92050  Biso   1.000  C
  C193     1.0000 0.92560  0.22560  0.91620  Biso   1.000  C
  C194     1.0000 0.90960  0.21900  0.93100  Biso   1.000  C
  N23      1.0000 0.83190  0.04420  0.83450  Biso   1.000  N
  C195     1.0000 0.84430  0.00050  0.82830  Biso   1.000  C
  C196     1.0000 0.81470  0.96650  0.81600  Biso   1.000  C
  C197     1.0000 0.76930  0.97410  0.80910  Biso   1.000  C
  C198     1.0000 0.75660  0.01830  0.81600  Biso   1.000  C
  C199     1.0000 0.78700  0.05170  0.82800  Biso   1.000  C
  N24      1.0000 0.82060  0.04930  0.83090  Biso   1.000  N
  C200     1.0000 0.82940  0.00480  0.82400  Biso   1.000  C
  C201     1.0000 0.79680  0.97290  0.81410  Biso   1.000  C
  C202     1.0000 0.75160  0.98380  0.81030  Biso   1.000  C
  C203     1.0000 0.74260  0.02890  0.81740  Biso   1.000  C
  C204     1.0000 0.77610  0.06000  0.82670  Biso   1.000  C
  H210     1.0000 0.89100  0.97800  0.00000  Biso   1.000  H
  H211     1.0000 0.92500  0.15600  0.93600  Biso   1.000  H
  H212     1.0000 0.90900  0.14800  0.94200  Biso   1.000  H
  H213     1.0000 0.95900  0.22700  0.91200  Biso   1.000  H
  H214     1.0000 0.91700  0.23800  0.94600  Biso   1.000  H
  H215     1.0000 0.91100  0.24400  0.89200  Biso   1.000  H
  H216     1.0000 0.94300  0.22100  0.92800  Biso   1.000  H
  H217     1.0000 0.90000  0.22700  0.96200  Biso   1.000  H
  H218     1.0000 0.89500  0.24000  0.90900  Biso   1.000  H
  H219     1.0000 0.87700  0.99200  0.83300  Biso   1.000  H
  H220     1.0000 0.82700  0.93500  0.81200  Biso   1.000  H
  H221     1.0000 0.74800  0.95000  0.80000  Biso   1.000  H
  H222     1.0000 0.72400  0.02700  0.81200  Biso   1.000  H
  H223     1.0000 0.77500  0.08300  0.83200  Biso   1.000  H
  H224     1.0000 0.86200  0.99500  0.82600  Biso   1.000  H
  H225     1.0000 0.80600  0.94100  0.81000  Biso   1.000  H
  H226     1.0000 0.72800  0.96100  0.80300  Biso   1.000  H
  H227     1.0000 0.71100  0.04000  0.81600  Biso   1.000  H
  H228     1.0000 0.76700  0.09200  0.83000  Biso   1.000  H
  Ni85     1.0000 0.86960  0.09940  0.85080  Biso   1.000  Ni
  Ni86     1.0000 0.87810  0.09040  0.82660  Biso   1.000  Ni
  Ni87     1.0000 0.89290  0.09410  0.82690  Biso   1.000  Ni
  Ni88     1.0000 0.88220  0.13010  0.84660  Biso   1.000  Ni
  Ni89     1.0000 0.85270  0.11300  0.82560  Biso   1.000  Ni
  Ni90     1.0000 0.87280  0.11230  0.82000  Biso   1.000  Ni
  Ni91     1.0000 0.90340  0.10610  0.86160  Biso   1.000  Ni
  O73      1.0000 0.83440  0.14450  0.81020  Biso   1.000  O
  O74      1.0000 0.84230  0.13870  0.79700  Biso   1.000  O
  O75      1.0000 0.88120  0.20420  0.79750  Biso   1.000  O
  O76      1.0000 0.87690  0.20970  0.80900  Biso   1.000  O
  C205     1.0000 0.84570  0.18110  0.78690  Biso   1.000  C
  C206     1.0000 0.81900  0.19530  0.74660  Biso   1.000  C
  C207     1.0000 0.83090  0.23260  0.71970  Biso   1.000  C
  O77      1.0000 0.82940  0.11780  0.90880  Biso   1.000  O
  O78      1.0000 0.90990  0.15830  0.87510  Biso   1.000  O
  C208     1.0000 0.84100  0.16320  0.92460  Biso   1.000  C
  C209     1.0000 0.85620  0.17050  0.91880  Biso   1.000  C
  C210     1.0000 0.82440  0.16620  0.97560  Biso   1.000  C
  C211     1.0000 0.84040  0.18100  0.96900  Biso   1.000  C
  N25      1.0000 0.91810  0.08450  0.79420  Biso   1.000  N
  C212     1.0000 0.90570  0.07830  0.75050  Biso   1.000  C
  C213     1.0000 0.93530  0.06600  0.71650  Biso   1.000  C
  C214     1.0000 0.98070  0.05910  0.72410  Biso   1.000  C
  C215     1.0000 0.99340  0.06600  0.76830  Biso   1.000  C
  C216     1.0000 0.96300  0.07800  0.80170  Biso   1.000  C
  N26      1.0000 0.92940  0.08090  0.79930  Biso   1.000  N
  C217     1.0000 0.92060  0.07400  0.75480  Biso   1.000  C
  C218     1.0000 0.95320  0.06410  0.72290  Biso   1.000  C
  C219     1.0000 0.99840  0.06030  0.73380  Biso   1.000  C
  C220     1.0000 0.00740  0.06740  0.77890  Biso   1.000  C
  C221     1.0000 0.97390  0.07670  0.81000  Biso   1.000  C
  H229     1.0000 0.85900  0.25000  0.72800  Biso   1.000  H
  H230     1.0000 0.82500  0.18600  0.90600  Biso   1.000  H
  H231     1.0000 0.84100  0.19200  0.89800  Biso   1.000  H
  H232     1.0000 0.79100  0.16200  0.97700  Biso   1.000  H
  H233     1.0000 0.83300  0.19600  0.98800  Biso   1.000  H
  H234     1.0000 0.83900  0.14200  0.99400  Biso   1.000  H
  H235     1.0000 0.80700  0.17800  0.97100  Biso   1.000  H
  H236     1.0000 0.85000  0.21200  0.97700  Biso   1.000  H
  H237     1.0000 0.85500  0.15900  0.99000  Biso   1.000  H
  H238     1.0000 0.87300  0.08300  0.74200  Biso   1.000  H
  H239     1.0000 0.92300  0.06200  0.68500  Biso   1.000  H
  H240     1.0000 0.00200  0.05000  0.70000  Biso   1.000  H
  H241     1.0000 0.02600  0.06200  0.77700  Biso   1.000  H
  H242     1.0000 0.97500  0.08200  0.83300  Biso   1.000  H
  H243     1.0000 0.88800  0.07600  0.74500  Biso   1.000  H
  H244     1.0000 0.94400  0.06000  0.69100  Biso   1.000  H
  H245     1.0000 0.02200  0.05300  0.71100  Biso   1.000  H
  H246     1.0000 0.03900  0.06600  0.79000  Biso   1.000  H
  H247     1.0000 0.98300  0.08000  0.84200  Biso   1.000  H
  Ni92     1.0000 0.63040  0.90060  0.35080  Biso   1.000  Ni
  Ni93     1.0000 0.62190  0.90960  0.32660  Biso   1.000  Ni
  Ni94     1.0000 0.60710  0.90590  0.32690  Biso   1.000  Ni
  Ni95     1.0000 0.61780  0.86990  0.34660  Biso   1.000  Ni
  Ni96     1.0000 0.64730  0.88700  0.32560  Biso   1.000  Ni
  Ni97     1.0000 0.62720  0.88770  0.32000  Biso   1.000  Ni
  Ni98     1.0000 0.59660  0.89390  0.36160  Biso   1.000  Ni
  O79      1.0000 0.66560  0.85550  0.31020  Biso   1.000  O
  O80      1.0000 0.65770  0.86130  0.29700  Biso   1.000  O
  O81      1.0000 0.61880  0.79580  0.29750  Biso   1.000  O
  O82      1.0000 0.62310  0.79030  0.30900  Biso   1.000  O
  C222     1.0000 0.65430  0.81890  0.28690  Biso   1.000  C
  C223     1.0000 0.68100  0.80470  0.24660  Biso   1.000  C
  C224     1.0000 0.66910  0.76740  0.21970  Biso   1.000  C
  O83      1.0000 0.67060  0.88220  0.40880  Biso   1.000  O
  O84      1.0000 0.59010  0.84170  0.37510  Biso   1.000  O
  C225     1.0000 0.65900  0.83680  0.42460  Biso   1.000  C
  C226     1.0000 0.64380  0.82950  0.41880  Biso   1.000  C
  C227     1.0000 0.67560  0.83380  0.47560  Biso   1.000  C
  C228     1.0000 0.65960  0.81900  0.46900  Biso   1.000  C
  N27      1.0000 0.58190  0.91550  0.29420  Biso   1.000  N
  C229     1.0000 0.59430  0.92170  0.25050  Biso   1.000  C
  C230     1.0000 0.56470  0.93400  0.21650  Biso   1.000  C
  C231     1.0000 0.51930  0.94090  0.22410  Biso   1.000  C
  C232     1.0000 0.50660  0.93400  0.26830  Biso   1.000  C
  C233     1.0000 0.53700  0.92200  0.30170  Biso   1.000  C
  N28      1.0000 0.57060  0.91910  0.29930  Biso   1.000  N
  C234     1.0000 0.57940  0.92600  0.25480  Biso   1.000  C
  C235     1.0000 0.54680  0.93590  0.22290  Biso   1.000  C
  C236     1.0000 0.50160  0.93970  0.23380  Biso   1.000  C
  C237     1.0000 0.49260  0.93260  0.27890  Biso   1.000  C
  C238     1.0000 0.52610  0.92330  0.31000  Biso   1.000  C
  H248     1.0000 0.64100  0.75000  0.22800  Biso   1.000  H
  H249     1.0000 0.67500  0.81400  0.40600  Biso   1.000  H
  H250     1.0000 0.65900  0.80800  0.39800  Biso   1.000  H
  H251     1.0000 0.70900  0.83800  0.47700  Biso   1.000  H
  H252     1.0000 0.66700  0.80400  0.48800  Biso   1.000  H
  H253     1.0000 0.66100  0.85800  0.49400  Biso   1.000  H
  H254     1.0000 0.69300  0.82200  0.47100  Biso   1.000  H
  H255     1.0000 0.65000  0.78800  0.47700  Biso   1.000  H
  H256     1.0000 0.64500  0.84100  0.49000  Biso   1.000  H
  H257     1.0000 0.62700  0.91700  0.24200  Biso   1.000  H
  H258     1.0000 0.57700  0.93800  0.18500  Biso   1.000  H
  H259     1.0000 0.49800  0.95000  0.20000  Biso   1.000  H
  H260     1.0000 0.47400  0.93800  0.27700  Biso   1.000  H
  H261     1.0000 0.52500  0.91800  0.33300  Biso   1.000  H
  H262     1.0000 0.61200  0.92400  0.24500  Biso   1.000  H
  H263     1.0000 0.55600  0.94000  0.19100  Biso   1.000  H
  H264     1.0000 0.47800  0.94700  0.21100  Biso   1.000  H
  H265     1.0000 0.46100  0.93400  0.29000  Biso   1.000  H
  H266     1.0000 0.51700  0.92000  0.34200  Biso   1.000  H
  Ni99     1.0000 0.36960  0.40060  0.14920  Biso   1.000  Ni
  Ni100    1.0000 0.37810  0.40960  0.17340  Biso   1.000  Ni
  Ni101    1.0000 0.39290  0.40590  0.17310  Biso   1.000  Ni
  Ni102    1.0000 0.38220  0.36990  0.15340  Biso   1.000  Ni
  Ni103    1.0000 0.35270  0.38700  0.17440  Biso   1.000  Ni
  Ni104    1.0000 0.37280  0.38770  0.18000  Biso   1.000  Ni
  Ni105    1.0000 0.40340  0.39390  0.13840  Biso   1.000  Ni
  O85      1.0000 0.33440  0.35550  0.18980  Biso   1.000  O
  O86      1.0000 0.34230  0.36130  0.20300  Biso   1.000  O
  O87      1.0000 0.38120  0.29580  0.20250  Biso   1.000  O
  O88      1.0000 0.37690  0.29030  0.19100  Biso   1.000  O
  C239     1.0000 0.34570  0.31890  0.21310  Biso   1.000  C
  C240     1.0000 0.31900  0.30470  0.25340  Biso   1.000  C
  C241     1.0000 0.33090  0.26740  0.28030  Biso   1.000  C
  O89      1.0000 0.32940  0.38220  0.09120  Biso   1.000  O
  O90      1.0000 0.40990  0.34170  0.12490  Biso   1.000  O
  C242     1.0000 0.34100  0.33680  0.07540  Biso   1.000  C
  C243     1.0000 0.35620  0.32950  0.08120  Biso   1.000  C
  C244     1.0000 0.32440  0.33380  0.02440  Biso   1.000  C
  C245     1.0000 0.34040  0.31900  0.03100  Biso   1.000  C
  N29      1.0000 0.41810  0.41550  0.20580  Biso   1.000  N
  C246     1.0000 0.40570  0.42170  0.24950  Biso   1.000  C
  C247     1.0000 0.43530  0.43400  0.28350  Biso   1.000  C
  C248     1.0000 0.48070  0.44090  0.27590  Biso   1.000  C
  C249     1.0000 0.49340  0.43400  0.23170  Biso   1.000  C
  C250     1.0000 0.46300  0.42200  0.19830  Biso   1.000  C
  N30      1.0000 0.42940  0.41910  0.20070  Biso   1.000  N
  C251     1.0000 0.42060  0.42600  0.24520  Biso   1.000  C
  C252     1.0000 0.45320  0.43590  0.27710  Biso   1.000  C
  C253     1.0000 0.49840  0.43970  0.26620  Biso   1.000  C
  C254     1.0000 0.50740  0.43260  0.22110  Biso   1.000  C
  C255     1.0000 0.47390  0.42330  0.19000  Biso   1.000  C
  H267     1.0000 0.35900  0.25000  0.27200  Biso   1.000  H
  H268     1.0000 0.32500  0.31400  0.09400  Biso   1.000  H
  H269     1.0000 0.34100  0.30800  0.10200  Biso   1.000  H
  H270     1.0000 0.29100  0.33800  0.02300  Biso   1.000  H
  H271     1.0000 0.33300  0.30400  0.01200  Biso   1.000  H
  H272     1.0000 0.33900  0.35800  0.00600  Biso   1.000  H
  H273     1.0000 0.30700  0.32200  0.02900  Biso   1.000  H
  H274     1.0000 0.35000  0.28800  0.02300  Biso   1.000  H
  H275     1.0000 0.35500  0.34100  0.01000  Biso   1.000  H
  H276     1.0000 0.37300  0.41700  0.25800  Biso   1.000  H
  H277     1.0000 0.42300  0.43800  0.31500  Biso   1.000  H
  H278     1.0000 0.50200  0.45000  0.30000  Biso   1.000  H
  H279     1.0000 0.52600  0.43800  0.22300  Biso   1.000  H
  H280     1.0000 0.47500  0.41800  0.16700  Biso   1.000  H
  H281     1.0000 0.38800  0.42400  0.25500  Biso   1.000  H
  H282     1.0000 0.44400  0.44000  0.30900  Biso   1.000  H
  H283     1.0000 0.52200  0.44700  0.28900  Biso   1.000  H
  H284     1.0000 0.53900  0.43400  0.21000  Biso   1.000  H
  H285     1.0000 0.48300  0.42000  0.15800  Biso   1.000  H
  Ni106    1.0000 0.13040  0.59940  0.64920  Biso   1.000  Ni
  Ni107    1.0000 0.12190  0.59040  0.67340  Biso   1.000  Ni
  Ni108    1.0000 0.10710  0.59410  0.67310  Biso   1.000  Ni
  Ni109    1.0000 0.11780  0.63010  0.65340  Biso   1.000  Ni
  Ni110    1.0000 0.14730  0.61300  0.67440  Biso   1.000  Ni
  Ni111    1.0000 0.12720  0.61230  0.68000  Biso   1.000  Ni
  Ni112    1.0000 0.09660  0.60610  0.63840  Biso   1.000  Ni
  O91      1.0000 0.16560  0.64450  0.68980  Biso   1.000  O
  O92      1.0000 0.15770  0.63870  0.70300  Biso   1.000  O
  O93      1.0000 0.11880  0.70420  0.70250  Biso   1.000  O
  O94      1.0000 0.12310  0.70970  0.69100  Biso   1.000  O
  C256     1.0000 0.15430  0.68110  0.71310  Biso   1.000  C
  C257     1.0000 0.18100  0.69530  0.75340  Biso   1.000  C
  C258     1.0000 0.16910  0.73260  0.78030  Biso   1.000  C
  O95      1.0000 0.17060  0.61780  0.59120  Biso   1.000  O
  O96      1.0000 0.09010  0.65830  0.62490  Biso   1.000  O
  C259     1.0000 0.15900  0.66320  0.57540  Biso   1.000  C
  C260     1.0000 0.14380  0.67050  0.58120  Biso   1.000  C
  C261     1.0000 0.17560  0.66620  0.52440  Biso   1.000  C
  C262     1.0000 0.15960  0.68100  0.53100  Biso   1.000  C
  N31      1.0000 0.08190  0.58450  0.70580  Biso   1.000  N
  C263     1.0000 0.09430  0.57830  0.74950  Biso   1.000  C
  C264     1.0000 0.06470  0.56600  0.78350  Biso   1.000  C
  C265     1.0000 0.01930  0.55910  0.77590  Biso   1.000  C
  C266     1.0000 0.00660  0.56600  0.73170  Biso   1.000  C
  C267     1.0000 0.03700  0.57800  0.69830  Biso   1.000  C
  N32      1.0000 0.07060  0.58090  0.70070  Biso   1.000  N
  C268     1.0000 0.07940  0.57400  0.74520  Biso   1.000  C
  C269     1.0000 0.04680  0.56410  0.77710  Biso   1.000  C
  C270     1.0000 0.00160  0.56030  0.76620  Biso   1.000  C
  C271     1.0000 0.99260  0.56740  0.72110  Biso   1.000  C
  C272     1.0000 0.02610  0.57670  0.69000  Biso   1.000  C
  H286     1.0000 0.14100  0.75000  0.77200  Biso   1.000  H
  H287     1.0000 0.17500  0.68600  0.59400  Biso   1.000  H
  H288     1.0000 0.15900  0.69200  0.60200  Biso   1.000  H
  H289     1.0000 0.20900  0.66200  0.52300  Biso   1.000  H
  H290     1.0000 0.16700  0.69600  0.51200  Biso   1.000  H
  H291     1.0000 0.16100  0.64200  0.50600  Biso   1.000  H
  H292     1.0000 0.19300  0.67800  0.52900  Biso   1.000  H
  H293     1.0000 0.15000  0.71200  0.52300  Biso   1.000  H
  H294     1.0000 0.14500  0.65900  0.51000  Biso   1.000  H
  H295     1.0000 0.12700  0.58300  0.75800  Biso   1.000  H
  H296     1.0000 0.07700  0.56200  0.81500  Biso   1.000  H
  H297     1.0000 0.99800  0.55000  0.80000  Biso   1.000  H
  H298     1.0000 0.97400  0.56200  0.72300  Biso   1.000  H
  H299     1.0000 0.02500  0.58200  0.66700  Biso   1.000  H
  H300     1.0000 0.11200  0.57600  0.75500  Biso   1.000  H
  H301     1.0000 0.05600  0.56000  0.80900  Biso   1.000  H
  H302     1.0000 0.97800  0.55300  0.78900  Biso   1.000  H
  H303     1.0000 0.96100  0.56600  0.71000  Biso   1.000  H
  H304     1.0000 0.01700  0.58000  0.65800  Biso   1.000  H
  Ni113    1.0000 0.59940  0.64920  0.13040  Biso   1.000  Ni
  Ni114    1.0000 0.59040  0.67340  0.12190  Biso   1.000  Ni
  Ni115    1.0000 0.59410  0.67310  0.10710  Biso   1.000  Ni
  Ni116    1.0000 0.63010  0.65340  0.11780  Biso   1.000  Ni
  Ni117    1.0000 0.61300  0.67440  0.14730  Biso   1.000  Ni
  Ni118    1.0000 0.61230  0.68000  0.12720  Biso   1.000  Ni
  Ni119    1.0000 0.60610  0.63840  0.09660  Biso   1.000  Ni
  O97      1.0000 0.64450  0.68980  0.16560  Biso   1.000  O
  O98      1.0000 0.63870  0.70300  0.15770  Biso   1.000  O
  O99      1.0000 0.70420  0.70250  0.11880  Biso   1.000  O
  O100     1.0000 0.70970  0.69100  0.12310  Biso   1.000  O
  C273     1.0000 0.68110  0.71310  0.15430  Biso   1.000  C
  C274     1.0000 0.69530  0.75340  0.18100  Biso   1.000  C
  C275     1.0000 0.73260  0.78030  0.16910  Biso   1.000  C
  O101     1.0000 0.61780  0.59120  0.17060  Biso   1.000  O
  O102     1.0000 0.65830  0.62490  0.09010  Biso   1.000  O
  C276     1.0000 0.66320  0.57540  0.15900  Biso   1.000  C
  C277     1.0000 0.67050  0.58120  0.14380  Biso   1.000  C
  C278     1.0000 0.66620  0.52440  0.17560  Biso   1.000  C
  C279     1.0000 0.68100  0.53100  0.15960  Biso   1.000  C
  N33      1.0000 0.58450  0.70580  0.08190  Biso   1.000  N
  C280     1.0000 0.57830  0.74950  0.09430  Biso   1.000  C
  C281     1.0000 0.56600  0.78350  0.06470  Biso   1.000  C
  C282     1.0000 0.55910  0.77590  0.01930  Biso   1.000  C
  C283     1.0000 0.56600  0.73170  0.00660  Biso   1.000  C
  C284     1.0000 0.57800  0.69830  0.03700  Biso   1.000  C
  N34      1.0000 0.58090  0.70070  0.07060  Biso   1.000  N
  C285     1.0000 0.57400  0.74520  0.07940  Biso   1.000  C
  C286     1.0000 0.56410  0.77710  0.04680  Biso   1.000  C
  C287     1.0000 0.56030  0.76620  0.00160  Biso   1.000  C
  C288     1.0000 0.56740  0.72110  0.99260  Biso   1.000  C
  C289     1.0000 0.57670  0.69000  0.02610  Biso   1.000  C
  H305     1.0000 0.75000  0.77200  0.14100  Biso   1.000  H
  H306     1.0000 0.68600  0.59400  0.17500  Biso   1.000  H
  H307     1.0000 0.69200  0.60200  0.15900  Biso   1.000  H
  H308     1.0000 0.66200  0.52300  0.20900  Biso   1.000  H
  H309     1.0000 0.69600  0.51200  0.16700  Biso   1.000  H
  H310     1.0000 0.64200  0.50600  0.16100  Biso   1.000  H
  H311     1.0000 0.67800  0.52900  0.19300  Biso   1.000  H
  H312     1.0000 0.71200  0.52300  0.15000  Biso   1.000  H
  H313     1.0000 0.65900  0.51000  0.14500  Biso   1.000  H
  H314     1.0000 0.58300  0.75800  0.12700  Biso   1.000  H
  H315     1.0000 0.56200  0.81500  0.07700  Biso   1.000  H
  H316     1.0000 0.55000  0.80000  0.99800  Biso   1.000  H
  H317     1.0000 0.56200  0.72300  0.97400  Biso   1.000  H
  H318     1.0000 0.58200  0.66700  0.02500  Biso   1.000  H
  H319     1.0000 0.57600  0.75500  0.11200  Biso   1.000  H
  H320     1.0000 0.56000  0.80900  0.05600  Biso   1.000  H
  H321     1.0000 0.55300  0.78900  0.97800  Biso   1.000  H
  H322     1.0000 0.56600  0.71000  0.96100  Biso   1.000  H
  H323     1.0000 0.58000  0.65800  0.01700  Biso   1.000  H
  Ni120    1.0000 0.40060  0.14920  0.36960  Biso   1.000  Ni
  Ni121    1.0000 0.40960  0.17340  0.37810  Biso   1.000  Ni
  Ni122    1.0000 0.40590  0.17310  0.39290  Biso   1.000  Ni
  Ni123    1.0000 0.36990  0.15340  0.38220  Biso   1.000  Ni
  Ni124    1.0000 0.38700  0.17440  0.35270  Biso   1.000  Ni
  Ni125    1.0000 0.38770  0.18000  0.37280  Biso   1.000  Ni
  Ni126    1.0000 0.39390  0.13840  0.40340  Biso   1.000  Ni
  O103     1.0000 0.35550  0.18980  0.33440  Biso   1.000  O
  O104     1.0000 0.36130  0.20300  0.34230  Biso   1.000  O
  O105     1.0000 0.29580  0.20250  0.38120  Biso   1.000  O
  O106     1.0000 0.29030  0.19100  0.37690  Biso   1.000  O
  C290     1.0000 0.31890  0.21310  0.34570  Biso   1.000  C
  C291     1.0000 0.30470  0.25340  0.31900  Biso   1.000  C
  C292     1.0000 0.26740  0.28030  0.33090  Biso   1.000  C
  O107     1.0000 0.38220  0.09120  0.32940  Biso   1.000  O
  O108     1.0000 0.34170  0.12490  0.40990  Biso   1.000  O
  C293     1.0000 0.33680  0.07540  0.34100  Biso   1.000  C
  C294     1.0000 0.32950  0.08120  0.35620  Biso   1.000  C
  C295     1.0000 0.33380  0.02440  0.32440  Biso   1.000  C
  C296     1.0000 0.31900  0.03100  0.34040  Biso   1.000  C
  N35      1.0000 0.41550  0.20580  0.41810  Biso   1.000  N
  C297     1.0000 0.42170  0.24950  0.40570  Biso   1.000  C
  C298     1.0000 0.43400  0.28350  0.43530  Biso   1.000  C
  C299     1.0000 0.44090  0.27590  0.48070  Biso   1.000  C
  C300     1.0000 0.43400  0.23170  0.49340  Biso   1.000  C
  C301     1.0000 0.42200  0.19830  0.46300  Biso   1.000  C
  N36      1.0000 0.41910  0.20070  0.42940  Biso   1.000  N
  C302     1.0000 0.42600  0.24520  0.42060  Biso   1.000  C
  C303     1.0000 0.43590  0.27710  0.45320  Biso   1.000  C
  C304     1.0000 0.43970  0.26620  0.49840  Biso   1.000  C
  C305     1.0000 0.43260  0.22110  0.50740  Biso   1.000  C
  C306     1.0000 0.42330  0.19000  0.47390  Biso   1.000  C
  H324     1.0000 0.25000  0.27200  0.35900  Biso   1.000  H
  H325     1.0000 0.31400  0.09400  0.32500  Biso   1.000  H
  H326     1.0000 0.30800  0.10200  0.34100  Biso   1.000  H
  H327     1.0000 0.33800  0.02300  0.29100  Biso   1.000  H
  H328     1.0000 0.30400  0.01200  0.33300  Biso   1.000  H
  H329     1.0000 0.35800  0.00600  0.33900  Biso   1.000  H
  H330     1.0000 0.32200  0.02900  0.30700  Biso   1.000  H
  H331     1.0000 0.28800  0.02300  0.35000  Biso   1.000  H
  H332     1.0000 0.34100  0.01000  0.35500  Biso   1.000  H
  H333     1.0000 0.41700  0.25800  0.37300  Biso   1.000  H
  H334     1.0000 0.43800  0.31500  0.42300  Biso   1.000  H
  H335     1.0000 0.45000  0.30000  0.50200  Biso   1.000  H
  H336     1.0000 0.43800  0.22300  0.52600  Biso   1.000  H
  H337     1.0000 0.41800  0.16700  0.47500  Biso   1.000  H
  H338     1.0000 0.42400  0.25500  0.38800  Biso   1.000  H
  H339     1.0000 0.44000  0.30900  0.44400  Biso   1.000  H
  H340     1.0000 0.44700  0.28900  0.52200  Biso   1.000  H
  H341     1.0000 0.43400  0.21000  0.53900  Biso   1.000  H
  H342     1.0000 0.42000  0.15800  0.48300  Biso   1.000  H
  Ni127    1.0000 0.90060  0.35080  0.63040  Biso   1.000  Ni
  Ni128    1.0000 0.90960  0.32660  0.62190  Biso   1.000  Ni
  Ni129    1.0000 0.90590  0.32690  0.60710  Biso   1.000  Ni
  Ni130    1.0000 0.86990  0.34660  0.61780  Biso   1.000  Ni
  Ni131    1.0000 0.88700  0.32560  0.64730  Biso   1.000  Ni
  Ni132    1.0000 0.88770  0.32000  0.62720  Biso   1.000  Ni
  Ni133    1.0000 0.89390  0.36160  0.59660  Biso   1.000  Ni
  O109     1.0000 0.85550  0.31020  0.66560  Biso   1.000  O
  O110     1.0000 0.86130  0.29700  0.65770  Biso   1.000  O
  O111     1.0000 0.79580  0.29750  0.61880  Biso   1.000  O
  O112     1.0000 0.79030  0.30900  0.62310  Biso   1.000  O
  C307     1.0000 0.81890  0.28690  0.65430  Biso   1.000  C
  C308     1.0000 0.80470  0.24660  0.68100  Biso   1.000  C
  C309     1.0000 0.76740  0.21970  0.66910  Biso   1.000  C
  O113     1.0000 0.88220  0.40880  0.67060  Biso   1.000  O
  O114     1.0000 0.84170  0.37510  0.59010  Biso   1.000  O
  C310     1.0000 0.83680  0.42460  0.65900  Biso   1.000  C
  C311     1.0000 0.82950  0.41880  0.64380  Biso   1.000  C
  C312     1.0000 0.83380  0.47560  0.67560  Biso   1.000  C
  C313     1.0000 0.81900  0.46900  0.65960  Biso   1.000  C
  N37      1.0000 0.91550  0.29420  0.58190  Biso   1.000  N
  C314     1.0000 0.92170  0.25050  0.59430  Biso   1.000  C
  C315     1.0000 0.93400  0.21650  0.56470  Biso   1.000  C
  C316     1.0000 0.94090  0.22410  0.51930  Biso   1.000  C
  C317     1.0000 0.93400  0.26830  0.50660  Biso   1.000  C
  C318     1.0000 0.92200  0.30170  0.53700  Biso   1.000  C
  N38      1.0000 0.91910  0.29930  0.57060  Biso   1.000  N
  C319     1.0000 0.92600  0.25480  0.57940  Biso   1.000  C
  C320     1.0000 0.93590  0.22290  0.54680  Biso   1.000  C
  C321     1.0000 0.93970  0.23380  0.50160  Biso   1.000  C
  C322     1.0000 0.93260  0.27890  0.49260  Biso   1.000  C
  C323     1.0000 0.92330  0.31000  0.52610  Biso   1.000  C
  H343     1.0000 0.75000  0.22800  0.64100  Biso   1.000  H
  H344     1.0000 0.81400  0.40600  0.67500  Biso   1.000  H
  H345     1.0000 0.80800  0.39800  0.65900  Biso   1.000  H
  H346     1.0000 0.83800  0.47700  0.70900  Biso   1.000  H
  H347     1.0000 0.80400  0.48800  0.66700  Biso   1.000  H
  H348     1.0000 0.85800  0.49400  0.66100  Biso   1.000  H
  H349     1.0000 0.82200  0.47100  0.69300  Biso   1.000  H
  H350     1.0000 0.78800  0.47700  0.65000  Biso   1.000  H
  H351     1.0000 0.84100  0.49000  0.64500  Biso   1.000  H
  H352     1.0000 0.91700  0.24200  0.62700  Biso   1.000  H
  H353     1.0000 0.93800  0.18500  0.57700  Biso   1.000  H
  H354     1.0000 0.95000  0.20000  0.49800  Biso   1.000  H
  H355     1.0000 0.93800  0.27700  0.47400  Biso   1.000  H
  H356     1.0000 0.91800  0.33300  0.52500  Biso   1.000  H
  H357     1.0000 0.92400  0.24500  0.61200  Biso   1.000  H
  H358     1.0000 0.94000  0.19100  0.55600  Biso   1.000  H
  H359     1.0000 0.94700  0.21100  0.47800  Biso   1.000  H
  H360     1.0000 0.93400  0.29000  0.46100  Biso   1.000  H
  H361     1.0000 0.92000  0.34200  0.51700  Biso   1.000  H
  Ni134    1.0000 0.09940  0.85080  0.86960  Biso   1.000  Ni
  Ni135    1.0000 0.09040  0.82660  0.87810  Biso   1.000  Ni
  Ni136    1.0000 0.09410  0.82690  0.89290  Biso   1.000  Ni
  Ni137    1.0000 0.13010  0.84660  0.88220  Biso   1.000  Ni
  Ni138    1.0000 0.11300  0.82560  0.85270  Biso   1.000  Ni
  Ni139    1.0000 0.11230  0.82000  0.87280  Biso   1.000  Ni
  Ni140    1.0000 0.10610  0.86160  0.90340  Biso   1.000  Ni
  O115     1.0000 0.14450  0.81020  0.83440  Biso   1.000  O
  O116     1.0000 0.13870  0.79700  0.84230  Biso   1.000  O
  O117     1.0000 0.20420  0.79750  0.88120  Biso   1.000  O
  O118     1.0000 0.20970  0.80900  0.87690  Biso   1.000  O
  C324     1.0000 0.18110  0.78690  0.84570  Biso   1.000  C
  C325     1.0000 0.19530  0.74660  0.81900  Biso   1.000  C
  C326     1.0000 0.23260  0.71970  0.83090  Biso   1.000  C
  O119     1.0000 0.11780  0.90880  0.82940  Biso   1.000  O
  O120     1.0000 0.15830  0.87510  0.90990  Biso   1.000  O
  C327     1.0000 0.16320  0.92460  0.84100  Biso   1.000  C
  C328     1.0000 0.17050  0.91880  0.85620  Biso   1.000  C
  C329     1.0000 0.16620  0.97560  0.82440  Biso   1.000  C
  C330     1.0000 0.18100  0.96900  0.84040  Biso   1.000  C
  N39      1.0000 0.08450  0.79420  0.91810  Biso   1.000  N
  C331     1.0000 0.07830  0.75050  0.90570  Biso   1.000  C
  C332     1.0000 0.06600  0.71650  0.93530  Biso   1.000  C
  C333     1.0000 0.05910  0.72410  0.98070  Biso   1.000  C
  C334     1.0000 0.06600  0.76830  0.99340  Biso   1.000  C
  C335     1.0000 0.07800  0.80170  0.96300  Biso   1.000  C
  N40      1.0000 0.08090  0.79930  0.92940  Biso   1.000  N
  C336     1.0000 0.07400  0.75480  0.92060  Biso   1.000  C
  C337     1.0000 0.06410  0.72290  0.95320  Biso   1.000  C
  C338     1.0000 0.06030  0.73380  0.99840  Biso   1.000  C
  C339     1.0000 0.06740  0.77890  0.00740  Biso   1.000  C
  C340     1.0000 0.07670  0.81000  0.97390  Biso   1.000  C
  H362     1.0000 0.25000  0.72800  0.85900  Biso   1.000  H
  H363     1.0000 0.18600  0.90600  0.82500  Biso   1.000  H
  H364     1.0000 0.19200  0.89800  0.84100  Biso   1.000  H
  H365     1.0000 0.16200  0.97700  0.79100  Biso   1.000  H
  H366     1.0000 0.19600  0.98800  0.83300  Biso   1.000  H
  H367     1.0000 0.14200  0.99400  0.83900  Biso   1.000  H
  H368     1.0000 0.17800  0.97100  0.80700  Biso   1.000  H
  H369     1.0000 0.21200  0.97700  0.85000  Biso   1.000  H
  H370     1.0000 0.15900  0.99000  0.85500  Biso   1.000  H
  H371     1.0000 0.08300  0.74200  0.87300  Biso   1.000  H
  H372     1.0000 0.06200  0.68500  0.92300  Biso   1.000  H
  H373     1.0000 0.05000  0.70000  0.00200  Biso   1.000  H
  H374     1.0000 0.06200  0.77700  0.02600  Biso   1.000  H
  H375     1.0000 0.08200  0.83300  0.97500  Biso   1.000  H
  H376     1.0000 0.07600  0.74500  0.88800  Biso   1.000  H
  H377     1.0000 0.06000  0.69100  0.94400  Biso   1.000  H
  H378     1.0000 0.05300  0.71100  0.02200  Biso   1.000  H
  H379     1.0000 0.06600  0.79000  0.03900  Biso   1.000  H
  H380     1.0000 0.08000  0.84200  0.98300  Biso   1.000  H
  Ni141    1.0000 0.14920  0.36960  0.40060  Biso   1.000  Ni
  Ni142    1.0000 0.17340  0.37810  0.40960  Biso   1.000  Ni
  Ni143    1.0000 0.17310  0.39290  0.40590  Biso   1.000  Ni
  Ni144    1.0000 0.15340  0.38220  0.36990  Biso   1.000  Ni
  Ni145    1.0000 0.17440  0.35270  0.38700  Biso   1.000  Ni
  Ni146    1.0000 0.18000  0.37280  0.38770  Biso   1.000  Ni
  Ni147    1.0000 0.13840  0.40340  0.39390  Biso   1.000  Ni
  O121     1.0000 0.18980  0.33440  0.35550  Biso   1.000  O
  O122     1.0000 0.20300  0.34230  0.36130  Biso   1.000  O
  O123     1.0000 0.20250  0.38120  0.29580  Biso   1.000  O
  O124     1.0000 0.19100  0.37690  0.29030  Biso   1.000  O
  C341     1.0000 0.21310  0.34570  0.31890  Biso   1.000  C
  C342     1.0000 0.25340  0.31900  0.30470  Biso   1.000  C
  C343     1.0000 0.28030  0.33090  0.26740  Biso   1.000  C
  O125     1.0000 0.09120  0.32940  0.38220  Biso   1.000  O
  O126     1.0000 0.12490  0.40990  0.34170  Biso   1.000  O
  C344     1.0000 0.07540  0.34100  0.33680  Biso   1.000  C
  C345     1.0000 0.08120  0.35620  0.32950  Biso   1.000  C
  C346     1.0000 0.02440  0.32440  0.33380  Biso   1.000  C
  C347     1.0000 0.03100  0.34040  0.31900  Biso   1.000  C
  N41      1.0000 0.20580  0.41810  0.41550  Biso   1.000  N
  C348     1.0000 0.24950  0.40570  0.42170  Biso   1.000  C
  C349     1.0000 0.28350  0.43530  0.43400  Biso   1.000  C
  C350     1.0000 0.27590  0.48070  0.44090  Biso   1.000  C
  C351     1.0000 0.23170  0.49340  0.43400  Biso   1.000  C
  C352     1.0000 0.19830  0.46300  0.42200  Biso   1.000  C
  N42      1.0000 0.20070  0.42940  0.41910  Biso   1.000  N
  C353     1.0000 0.24520  0.42060  0.42600  Biso   1.000  C
  C354     1.0000 0.27710  0.45320  0.43590  Biso   1.000  C
  C355     1.0000 0.26620  0.49840  0.43970  Biso   1.000  C
  C356     1.0000 0.22110  0.50740  0.43260  Biso   1.000  C
  C357     1.0000 0.19000  0.47390  0.42330  Biso   1.000  C
  H381     1.0000 0.27200  0.35900  0.25000  Biso   1.000  H
  H382     1.0000 0.09400  0.32500  0.31400  Biso   1.000  H
  H383     1.0000 0.10200  0.34100  0.30800  Biso   1.000  H
  H384     1.0000 0.02300  0.29100  0.33800  Biso   1.000  H
  H385     1.0000 0.01200  0.33300  0.30400  Biso   1.000  H
  H386     1.0000 0.00600  0.33900  0.35800  Biso   1.000  H
  H387     1.0000 0.02900  0.30700  0.32200  Biso   1.000  H
  H388     1.0000 0.02300  0.35000  0.28800  Biso   1.000  H
  H389     1.0000 0.01000  0.35500  0.34100  Biso   1.000  H
  H390     1.0000 0.25800  0.37300  0.41700  Biso   1.000  H
  H391     1.0000 0.31500  0.42300  0.43800  Biso   1.000  H
  H392     1.0000 0.30000  0.50200  0.45000  Biso   1.000  H
  H393     1.0000 0.22300  0.52600  0.43800  Biso   1.000  H
  H394     1.0000 0.16700  0.47500  0.41800  Biso   1.000  H
  H395     1.0000 0.25500  0.38800  0.42400  Biso   1.000  H
  H396     1.0000 0.30900  0.44400  0.44000  Biso   1.000  H
  H397     1.0000 0.28900  0.52200  0.44700  Biso   1.000  H
  H398     1.0000 0.21000  0.53900  0.43400  Biso   1.000  H
  H399     1.0000 0.15800  0.48300  0.42000  Biso   1.000  H
  Ni148    1.0000 0.64920  0.13040  0.59940  Biso   1.000  Ni
  Ni149    1.0000 0.67340  0.12190  0.59040  Biso   1.000  Ni
  Ni150    1.0000 0.67310  0.10710  0.59410  Biso   1.000  Ni
  Ni151    1.0000 0.65340  0.11780  0.63010  Biso   1.000  Ni
  Ni152    1.0000 0.67440  0.14730  0.61300  Biso   1.000  Ni
  Ni153    1.0000 0.68000  0.12720  0.61230  Biso   1.000  Ni
  Ni154    1.0000 0.63840  0.09660  0.60610  Biso   1.000  Ni
  O127     1.0000 0.68980  0.16560  0.64450  Biso   1.000  O
  O128     1.0000 0.70300  0.15770  0.63870  Biso   1.000  O
  O129     1.0000 0.70250  0.11880  0.70420  Biso   1.000  O
  O130     1.0000 0.69100  0.12310  0.70970  Biso   1.000  O
  C358     1.0000 0.71310  0.15430  0.68110  Biso   1.000  C
  C359     1.0000 0.75340  0.18100  0.69530  Biso   1.000  C
  C360     1.0000 0.78030  0.16910  0.73260  Biso   1.000  C
  O131     1.0000 0.59120  0.17060  0.61780  Biso   1.000  O
  O132     1.0000 0.62490  0.09010  0.65830  Biso   1.000  O
  C361     1.0000 0.57540  0.15900  0.66320  Biso   1.000  C
  C362     1.0000 0.58120  0.14380  0.67050  Biso   1.000  C
  C363     1.0000 0.52440  0.17560  0.66620  Biso   1.000  C
  C364     1.0000 0.53100  0.15960  0.68100  Biso   1.000  C
  N43      1.0000 0.70580  0.08190  0.58450  Biso   1.000  N
  C365     1.0000 0.74950  0.09430  0.57830  Biso   1.000  C
  C366     1.0000 0.78350  0.06470  0.56600  Biso   1.000  C
  C367     1.0000 0.77590  0.01930  0.55910  Biso   1.000  C
  C368     1.0000 0.73170  0.00660  0.56600  Biso   1.000  C
  C369     1.0000 0.69830  0.03700  0.57800  Biso   1.000  C
  N44      1.0000 0.70070  0.07060  0.58090  Biso   1.000  N
  C370     1.0000 0.74520  0.07940  0.57400  Biso   1.000  C
  C371     1.0000 0.77710  0.04680  0.56410  Biso   1.000  C
  C372     1.0000 0.76620  0.00160  0.56030  Biso   1.000  C
  C373     1.0000 0.72110  0.99260  0.56740  Biso   1.000  C
  C374     1.0000 0.69000  0.02610  0.57670  Biso   1.000  C
  H400     1.0000 0.77200  0.14100  0.75000  Biso   1.000  H
  H401     1.0000 0.59400  0.17500  0.68600  Biso   1.000  H
  H402     1.0000 0.60200  0.15900  0.69200  Biso   1.000  H
  H403     1.0000 0.52300  0.20900  0.66200  Biso   1.000  H
  H404     1.0000 0.51200  0.16700  0.69600  Biso   1.000  H
  H405     1.0000 0.50600  0.16100  0.64200  Biso   1.000  H
  H406     1.0000 0.52900  0.19300  0.67800  Biso   1.000  H
  H407     1.0000 0.52300  0.15000  0.71200  Biso   1.000  H
  H408     1.0000 0.51000  0.14500  0.65900  Biso   1.000  H
  H409     1.0000 0.75800  0.12700  0.58300  Biso   1.000  H
  H410     1.0000 0.81500  0.07700  0.56200  Biso   1.000  H
  H411     1.0000 0.80000  0.99800  0.55000  Biso   1.000  H
  H412     1.0000 0.72300  0.97400  0.56200  Biso   1.000  H
  H413     1.0000 0.66700  0.02500  0.58200  Biso   1.000  H
  H414     1.0000 0.75500  0.11200  0.57600  Biso   1.000  H
  H415     1.0000 0.80900  0.05600  0.56000  Biso   1.000  H
  H416     1.0000 0.78900  0.97800  0.55300  Biso   1.000  H
  H417     1.0000 0.71000  0.96100  0.56600  Biso   1.000  H
  H418     1.0000 0.65800  0.01700  0.58000  Biso   1.000  H
  Ni155    1.0000 0.85080  0.86960  0.09940  Biso   1.000  Ni
  Ni156    1.0000 0.82660  0.87810  0.09040  Biso   1.000  Ni
  Ni157    1.0000 0.82690  0.89290  0.09410  Biso   1.000  Ni
  Ni158    1.0000 0.84660  0.88220  0.13010  Biso   1.000  Ni
  Ni159    1.0000 0.82560  0.85270  0.11300  Biso   1.000  Ni
  Ni160    1.0000 0.82000  0.87280  0.11230  Biso   1.000  Ni
  Ni161    1.0000 0.86160  0.90340  0.10610  Biso   1.000  Ni
  O133     1.0000 0.81020  0.83440  0.14450  Biso   1.000  O
  O134     1.0000 0.79700  0.84230  0.13870  Biso   1.000  O
  O135     1.0000 0.79750  0.88120  0.20420  Biso   1.000  O
  O136     1.0000 0.80900  0.87690  0.20970  Biso   1.000  O
  C375     1.0000 0.78690  0.84570  0.18110  Biso   1.000  C
  C376     1.0000 0.74660  0.81900  0.19530  Biso   1.000  C
  C377     1.0000 0.71970  0.83090  0.23260  Biso   1.000  C
  O137     1.0000 0.90880  0.82940  0.11780  Biso   1.000  O
  O138     1.0000 0.87510  0.90990  0.15830  Biso   1.000  O
  C378     1.0000 0.92460  0.84100  0.16320  Biso   1.000  C
  C379     1.0000 0.91880  0.85620  0.17050  Biso   1.000  C
  C380     1.0000 0.97560  0.82440  0.16620  Biso   1.000  C
  C381     1.0000 0.96900  0.84040  0.18100  Biso   1.000  C
  N45      1.0000 0.79420  0.91810  0.08450  Biso   1.000  N
  C382     1.0000 0.75050  0.90570  0.07830  Biso   1.000  C
  C383     1.0000 0.71650  0.93530  0.06600  Biso   1.000  C
  C384     1.0000 0.72410  0.98070  0.05910  Biso   1.000  C
  C385     1.0000 0.76830  0.99340  0.06600  Biso   1.000  C
  C386     1.0000 0.80170  0.96300  0.07800  Biso   1.000  C
  N46      1.0000 0.79930  0.92940  0.08090  Biso   1.000  N
  C387     1.0000 0.75480  0.92060  0.07400  Biso   1.000  C
  C388     1.0000 0.72290  0.95320  0.06410  Biso   1.000  C
  C389     1.0000 0.73380  0.99840  0.06030  Biso   1.000  C
  C390     1.0000 0.77890  0.00740  0.06740  Biso   1.000  C
  C391     1.0000 0.81000  0.97390  0.07670  Biso   1.000  C
  H419     1.0000 0.72800  0.85900  0.25000  Biso   1.000  H
  H420     1.0000 0.90600  0.82500  0.18600  Biso   1.000  H
  H421     1.0000 0.89800  0.84100  0.19200  Biso   1.000  H
  H422     1.0000 0.97700  0.79100  0.16200  Biso   1.000  H
  H423     1.0000 0.98800  0.83300  0.19600  Biso   1.000  H
  H424     1.0000 0.99400  0.83900  0.14200  Biso   1.000  H
  H425     1.0000 0.97100  0.80700  0.17800  Biso   1.000  H
  H426     1.0000 0.97700  0.85000  0.21200  Biso   1.000  H
  H427     1.0000 0.99000  0.85500  0.15900  Biso   1.000  H
  H428     1.0000 0.74200  0.87300  0.08300  Biso   1.000  H
  H429     1.0000 0.68500  0.92300  0.06200  Biso   1.000  H
  H430     1.0000 0.70000  0.00200  0.05000  Biso   1.000  H
  H431     1.0000 0.77700  0.02600  0.06200  Biso   1.000  H
  H432     1.0000 0.83300  0.97500  0.08200  Biso   1.000  H
  H433     1.0000 0.74500  0.88800  0.07600  Biso   1.000  H
  H434     1.0000 0.69100  0.94400  0.06000  Biso   1.000  H
  H435     1.0000 0.71100  0.02200  0.05300  Biso   1.000  H
  H436     1.0000 0.79000  0.03900  0.06600  Biso   1.000  H
  H437     1.0000 0.84200  0.98300  0.08000  Biso   1.000  H
  Ni162    1.0000 0.35080  0.63040  0.90060  Biso   1.000  Ni
  Ni163    1.0000 0.32660  0.62190  0.90960  Biso   1.000  Ni
  Ni164    1.0000 0.32690  0.60710  0.90590  Biso   1.000  Ni
  Ni165    1.0000 0.34660  0.61780  0.86990  Biso   1.000  Ni
  Ni166    1.0000 0.32560  0.64730  0.88700  Biso   1.000  Ni
  Ni167    1.0000 0.32000  0.62720  0.88770  Biso   1.000  Ni
  Ni168    1.0000 0.36160  0.59660  0.89390  Biso   1.000  Ni
  O139     1.0000 0.31020  0.66560  0.85550  Biso   1.000  O
  O140     1.0000 0.29700  0.65770  0.86130  Biso   1.000  O
  O141     1.0000 0.29750  0.61880  0.79580  Biso   1.000  O
  O142     1.0000 0.30900  0.62310  0.79030  Biso   1.000  O
  C392     1.0000 0.28690  0.65430  0.81890  Biso   1.000  C
  C393     1.0000 0.24660  0.68100  0.80470  Biso   1.000  C
  C394     1.0000 0.21970  0.66910  0.76740  Biso   1.000  C
  O143     1.0000 0.40880  0.67060  0.88220  Biso   1.000  O
  O144     1.0000 0.37510  0.59010  0.84170  Biso   1.000  O
  C395     1.0000 0.42460  0.65900  0.83680  Biso   1.000  C
  C396     1.0000 0.41880  0.64380  0.82950  Biso   1.000  C
  C397     1.0000 0.47560  0.67560  0.83380  Biso   1.000  C
  C398     1.0000 0.46900  0.65960  0.81900  Biso   1.000  C
  N47      1.0000 0.29420  0.58190  0.91550  Biso   1.000  N
  C399     1.0000 0.25050  0.59430  0.92170  Biso   1.000  C
  C400     1.0000 0.21650  0.56470  0.93400  Biso   1.000  C
  C401     1.0000 0.22410  0.51930  0.94090  Biso   1.000  C
  C402     1.0000 0.26830  0.50660  0.93400  Biso   1.000  C
  C403     1.0000 0.30170  0.53700  0.92200  Biso   1.000  C
  N48      1.0000 0.29930  0.57060  0.91910  Biso   1.000  N
  C404     1.0000 0.25480  0.57940  0.92600  Biso   1.000  C
  C405     1.0000 0.22290  0.54680  0.93590  Biso   1.000  C
  C406     1.0000 0.23380  0.50160  0.93970  Biso   1.000  C
  C407     1.0000 0.27890  0.49260  0.93260  Biso   1.000  C
  C408     1.0000 0.31000  0.52610  0.92330  Biso   1.000  C
  H438     1.0000 0.22800  0.64100  0.75000  Biso   1.000  H
  H439     1.0000 0.40600  0.67500  0.81400  Biso   1.000  H
  H440     1.0000 0.39800  0.65900  0.80800  Biso   1.000  H
  H441     1.0000 0.47700  0.70900  0.83800  Biso   1.000  H
  H442     1.0000 0.48800  0.66700  0.80400  Biso   1.000  H
  H443     1.0000 0.49400  0.66100  0.85800  Biso   1.000  H
  H444     1.0000 0.47100  0.69300  0.82200  Biso   1.000  H
  H445     1.0000 0.47700  0.65000  0.78800  Biso   1.000  H
  H446     1.0000 0.49000  0.64500  0.84100  Biso   1.000  H
  H447     1.0000 0.24200  0.62700  0.91700  Biso   1.000  H
  H448     1.0000 0.18500  0.57700  0.93800  Biso   1.000  H
  H449     1.0000 0.20000  0.49800  0.95000  Biso   1.000  H
  H450     1.0000 0.27700  0.47400  0.93800  Biso   1.000  H
  H451     1.0000 0.33300  0.52500  0.91800  Biso   1.000  H
  H452     1.0000 0.24500  0.61200  0.92400  Biso   1.000  H
  H453     1.0000 0.19100  0.55600  0.94000  Biso   1.000  H
  H454     1.0000 0.21100  0.47800  0.94700  Biso   1.000  H
  H455     1.0000 0.29000  0.46100  0.93400  Biso   1.000  H
  H456     1.0000 0.34200  0.51700  0.92000  Biso   1.000  H
  Ni169    1.0000 0.84940  0.11960  0.39920  Biso   1.000  Ni
  Ni170    1.0000 0.84040  0.12810  0.42340  Biso   1.000  Ni
  Ni171    1.0000 0.84410  0.14290  0.42310  Biso   1.000  Ni
  Ni172    1.0000 0.88010  0.13220  0.40340  Biso   1.000  Ni
  Ni173    1.0000 0.86300  0.10270  0.42440  Biso   1.000  Ni
  Ni174    1.0000 0.86230  0.12280  0.43000  Biso   1.000  Ni
  Ni175    1.0000 0.85610  0.15340  0.38840  Biso   1.000  Ni
  O145     1.0000 0.89450  0.08440  0.43980  Biso   1.000  O
  O146     1.0000 0.88870  0.09230  0.45300  Biso   1.000  O
  O147     1.0000 0.95420  0.13120  0.45250  Biso   1.000  O
  O148     1.0000 0.95970  0.12690  0.44100  Biso   1.000  O
  C409     1.0000 0.93110  0.09570  0.46310  Biso   1.000  C
  C410     1.0000 0.94530  0.06900  0.50340  Biso   1.000  C
  C411     1.0000 0.98260  0.08090  0.53030  Biso   1.000  C
  O149     1.0000 0.86780  0.07940  0.34120  Biso   1.000  O
  O150     1.0000 0.90830  0.15990  0.37490  Biso   1.000  O
  C412     1.0000 0.91320  0.09100  0.32540  Biso   1.000  C
  C413     1.0000 0.92050  0.10620  0.33120  Biso   1.000  C
  C414     1.0000 0.91620  0.07440  0.27440  Biso   1.000  C
  C415     1.0000 0.93100  0.09040  0.28100  Biso   1.000  C
  N49      1.0000 0.83450  0.16810  0.45580  Biso   1.000  N
  C416     1.0000 0.82830  0.15570  0.49950  Biso   1.000  C
  C417     1.0000 0.81600  0.18530  0.53350  Biso   1.000  C
  C418     1.0000 0.80910  0.23070  0.52590  Biso   1.000  C
  C419     1.0000 0.81600  0.24340  0.48170  Biso   1.000  C
  C420     1.0000 0.82800  0.21300  0.44830  Biso   1.000  C
  N50      1.0000 0.83090  0.17940  0.45070  Biso   1.000  N
  C421     1.0000 0.82400  0.17060  0.49520  Biso   1.000  C
  C422     1.0000 0.81410  0.20320  0.52710  Biso   1.000  C
  C423     1.0000 0.81030  0.24840  0.51620  Biso   1.000  C
  C424     1.0000 0.81740  0.25740  0.47110  Biso   1.000  C
  C425     1.0000 0.82670  0.22390  0.44000  Biso   1.000  C
  H457     1.0000 0.00000  0.10900  0.52200  Biso   1.000  H
  H458     1.0000 0.93600  0.07500  0.34400  Biso   1.000  H
  H459     1.0000 0.94200  0.09100  0.35200  Biso   1.000  H
  H460     1.0000 0.91200  0.04100  0.27300  Biso   1.000  H
  H461     1.0000 0.94600  0.08300  0.26200  Biso   1.000  H
  H462     1.0000 0.89200  0.08900  0.25600  Biso   1.000  H
  H463     1.0000 0.92800  0.05700  0.27900  Biso   1.000  H
  H464     1.0000 0.96200  0.10000  0.27300  Biso   1.000  H
  H465     1.0000 0.90900  0.10500  0.26000  Biso   1.000  H
  H466     1.0000 0.83300  0.12300  0.50800  Biso   1.000  H
  H467     1.0000 0.81200  0.17300  0.56500  Biso   1.000  H
  H468     1.0000 0.80000  0.25200  0.55000  Biso   1.000  H
  H469     1.0000 0.81200  0.27600  0.47300  Biso   1.000  H
  H470     1.0000 0.83200  0.22500  0.41700  Biso   1.000  H
  H471     1.0000 0.82600  0.13800  0.50500  Biso   1.000  H
  H472     1.0000 0.81000  0.19400  0.55900  Biso   1.000  H
  H473     1.0000 0.80300  0.27200  0.53900  Biso   1.000  H
  H474     1.0000 0.81600  0.28900  0.46000  Biso   1.000  H
  H475     1.0000 0.83000  0.23300  0.40800  Biso   1.000  H
  Ni176    1.0000 0.65060  0.88040  0.89920  Biso   1.000  Ni
  Ni177    1.0000 0.65960  0.87190  0.92340  Biso   1.000  Ni
  Ni178    1.0000 0.65590  0.85710  0.92310  Biso   1.000  Ni
  Ni179    1.0000 0.61990  0.86780  0.90340  Biso   1.000  Ni
  Ni180    1.0000 0.63700  0.89730  0.92440  Biso   1.000  Ni
  Ni181    1.0000 0.63770  0.87720  0.93000  Biso   1.000  Ni
  Ni182    1.0000 0.64390  0.84660  0.88840  Biso   1.000  Ni
  O151     1.0000 0.60550  0.91560  0.93980  Biso   1.000  O
  O152     1.0000 0.61130  0.90770  0.95300  Biso   1.000  O
  O153     1.0000 0.54580  0.86880  0.95250  Biso   1.000  O
  O154     1.0000 0.54030  0.87310  0.94100  Biso   1.000  O
  C426     1.0000 0.56890  0.90430  0.96310  Biso   1.000  C
  C427     1.0000 0.55470  0.93100  0.00340  Biso   1.000  C
  C428     1.0000 0.51740  0.91910  0.03030  Biso   1.000  C
  O155     1.0000 0.63220  0.92060  0.84120  Biso   1.000  O
  O156     1.0000 0.59170  0.84010  0.87490  Biso   1.000  O
  C429     1.0000 0.58680  0.90900  0.82540  Biso   1.000  C
  C430     1.0000 0.57950  0.89380  0.83120  Biso   1.000  C
  C431     1.0000 0.58380  0.92560  0.77440  Biso   1.000  C
  C432     1.0000 0.56900  0.90960  0.78100  Biso   1.000  C
  N51      1.0000 0.66550  0.83190  0.95580  Biso   1.000  N
  C433     1.0000 0.67170  0.84430  0.99950  Biso   1.000  C
  C434     1.0000 0.68400  0.81470  0.03350  Biso   1.000  C
  C435     1.0000 0.69090  0.76930  0.02590  Biso   1.000  C
  C436     1.0000 0.68400  0.75660  0.98170  Biso   1.000  C
  C437     1.0000 0.67200  0.78700  0.94830  Biso   1.000  C
  N52      1.0000 0.66910  0.82060  0.95070  Biso   1.000  N
  C438     1.0000 0.67600  0.82940  0.99520  Biso   1.000  C
  C439     1.0000 0.68590  0.79680  0.02710  Biso   1.000  C
  C440     1.0000 0.68970  0.75160  0.01620  Biso   1.000  C
  C441     1.0000 0.68260  0.74260  0.97110  Biso   1.000  C
  C442     1.0000 0.67330  0.77610  0.94000  Biso   1.000  C
  H476     1.0000 0.50000  0.89100  0.02200  Biso   1.000  H
  H477     1.0000 0.56400  0.92500  0.84400  Biso   1.000  H
  H478     1.0000 0.55800  0.90900  0.85200  Biso   1.000  H
  H479     1.0000 0.58800  0.95900  0.77300  Biso   1.000  H
  H480     1.0000 0.55400  0.91700  0.76200  Biso   1.000  H
  H481     1.0000 0.60800  0.91100  0.75600  Biso   1.000  H
  H482     1.0000 0.57200  0.94300  0.77900  Biso   1.000  H
  H483     1.0000 0.53800  0.90000  0.77300  Biso   1.000  H
  H484     1.0000 0.59100  0.89500  0.76000  Biso   1.000  H
  H485     1.0000 0.66700  0.87700  0.00800  Biso   1.000  H
  H486     1.0000 0.68800  0.82700  0.06500  Biso   1.000  H
  H487     1.0000 0.70000  0.74800  0.05000  Biso   1.000  H
  H488     1.0000 0.68800  0.72400  0.97300  Biso   1.000  H
  H489     1.0000 0.66800  0.77500  0.91700  Biso   1.000  H
  H490     1.0000 0.67400  0.86200  0.00500  Biso   1.000  H
  H491     1.0000 0.69000  0.80600  0.05900  Biso   1.000  H
  H492     1.0000 0.69700  0.72800  0.03900  Biso   1.000  H
  H493     1.0000 0.68400  0.71100  0.96000  Biso   1.000  H
  H494     1.0000 0.67000  0.76700  0.90800  Biso   1.000  H
  Ni183    1.0000 0.15060  0.61960  0.10080  Biso   1.000  Ni
  Ni184    1.0000 0.15960  0.62810  0.07660  Biso   1.000  Ni
  Ni185    1.0000 0.15590  0.64290  0.07690  Biso   1.000  Ni
  Ni186    1.0000 0.11990  0.63220  0.09660  Biso   1.000  Ni
  Ni187    1.0000 0.13700  0.60270  0.07560  Biso   1.000  Ni
  Ni188    1.0000 0.13770  0.62280  0.07000  Biso   1.000  Ni
  Ni189    1.0000 0.14390  0.65340  0.11160  Biso   1.000  Ni
  O157     1.0000 0.10550  0.58440  0.06020  Biso   1.000  O
  O158     1.0000 0.11130  0.59230  0.04700  Biso   1.000  O
  O159     1.0000 0.04580  0.63120  0.04750  Biso   1.000  O
  O160     1.0000 0.04030  0.62690  0.05900  Biso   1.000  O
  C443     1.0000 0.06890  0.59570  0.03690  Biso   1.000  C
  C444     1.0000 0.05470  0.56900  0.99660  Biso   1.000  C
  C445     1.0000 0.01740  0.58090  0.96970  Biso   1.000  C
  O161     1.0000 0.13220  0.57940  0.15880  Biso   1.000  O
  O162     1.0000 0.09170  0.65990  0.12510  Biso   1.000  O
  C446     1.0000 0.08680  0.59100  0.17460  Biso   1.000  C
  C447     1.0000 0.07950  0.60620  0.16880  Biso   1.000  C
  C448     1.0000 0.08380  0.57440  0.22560  Biso   1.000  C
  C449     1.0000 0.06900  0.59040  0.21900  Biso   1.000  C
  N53      1.0000 0.16550  0.66810  0.04420  Biso   1.000  N
  C450     1.0000 0.17170  0.65570  0.00050  Biso   1.000  C
  C451     1.0000 0.18400  0.68530  0.96650  Biso   1.000  C
  C452     1.0000 0.19090  0.73070  0.97410  Biso   1.000  C
  C453     1.0000 0.18400  0.74340  0.01830  Biso   1.000  C
  C454     1.0000 0.17200  0.71300  0.05170  Biso   1.000  C
  N54      1.0000 0.16910  0.67940  0.04930  Biso   1.000  N
  C455     1.0000 0.17600  0.67060  0.00480  Biso   1.000  C
  C456     1.0000 0.18590  0.70320  0.97290  Biso   1.000  C
  C457     1.0000 0.18970  0.74840  0.98380  Biso   1.000  C
  C458     1.0000 0.18260  0.75740  0.02890  Biso   1.000  C
  C459     1.0000 0.17330  0.72390  0.06000  Biso   1.000  C
  H495     1.0000 0.00000  0.60900  0.97800  Biso   1.000  H
  H496     1.0000 0.06400  0.57500  0.15600  Biso   1.000  H
  H497     1.0000 0.05800  0.59100  0.14800  Biso   1.000  H
  H498     1.0000 0.08800  0.54100  0.22700  Biso   1.000  H
  H499     1.0000 0.05400  0.58300  0.23800  Biso   1.000  H
  H500     1.0000 0.10800  0.58900  0.24400  Biso   1.000  H
  H501     1.0000 0.07200  0.55700  0.22100  Biso   1.000  H
  H502     1.0000 0.03800  0.60000  0.22700  Biso   1.000  H
  H503     1.0000 0.09100  0.60500  0.24000  Biso   1.000  H
  H504     1.0000 0.16700  0.62300  0.99200  Biso   1.000  H
  H505     1.0000 0.18800  0.67300  0.93500  Biso   1.000  H
  H506     1.0000 0.20000  0.75200  0.95000  Biso   1.000  H
  H507     1.0000 0.18800  0.77600  0.02700  Biso   1.000  H
  H508     1.0000 0.16800  0.72500  0.08300  Biso   1.000  H
  H509     1.0000 0.17400  0.63800  0.99500  Biso   1.000  H
  H510     1.0000 0.19000  0.69400  0.94100  Biso   1.000  H
  H511     1.0000 0.19700  0.77200  0.96100  Biso   1.000  H
  H512     1.0000 0.18400  0.78900  0.04000  Biso   1.000  H
  H513     1.0000 0.17000  0.73300  0.09200  Biso   1.000  H
  Ni190    1.0000 0.34940  0.38040  0.60080  Biso   1.000  Ni
  Ni191    1.0000 0.34040  0.37190  0.57660  Biso   1.000  Ni
  Ni192    1.0000 0.34410  0.35710  0.57690  Biso   1.000  Ni
  Ni193    1.0000 0.38010  0.36780  0.59660  Biso   1.000  Ni
  Ni194    1.0000 0.36300  0.39730  0.57560  Biso   1.000  Ni
  Ni195    1.0000 0.36230  0.37720  0.57000  Biso   1.000  Ni
  Ni196    1.0000 0.35610  0.34660  0.61160  Biso   1.000  Ni
  O163     1.0000 0.39450  0.41560  0.56020  Biso   1.000  O
  O164     1.0000 0.38870  0.40770  0.54700  Biso   1.000  O
  O165     1.0000 0.45420  0.36880  0.54750  Biso   1.000  O
  O166     1.0000 0.45970  0.37310  0.55900  Biso   1.000  O
  C460     1.0000 0.43110  0.40430  0.53690  Biso   1.000  C
  C461     1.0000 0.44530  0.43100  0.49660  Biso   1.000  C
  C462     1.0000 0.48260  0.41910  0.46970  Biso   1.000  C
  O167     1.0000 0.36780  0.42060  0.65880  Biso   1.000  O
  O168     1.0000 0.40830  0.34010  0.62510  Biso   1.000  O
  C463     1.0000 0.41320  0.40900  0.67460  Biso   1.000  C
  C464     1.0000 0.42050  0.39380  0.66880  Biso   1.000  C
  C465     1.0000 0.41620  0.42560  0.72560  Biso   1.000  C
  C466     1.0000 0.43100  0.40960  0.71900  Biso   1.000  C
  N55      1.0000 0.33450  0.33190  0.54420  Biso   1.000  N
  C467     1.0000 0.32830  0.34430  0.50050  Biso   1.000  C
  C468     1.0000 0.31600  0.31470  0.46650  Biso   1.000  C
  C469     1.0000 0.30910  0.26930  0.47410  Biso   1.000  C
  C470     1.0000 0.31600  0.25660  0.51830  Biso   1.000  C
  C471     1.0000 0.32800  0.28700  0.55170  Biso   1.000  C
  N56      1.0000 0.33090  0.32060  0.54930  Biso   1.000  N
  C472     1.0000 0.32400  0.32940  0.50480  Biso   1.000  C
  C473     1.0000 0.31410  0.29680  0.47290  Biso   1.000  C
  C474     1.0000 0.31030  0.25160  0.48380  Biso   1.000  C
  C475     1.0000 0.31740  0.24260  0.52890  Biso   1.000  C
  C476     1.0000 0.32670  0.27610  0.56000  Biso   1.000  C
  H514     1.0000 0.50000  0.39100  0.47800  Biso   1.000  H
  H515     1.0000 0.43600  0.42500  0.65600  Biso   1.000  H
  H516     1.0000 0.44200  0.40900  0.64800  Biso   1.000  H
  H517     1.0000 0.41200  0.45900  0.72700  Biso   1.000  H
  H518     1.0000 0.44600  0.41700  0.73800  Biso   1.000  H
  H519     1.0000 0.39200  0.41100  0.74400  Biso   1.000  H
  H520     1.0000 0.42800  0.44300  0.72100  Biso   1.000  H
  H521     1.0000 0.46200  0.40000  0.72700  Biso   1.000  H
  H522     1.0000 0.40900  0.39500  0.74000  Biso   1.000  H
  H523     1.0000 0.33300  0.37700  0.49200  Biso   1.000  H
  H524     1.0000 0.31200  0.32700  0.43500  Biso   1.000  H
  H525     1.0000 0.30000  0.24800  0.45000  Biso   1.000  H
  H526     1.0000 0.31200  0.22400  0.52700  Biso   1.000  H
  H527     1.0000 0.33200  0.27500  0.58300  Biso   1.000  H
  H528     1.0000 0.32600  0.36200  0.49500  Biso   1.000  H
  H529     1.0000 0.31000  0.30600  0.44100  Biso   1.000  H
  H530     1.0000 0.30300  0.22800  0.46100  Biso   1.000  H
  H531     1.0000 0.31600  0.21100  0.54000  Biso   1.000  H
  H532     1.0000 0.33000  0.26700  0.59200  Biso   1.000  H
  Ni197    1.0000 0.39920  0.84940  0.11960  Biso   1.000  Ni
  Ni198    1.0000 0.42340  0.84040  0.12810  Biso   1.000  Ni
  Ni199    1.0000 0.42310  0.84410  0.14290  Biso   1.000  Ni
  Ni200    1.0000 0.40340  0.88010  0.13220  Biso   1.000  Ni
  Ni201    1.0000 0.42440  0.86300  0.10270  Biso   1.000  Ni
  Ni202    1.0000 0.43000  0.86230  0.12280  Biso   1.000  Ni
  Ni203    1.0000 0.38840  0.85610  0.15340  Biso   1.000  Ni
  O169     1.0000 0.43980  0.89450  0.08440  Biso   1.000  O
  O170     1.0000 0.45300  0.88870  0.09230  Biso   1.000  O
  O171     1.0000 0.45250  0.95420  0.13120  Biso   1.000  O
  O172     1.0000 0.44100  0.95970  0.12690  Biso   1.000  O
  C477     1.0000 0.46310  0.93110  0.09570  Biso   1.000  C
  C478     1.0000 0.50340  0.94530  0.06900  Biso   1.000  C
  C479     1.0000 0.53030  0.98260  0.08090  Biso   1.000  C
  O173     1.0000 0.34120  0.86780  0.07940  Biso   1.000  O
  O174     1.0000 0.37490  0.90830  0.15990  Biso   1.000  O
  C480     1.0000 0.32540  0.91320  0.09100  Biso   1.000  C
  C481     1.0000 0.33120  0.92050  0.10620  Biso   1.000  C
  C482     1.0000 0.27440  0.91620  0.07440  Biso   1.000  C
  C483     1.0000 0.28100  0.93100  0.09040  Biso   1.000  C
  N57      1.0000 0.45580  0.83450  0.16810  Biso   1.000  N
  C484     1.0000 0.49950  0.82830  0.15570  Biso   1.000  C
  C485     1.0000 0.53350  0.81600  0.18530  Biso   1.000  C
  C486     1.0000 0.52590  0.80910  0.23070  Biso   1.000  C
  C487     1.0000 0.48170  0.81600  0.24340  Biso   1.000  C
  C488     1.0000 0.44830  0.82800  0.21300  Biso   1.000  C
  N58      1.0000 0.45070  0.83090  0.17940  Biso   1.000  N
  C489     1.0000 0.49520  0.82400  0.17060  Biso   1.000  C
  C490     1.0000 0.52710  0.81410  0.20320  Biso   1.000  C
  C491     1.0000 0.51620  0.81030  0.24840  Biso   1.000  C
  C492     1.0000 0.47110  0.81740  0.25740  Biso   1.000  C
  C493     1.0000 0.44000  0.82670  0.22390  Biso   1.000  C
  H533     1.0000 0.52200  0.00000  0.10900  Biso   1.000  H
  H534     1.0000 0.34400  0.93600  0.07500  Biso   1.000  H
  H535     1.0000 0.35200  0.94200  0.09100  Biso   1.000  H
  H536     1.0000 0.27300  0.91200  0.04100  Biso   1.000  H
  H537     1.0000 0.26200  0.94600  0.08300  Biso   1.000  H
  H538     1.0000 0.25600  0.89200  0.08900  Biso   1.000  H
  H539     1.0000 0.27900  0.92800  0.05700  Biso   1.000  H
  H540     1.0000 0.27300  0.96200  0.10000  Biso   1.000  H
  H541     1.0000 0.26000  0.90900  0.10500  Biso   1.000  H
  H542     1.0000 0.50800  0.83300  0.12300  Biso   1.000  H
  H543     1.0000 0.56500  0.81200  0.17300  Biso   1.000  H
  H544     1.0000 0.55000  0.80000  0.25200  Biso   1.000  H
  H545     1.0000 0.47300  0.81200  0.27600  Biso   1.000  H
  H546     1.0000 0.41700  0.83200  0.22500  Biso   1.000  H
  H547     1.0000 0.50500  0.82600  0.13800  Biso   1.000  H
  H548     1.0000 0.55900  0.81000  0.19400  Biso   1.000  H
  H549     1.0000 0.53900  0.80300  0.27200  Biso   1.000  H
  H550     1.0000 0.46000  0.81600  0.28900  Biso   1.000  H
  H551     1.0000 0.40800  0.83000  0.23300  Biso   1.000  H
  Ni204    1.0000 0.89920  0.65060  0.88040  Biso   1.000  Ni
  Ni205    1.0000 0.92340  0.65960  0.87190  Biso   1.000  Ni
  Ni206    1.0000 0.92310  0.65590  0.85710  Biso   1.000  Ni
  Ni207    1.0000 0.90340  0.61990  0.86780  Biso   1.000  Ni
  Ni208    1.0000 0.92440  0.63700  0.89730  Biso   1.000  Ni
  Ni209    1.0000 0.93000  0.63770  0.87720  Biso   1.000  Ni
  Ni210    1.0000 0.88840  0.64390  0.84660  Biso   1.000  Ni
  O175     1.0000 0.93980  0.60550  0.91560  Biso   1.000  O
  O176     1.0000 0.95300  0.61130  0.90770  Biso   1.000  O
  O177     1.0000 0.95250  0.54580  0.86880  Biso   1.000  O
  O178     1.0000 0.94100  0.54030  0.87310  Biso   1.000  O
  C494     1.0000 0.96310  0.56890  0.90430  Biso   1.000  C
  C495     1.0000 0.00340  0.55470  0.93100  Biso   1.000  C
  C496     1.0000 0.03030  0.51740  0.91910  Biso   1.000  C
  O179     1.0000 0.84120  0.63220  0.92060  Biso   1.000  O
  O180     1.0000 0.87490  0.59170  0.84010  Biso   1.000  O
  C497     1.0000 0.82540  0.58680  0.90900  Biso   1.000  C
  C498     1.0000 0.83120  0.57950  0.89380  Biso   1.000  C
  C499     1.0000 0.77440  0.58380  0.92560  Biso   1.000  C
  C500     1.0000 0.78100  0.56900  0.90960  Biso   1.000  C
  N59      1.0000 0.95580  0.66550  0.83190  Biso   1.000  N
  C501     1.0000 0.99950  0.67170  0.84430  Biso   1.000  C
  C502     1.0000 0.03350  0.68400  0.81470  Biso   1.000  C
  C503     1.0000 0.02590  0.69090  0.76930  Biso   1.000  C
  C504     1.0000 0.98170  0.68400  0.75660  Biso   1.000  C
  C505     1.0000 0.94830  0.67200  0.78700  Biso   1.000  C
  N60      1.0000 0.95070  0.66910  0.82060  Biso   1.000  N
  C506     1.0000 0.99520  0.67600  0.82940  Biso   1.000  C
  C507     1.0000 0.02710  0.68590  0.79680  Biso   1.000  C
  C508     1.0000 0.01620  0.68970  0.75160  Biso   1.000  C
  C509     1.0000 0.97110  0.68260  0.74260  Biso   1.000  C
  C510     1.0000 0.94000  0.67330  0.77610  Biso   1.000  C
  H552     1.0000 0.02200  0.50000  0.89100  Biso   1.000  H
  H553     1.0000 0.84400  0.56400  0.92500  Biso   1.000  H
  H554     1.0000 0.85200  0.55800  0.90900  Biso   1.000  H
  H555     1.0000 0.77300  0.58800  0.95900  Biso   1.000  H
  H556     1.0000 0.76200  0.55400  0.91700  Biso   1.000  H
  H557     1.0000 0.75600  0.60800  0.91100  Biso   1.000  H
  H558     1.0000 0.77900  0.57200  0.94300  Biso   1.000  H
  H559     1.0000 0.77300  0.53800  0.90000  Biso   1.000  H
  H560     1.0000 0.76000  0.59100  0.89500  Biso   1.000  H
  H561     1.0000 0.00800  0.66700  0.87700  Biso   1.000  H
  H562     1.0000 0.06500  0.68800  0.82700  Biso   1.000  H
  H563     1.0000 0.05000  0.70000  0.74800  Biso   1.000  H
  H564     1.0000 0.97300  0.68800  0.72400  Biso   1.000  H
  H565     1.0000 0.91700  0.66800  0.77500  Biso   1.000  H
  H566     1.0000 0.00500  0.67400  0.86200  Biso   1.000  H
  H567     1.0000 0.05900  0.69000  0.80600  Biso   1.000  H
  H568     1.0000 0.03900  0.69700  0.72800  Biso   1.000  H
  H569     1.0000 0.96000  0.68400  0.71100  Biso   1.000  H
  H570     1.0000 0.90800  0.67000  0.76700  Biso   1.000  H
  Ni211    1.0000 0.10080  0.15060  0.61960  Biso   1.000  Ni
  Ni212    1.0000 0.07660  0.15960  0.62810  Biso   1.000  Ni
  Ni213    1.0000 0.07690  0.15590  0.64290  Biso   1.000  Ni
  Ni214    1.0000 0.09660  0.11990  0.63220  Biso   1.000  Ni
  Ni215    1.0000 0.07560  0.13700  0.60270  Biso   1.000  Ni
  Ni216    1.0000 0.07000  0.13770  0.62280  Biso   1.000  Ni
  Ni217    1.0000 0.11160  0.14390  0.65340  Biso   1.000  Ni
  O181     1.0000 0.06020  0.10550  0.58440  Biso   1.000  O
  O182     1.0000 0.04700  0.11130  0.59230  Biso   1.000  O
  O183     1.0000 0.04750  0.04580  0.63120  Biso   1.000  O
  O184     1.0000 0.05900  0.04030  0.62690  Biso   1.000  O
  C511     1.0000 0.03690  0.06890  0.59570  Biso   1.000  C
  C512     1.0000 0.99660  0.05470  0.56900  Biso   1.000  C
  C513     1.0000 0.96970  0.01740  0.58090  Biso   1.000  C
  O185     1.0000 0.15880  0.13220  0.57940  Biso   1.000  O
  O186     1.0000 0.12510  0.09170  0.65990  Biso   1.000  O
  C514     1.0000 0.17460  0.08680  0.59100  Biso   1.000  C
  C515     1.0000 0.16880  0.07950  0.60620  Biso   1.000  C
  C516     1.0000 0.22560  0.08380  0.57440  Biso   1.000  C
  C517     1.0000 0.21900  0.06900  0.59040  Biso   1.000  C
  N61      1.0000 0.04420  0.16550  0.66810  Biso   1.000  N
  C518     1.0000 0.00050  0.17170  0.65570  Biso   1.000  C
  C519     1.0000 0.96650  0.18400  0.68530  Biso   1.000  C
  C520     1.0000 0.97410  0.19090  0.73070  Biso   1.000  C
  C521     1.0000 0.01830  0.18400  0.74340  Biso   1.000  C
  C522     1.0000 0.05170  0.17200  0.71300  Biso   1.000  C
  N62      1.0000 0.04930  0.16910  0.67940  Biso   1.000  N
  C523     1.0000 0.00480  0.17600  0.67060  Biso   1.000  C
  C524     1.0000 0.97290  0.18590  0.70320  Biso   1.000  C
  C525     1.0000 0.98380  0.18970  0.74840  Biso   1.000  C
  C526     1.0000 0.02890  0.18260  0.75740  Biso   1.000  C
  C527     1.0000 0.06000  0.17330  0.72390  Biso   1.000  C
  H571     1.0000 0.97800  0.00000  0.60900  Biso   1.000  H
  H572     1.0000 0.15600  0.06400  0.57500  Biso   1.000  H
  H573     1.0000 0.14800  0.05800  0.59100  Biso   1.000  H
  H574     1.0000 0.22700  0.08800  0.54100  Biso   1.000  H
  H575     1.0000 0.23800  0.05400  0.58300  Biso   1.000  H
  H576     1.0000 0.24400  0.10800  0.58900  Biso   1.000  H
  H577     1.0000 0.22100  0.07200  0.55700  Biso   1.000  H
  H578     1.0000 0.22700  0.03800  0.60000  Biso   1.000  H
  H579     1.0000 0.24000  0.09100  0.60500  Biso   1.000  H
  H580     1.0000 0.99200  0.16700  0.62300  Biso   1.000  H
  H581     1.0000 0.93500  0.18800  0.67300  Biso   1.000  H
  H582     1.0000 0.95000  0.20000  0.75200  Biso   1.000  H
  H583     1.0000 0.02700  0.18800  0.77600  Biso   1.000  H
  H584     1.0000 0.08300  0.16800  0.72500  Biso   1.000  H
  H585     1.0000 0.99500  0.17400  0.63800  Biso   1.000  H
  H586     1.0000 0.94100  0.19000  0.69400  Biso   1.000  H
  H587     1.0000 0.96100  0.19700  0.77200  Biso   1.000  H
  H588     1.0000 0.04000  0.18400  0.78900  Biso   1.000  H
  H589     1.0000 0.09200  0.17000  0.73300  Biso   1.000  H
  Ni218    1.0000 0.60080  0.34940  0.38040  Biso   1.000  Ni
  Ni219    1.0000 0.57660  0.34040  0.37190  Biso   1.000  Ni
  Ni220    1.0000 0.57690  0.34410  0.35710  Biso   1.000  Ni
  Ni221    1.0000 0.59660  0.38010  0.36780  Biso   1.000  Ni
  Ni222    1.0000 0.57560  0.36300  0.39730  Biso   1.000  Ni
  Ni223    1.0000 0.57000  0.36230  0.37720  Biso   1.000  Ni
  Ni224    1.0000 0.61160  0.35610  0.34660  Biso   1.000  Ni
  O187     1.0000 0.56020  0.39450  0.41560  Biso   1.000  O
  O188     1.0000 0.54700  0.38870  0.40770  Biso   1.000  O
  O189     1.0000 0.54750  0.45420  0.36880  Biso   1.000  O
  O190     1.0000 0.55900  0.45970  0.37310  Biso   1.000  O
  C528     1.0000 0.53690  0.43110  0.40430  Biso   1.000  C
  C529     1.0000 0.49660  0.44530  0.43100  Biso   1.000  C
  C530     1.0000 0.46970  0.48260  0.41910  Biso   1.000  C
  O191     1.0000 0.65880  0.36780  0.42060  Biso   1.000  O
  O192     1.0000 0.62510  0.40830  0.34010  Biso   1.000  O
  C531     1.0000 0.67460  0.41320  0.40900  Biso   1.000  C
  C532     1.0000 0.66880  0.42050  0.39380  Biso   1.000  C
  C533     1.0000 0.72560  0.41620  0.42560  Biso   1.000  C
  C534     1.0000 0.71900  0.43100  0.40960  Biso   1.000  C
  N63      1.0000 0.54420  0.33450  0.33190  Biso   1.000  N
  C535     1.0000 0.50050  0.32830  0.34430  Biso   1.000  C
  C536     1.0000 0.46650  0.31600  0.31470  Biso   1.000  C
  C537     1.0000 0.47410  0.30910  0.26930  Biso   1.000  C
  C538     1.0000 0.51830  0.31600  0.25660  Biso   1.000  C
  C539     1.0000 0.55170  0.32800  0.28700  Biso   1.000  C
  N64      1.0000 0.54930  0.33090  0.32060  Biso   1.000  N
  C540     1.0000 0.50480  0.32400  0.32940  Biso   1.000  C
  C541     1.0000 0.47290  0.31410  0.29680  Biso   1.000  C
  C542     1.0000 0.48380  0.31030  0.25160  Biso   1.000  C
  C543     1.0000 0.52890  0.31740  0.24260  Biso   1.000  C
  C544     1.0000 0.56000  0.32670  0.27610  Biso   1.000  C
  H590     1.0000 0.47800  0.50000  0.39100  Biso   1.000  H
  H591     1.0000 0.65600  0.43600  0.42500  Biso   1.000  H
  H592     1.0000 0.64800  0.44200  0.40900  Biso   1.000  H
  H593     1.0000 0.72700  0.41200  0.45900  Biso   1.000  H
  H594     1.0000 0.73800  0.44600  0.41700  Biso   1.000  H
  H595     1.0000 0.74400  0.39200  0.41100  Biso   1.000  H
  H596     1.0000 0.72100  0.42800  0.44300  Biso   1.000  H
  H597     1.0000 0.72700  0.46200  0.40000  Biso   1.000  H
  H598     1.0000 0.74000  0.40900  0.39500  Biso   1.000  H
  H599     1.0000 0.49200  0.33300  0.37700  Biso   1.000  H
  H600     1.0000 0.43500  0.31200  0.32700  Biso   1.000  H
  H601     1.0000 0.45000  0.30000  0.24800  Biso   1.000  H
  H602     1.0000 0.52700  0.31200  0.22400  Biso   1.000  H
  H603     1.0000 0.58300  0.33200  0.27500  Biso   1.000  H
  H604     1.0000 0.49500  0.32600  0.36200  Biso   1.000  H
  H605     1.0000 0.44100  0.31000  0.30600  Biso   1.000  H
  H606     1.0000 0.46100  0.30300  0.22800  Biso   1.000  H
  H607     1.0000 0.54000  0.31600  0.21100  Biso   1.000  H
  H608     1.0000 0.59200  0.33000  0.26700  Biso   1.000  H
  Ni225    1.0000 0.11960  0.39920  0.84940  Biso   1.000  Ni
  Ni226    1.0000 0.12810  0.42340  0.84040  Biso   1.000  Ni
  Ni227    1.0000 0.14290  0.42310  0.84410  Biso   1.000  Ni
  Ni228    1.0000 0.13220  0.40340  0.88010  Biso   1.000  Ni
  Ni229    1.0000 0.10270  0.42440  0.86300  Biso   1.000  Ni
  Ni230    1.0000 0.12280  0.43000  0.86230  Biso   1.000  Ni
  Ni231    1.0000 0.15340  0.38840  0.85610  Biso   1.000  Ni
  O193     1.0000 0.08440  0.43980  0.89450  Biso   1.000  O
  O194     1.0000 0.09230  0.45300  0.88870  Biso   1.000  O
  O195     1.0000 0.13120  0.45250  0.95420  Biso   1.000  O
  O196     1.0000 0.12690  0.44100  0.95970  Biso   1.000  O
  C545     1.0000 0.09570  0.46310  0.93110  Biso   1.000  C
  C546     1.0000 0.06900  0.50340  0.94530  Biso   1.000  C
  C547     1.0000 0.08090  0.53030  0.98260  Biso   1.000  C
  O197     1.0000 0.07940  0.34120  0.86780  Biso   1.000  O
  O198     1.0000 0.15990  0.37490  0.90830  Biso   1.000  O
  C548     1.0000 0.09100  0.32540  0.91320  Biso   1.000  C
  C549     1.0000 0.10620  0.33120  0.92050  Biso   1.000  C
  C550     1.0000 0.07440  0.27440  0.91620  Biso   1.000  C
  C551     1.0000 0.09040  0.28100  0.93100  Biso   1.000  C
  N65      1.0000 0.16810  0.45580  0.83450  Biso   1.000  N
  C552     1.0000 0.15570  0.49950  0.82830  Biso   1.000  C
  C553     1.0000 0.18530  0.53350  0.81600  Biso   1.000  C
  C554     1.0000 0.23070  0.52590  0.80910  Biso   1.000  C
  C555     1.0000 0.24340  0.48170  0.81600  Biso   1.000  C
  C556     1.0000 0.21300  0.44830  0.82800  Biso   1.000  C
  N66      1.0000 0.17940  0.45070  0.83090  Biso   1.000  N
  C557     1.0000 0.17060  0.49520  0.82400  Biso   1.000  C
  C558     1.0000 0.20320  0.52710  0.81410  Biso   1.000  C
  C559     1.0000 0.24840  0.51620  0.81030  Biso   1.000  C
  C560     1.0000 0.25740  0.47110  0.81740  Biso   1.000  C
  C561     1.0000 0.22390  0.44000  0.82670  Biso   1.000  C
  H609     1.0000 0.10900  0.52200  0.00000  Biso   1.000  H
  H610     1.0000 0.07500  0.34400  0.93600  Biso   1.000  H
  H611     1.0000 0.09100  0.35200  0.94200  Biso   1.000  H
  H612     1.0000 0.04100  0.27300  0.91200  Biso   1.000  H
  H613     1.0000 0.08300  0.26200  0.94600  Biso   1.000  H
  H614     1.0000 0.08900  0.25600  0.89200  Biso   1.000  H
  H615     1.0000 0.05700  0.27900  0.92800  Biso   1.000  H
  H616     1.0000 0.10000  0.27300  0.96200  Biso   1.000  H
  H617     1.0000 0.10500  0.26000  0.90900  Biso   1.000  H
  H618     1.0000 0.12300  0.50800  0.83300  Biso   1.000  H
  H619     1.0000 0.17300  0.56500  0.81200  Biso   1.000  H
  H620     1.0000 0.25200  0.55000  0.80000  Biso   1.000  H
  H621     1.0000 0.27600  0.47300  0.81200  Biso   1.000  H
  H622     1.0000 0.22500  0.41700  0.83200  Biso   1.000  H
  H623     1.0000 0.13800  0.50500  0.82600  Biso   1.000  H
  H624     1.0000 0.19400  0.55900  0.81000  Biso   1.000  H
  H625     1.0000 0.27200  0.53900  0.80300  Biso   1.000  H
  H626     1.0000 0.28900  0.46000  0.81600  Biso   1.000  H
  H627     1.0000 0.23300  0.40800  0.83000  Biso   1.000  H
  Ni232    1.0000 0.88040  0.89920  0.65060  Biso   1.000  Ni
  Ni233    1.0000 0.87190  0.92340  0.65960  Biso   1.000  Ni
  Ni234    1.0000 0.85710  0.92310  0.65590  Biso   1.000  Ni
  Ni235    1.0000 0.86780  0.90340  0.61990  Biso   1.000  Ni
  Ni236    1.0000 0.89730  0.92440  0.63700  Biso   1.000  Ni
  Ni237    1.0000 0.87720  0.93000  0.63770  Biso   1.000  Ni
  Ni238    1.0000 0.84660  0.88840  0.64390  Biso   1.000  Ni
  O199     1.0000 0.91560  0.93980  0.60550  Biso   1.000  O
  O200     1.0000 0.90770  0.95300  0.61130  Biso   1.000  O
  O201     1.0000 0.86880  0.95250  0.54580  Biso   1.000  O
  O202     1.0000 0.87310  0.94100  0.54030  Biso   1.000  O
  C562     1.0000 0.90430  0.96310  0.56890  Biso   1.000  C
  C563     1.0000 0.93100  0.00340  0.55470  Biso   1.000  C
  C564     1.0000 0.91910  0.03030  0.51740  Biso   1.000  C
  O203     1.0000 0.92060  0.84120  0.63220  Biso   1.000  O
  O204     1.0000 0.84010  0.87490  0.59170  Biso   1.000  O
  C565     1.0000 0.90900  0.82540  0.58680  Biso   1.000  C
  C566     1.0000 0.89380  0.83120  0.57950  Biso   1.000  C
  C567     1.0000 0.92560  0.77440  0.58380  Biso   1.000  C
  C568     1.0000 0.90960  0.78100  0.56900  Biso   1.000  C
  N67      1.0000 0.83190  0.95580  0.66550  Biso   1.000  N
  C569     1.0000 0.84430  0.99950  0.67170  Biso   1.000  C
  C570     1.0000 0.81470  0.03350  0.68400  Biso   1.000  C
  C571     1.0000 0.76930  0.02590  0.69090  Biso   1.000  C
  C572     1.0000 0.75660  0.98170  0.68400  Biso   1.000  C
  C573     1.0000 0.78700  0.94830  0.67200  Biso   1.000  C
  N68      1.0000 0.82060  0.95070  0.66910  Biso   1.000  N
  C574     1.0000 0.82940  0.99520  0.67600  Biso   1.000  C
  C575     1.0000 0.79680  0.02710  0.68590  Biso   1.000  C
  C576     1.0000 0.75160  0.01620  0.68970  Biso   1.000  C
  C577     1.0000 0.74260  0.97110  0.68260  Biso   1.000  C
  C578     1.0000 0.77610  0.94000  0.67330  Biso   1.000  C
  H628     1.0000 0.89100  0.02200  0.50000  Biso   1.000  H
  H629     1.0000 0.92500  0.84400  0.56400  Biso   1.000  H
  H630     1.0000 0.90900  0.85200  0.55800  Biso   1.000  H
  H631     1.0000 0.95900  0.77300  0.58800  Biso   1.000  H
  H632     1.0000 0.91700  0.76200  0.55400  Biso   1.000  H
  H633     1.0000 0.91100  0.75600  0.60800  Biso   1.000  H
  H634     1.0000 0.94300  0.77900  0.57200  Biso   1.000  H
  H635     1.0000 0.90000  0.77300  0.53800  Biso   1.000  H
  H636     1.0000 0.89500  0.76000  0.59100  Biso   1.000  H
  H637     1.0000 0.87700  0.00800  0.66700  Biso   1.000  H
  H638     1.0000 0.82700  0.06500  0.68800  Biso   1.000  H
  H639     1.0000 0.74800  0.05000  0.70000  Biso   1.000  H
  H640     1.0000 0.72400  0.97300  0.68800  Biso   1.000  H
  H641     1.0000 0.77500  0.91700  0.66800  Biso   1.000  H
  H642     1.0000 0.86200  0.00500  0.67400  Biso   1.000  H
  H643     1.0000 0.80600  0.05900  0.69000  Biso   1.000  H
  H644     1.0000 0.72800  0.03900  0.69700  Biso   1.000  H
  H645     1.0000 0.71100  0.96000  0.68400  Biso   1.000  H
  H646     1.0000 0.76700  0.90800  0.67000  Biso   1.000  H
  Ni239    1.0000 0.61960  0.10080  0.15060  Biso   1.000  Ni
  Ni240    1.0000 0.62810  0.07660  0.15960  Biso   1.000  Ni
  Ni241    1.0000 0.64290  0.07690  0.15590  Biso   1.000  Ni
  Ni242    1.0000 0.63220  0.09660  0.11990  Biso   1.000  Ni
  Ni243    1.0000 0.60270  0.07560  0.13700  Biso   1.000  Ni
  Ni244    1.0000 0.62280  0.07000  0.13770  Biso   1.000  Ni
  Ni245    1.0000 0.65340  0.11160  0.14390  Biso   1.000  Ni
  O205     1.0000 0.58440  0.06020  0.10550  Biso   1.000  O
  O206     1.0000 0.59230  0.04700  0.11130  Biso   1.000  O
  O207     1.0000 0.63120  0.04750  0.04580  Biso   1.000  O
  O208     1.0000 0.62690  0.05900  0.04030  Biso   1.000  O
  C579     1.0000 0.59570  0.03690  0.06890  Biso   1.000  C
  C580     1.0000 0.56900  0.99660  0.05470  Biso   1.000  C
  C581     1.0000 0.58090  0.96970  0.01740  Biso   1.000  C
  O209     1.0000 0.57940  0.15880  0.13220  Biso   1.000  O
  O210     1.0000 0.65990  0.12510  0.09170  Biso   1.000  O
  C582     1.0000 0.59100  0.17460  0.08680  Biso   1.000  C
  C583     1.0000 0.60620  0.16880  0.07950  Biso   1.000  C
  C584     1.0000 0.57440  0.22560  0.08380  Biso   1.000  C
  C585     1.0000 0.59040  0.21900  0.06900  Biso   1.000  C
  N69      1.0000 0.66810  0.04420  0.16550  Biso   1.000  N
  C586     1.0000 0.65570  0.00050  0.17170  Biso   1.000  C
  C587     1.0000 0.68530  0.96650  0.18400  Biso   1.000  C
  C588     1.0000 0.73070  0.97410  0.19090  Biso   1.000  C
  C589     1.0000 0.74340  0.01830  0.18400  Biso   1.000  C
  C590     1.0000 0.71300  0.05170  0.17200  Biso   1.000  C
  N70      1.0000 0.67940  0.04930  0.16910  Biso   1.000  N
  C591     1.0000 0.67060  0.00480  0.17600  Biso   1.000  C
  C592     1.0000 0.70320  0.97290  0.18590  Biso   1.000  C
  C593     1.0000 0.74840  0.98380  0.18970  Biso   1.000  C
  C594     1.0000 0.75740  0.02890  0.18260  Biso   1.000  C
  C595     1.0000 0.72390  0.06000  0.17330  Biso   1.000  C
  H647     1.0000 0.60900  0.97800  0.00000  Biso   1.000  H
  H648     1.0000 0.57500  0.15600  0.06400  Biso   1.000  H
  H649     1.0000 0.59100  0.14800  0.05800  Biso   1.000  H
  H650     1.0000 0.54100  0.22700  0.08800  Biso   1.000  H
  H651     1.0000 0.58300  0.23800  0.05400  Biso   1.000  H
  H652     1.0000 0.58900  0.24400  0.10800  Biso   1.000  H
  H653     1.0000 0.55700  0.22100  0.07200  Biso   1.000  H
  H654     1.0000 0.60000  0.22700  0.03800  Biso   1.000  H
  H655     1.0000 0.60500  0.24000  0.09100  Biso   1.000  H
  H656     1.0000 0.62300  0.99200  0.16700  Biso   1.000  H
  H657     1.0000 0.67300  0.93500  0.18800  Biso   1.000  H
  H658     1.0000 0.75200  0.95000  0.20000  Biso   1.000  H
  H659     1.0000 0.77600  0.02700  0.18800  Biso   1.000  H
  H660     1.0000 0.72500  0.08300  0.16800  Biso   1.000  H
  H661     1.0000 0.63800  0.99500  0.17400  Biso   1.000  H
  H662     1.0000 0.69400  0.94100  0.19000  Biso   1.000  H
  H663     1.0000 0.77200  0.96100  0.19700  Biso   1.000  H
  H664     1.0000 0.78900  0.04000  0.18400  Biso   1.000  H
  H665     1.0000 0.73300  0.09200  0.17000  Biso   1.000  H
  Ni246    1.0000 0.38040  0.60080  0.34940  Biso   1.000  Ni
  Ni247    1.0000 0.37190  0.57660  0.34040  Biso   1.000  Ni
  Ni248    1.0000 0.35710  0.57690  0.34410  Biso   1.000  Ni
  Ni249    1.0000 0.36780  0.59660  0.38010  Biso   1.000  Ni
  Ni250    1.0000 0.39730  0.57560  0.36300  Biso   1.000  Ni
  Ni251    1.0000 0.37720  0.57000  0.36230  Biso   1.000  Ni
  Ni252    1.0000 0.34660  0.61160  0.35610  Biso   1.000  Ni
  O211     1.0000 0.41560  0.56020  0.39450  Biso   1.000  O
  O212     1.0000 0.40770  0.54700  0.38870  Biso   1.000  O
  O213     1.0000 0.36880  0.54750  0.45420  Biso   1.000  O
  O214     1.0000 0.37310  0.55900  0.45970  Biso   1.000  O
  C596     1.0000 0.40430  0.53690  0.43110  Biso   1.000  C
  C597     1.0000 0.43100  0.49660  0.44530  Biso   1.000  C
  C598     1.0000 0.41910  0.46970  0.48260  Biso   1.000  C
  O215     1.0000 0.42060  0.65880  0.36780  Biso   1.000  O
  O216     1.0000 0.34010  0.62510  0.40830  Biso   1.000  O
  C599     1.0000 0.40900  0.67460  0.41320  Biso   1.000  C
  C600     1.0000 0.39380  0.66880  0.42050  Biso   1.000  C
  C601     1.0000 0.42560  0.72560  0.41620  Biso   1.000  C
  C602     1.0000 0.40960  0.71900  0.43100  Biso   1.000  C
  N71      1.0000 0.33190  0.54420  0.33450  Biso   1.000  N
  C603     1.0000 0.34430  0.50050  0.32830  Biso   1.000  C
  C604     1.0000 0.31470  0.46650  0.31600  Biso   1.000  C
  C605     1.0000 0.26930  0.47410  0.30910  Biso   1.000  C
  C606     1.0000 0.25660  0.51830  0.31600  Biso   1.000  C
  C607     1.0000 0.28700  0.55170  0.32800  Biso   1.000  C
  N72      1.0000 0.32060  0.54930  0.33090  Biso   1.000  N
  C608     1.0000 0.32940  0.50480  0.32400  Biso   1.000  C
  C609     1.0000 0.29680  0.47290  0.31410  Biso   1.000  C
  C610     1.0000 0.25160  0.48380  0.31030  Biso   1.000  C
  C611     1.0000 0.24260  0.52890  0.31740  Biso   1.000  C
  C612     1.0000 0.27610  0.56000  0.32670  Biso   1.000  C
  H666     1.0000 0.39100  0.47800  0.50000  Biso   1.000  H
  H667     1.0000 0.42500  0.65600  0.43600  Biso   1.000  H
  H668     1.0000 0.40900  0.64800  0.44200  Biso   1.000  H
  H669     1.0000 0.45900  0.72700  0.41200  Biso   1.000  H
  H670     1.0000 0.41700  0.73800  0.44600  Biso   1.000  H
  H671     1.0000 0.41100  0.74400  0.39200  Biso   1.000  H
  H672     1.0000 0.44300  0.72100  0.42800  Biso   1.000  H
  H673     1.0000 0.40000  0.72700  0.46200  Biso   1.000  H
  H674     1.0000 0.39500  0.74000  0.40900  Biso   1.000  H
  H675     1.0000 0.37700  0.49200  0.33300  Biso   1.000  H
  H676     1.0000 0.32700  0.43500  0.31200  Biso   1.000  H
  H677     1.0000 0.24800  0.45000  0.30000  Biso   1.000  H
  H678     1.0000 0.22400  0.52700  0.31200  Biso   1.000  H
  H679     1.0000 0.27500  0.58300  0.33200  Biso   1.000  H
  H680     1.0000 0.36200  0.49500  0.32600  Biso   1.000  H
  H681     1.0000 0.30600  0.44100  0.31000  Biso   1.000  H
  H682     1.0000 0.22800  0.46100  0.30300  Biso   1.000  H
  H683     1.0000 0.21100  0.54000  0.31600  Biso   1.000  H
  H684     1.0000 0.26700  0.59200  0.33000  Biso   1.000  H
  Ni253    1.0000 0.36960  0.59940  0.35080  Biso   1.000  Ni
  Ni254    1.0000 0.37810  0.59040  0.32660  Biso   1.000  Ni
  Ni255    1.0000 0.39290  0.59410  0.32690  Biso   1.000  Ni
  Ni256    1.0000 0.38220  0.63010  0.34660  Biso   1.000  Ni
  Ni257    1.0000 0.35270  0.61300  0.32560  Biso   1.000  Ni
  Ni258    1.0000 0.37280  0.61230  0.32000  Biso   1.000  Ni
  Ni259    1.0000 0.40340  0.60610  0.36160  Biso   1.000  Ni
  O217     1.0000 0.33440  0.64450  0.31020  Biso   1.000  O
  O218     1.0000 0.34230  0.63870  0.29700  Biso   1.000  O
  O219     1.0000 0.38120  0.70420  0.29750  Biso   1.000  O
  O220     1.0000 0.37690  0.70970  0.30900  Biso   1.000  O
  C613     1.0000 0.34570  0.68110  0.28690  Biso   1.000  C
  C614     1.0000 0.31900  0.69530  0.24660  Biso   1.000  C
  C615     1.0000 0.33090  0.73260  0.21970  Biso   1.000  C
  O221     1.0000 0.32940  0.61780  0.40880  Biso   1.000  O
  O222     1.0000 0.40990  0.65830  0.37510  Biso   1.000  O
  C616     1.0000 0.34100  0.66320  0.42460  Biso   1.000  C
  C617     1.0000 0.35620  0.67050  0.41880  Biso   1.000  C
  C618     1.0000 0.32440  0.66620  0.47560  Biso   1.000  C
  C619     1.0000 0.34040  0.68100  0.46900  Biso   1.000  C
  N73      1.0000 0.41810  0.58450  0.29420  Biso   1.000  N
  C620     1.0000 0.40570  0.57830  0.25050  Biso   1.000  C
  C621     1.0000 0.43530  0.56600  0.21650  Biso   1.000  C
  C622     1.0000 0.48070  0.55910  0.22410  Biso   1.000  C
  C623     1.0000 0.49340  0.56600  0.26830  Biso   1.000  C
  C624     1.0000 0.46300  0.57800  0.30170  Biso   1.000  C
  N74      1.0000 0.42940  0.58090  0.29930  Biso   1.000  N
  C625     1.0000 0.42060  0.57400  0.25480  Biso   1.000  C
  C626     1.0000 0.45320  0.56410  0.22290  Biso   1.000  C
  C627     1.0000 0.49840  0.56030  0.23380  Biso   1.000  C
  C628     1.0000 0.50740  0.56740  0.27890  Biso   1.000  C
  C629     1.0000 0.47390  0.57670  0.31000  Biso   1.000  C
  H685     1.0000 0.35900  0.75000  0.22800  Biso   1.000  H
  H686     1.0000 0.32500  0.68600  0.40600  Biso   1.000  H
  H687     1.0000 0.34100  0.69200  0.39800  Biso   1.000  H
  H688     1.0000 0.29100  0.66200  0.47700  Biso   1.000  H
  H689     1.0000 0.33300  0.69600  0.48800  Biso   1.000  H
  H690     1.0000 0.33900  0.64200  0.49400  Biso   1.000  H
  H691     1.0000 0.30700  0.67800  0.47100  Biso   1.000  H
  H692     1.0000 0.35000  0.71200  0.47700  Biso   1.000  H
  H693     1.0000 0.35500  0.65900  0.49000  Biso   1.000  H
  H694     1.0000 0.37300  0.58300  0.24200  Biso   1.000  H
  H695     1.0000 0.42300  0.56200  0.18500  Biso   1.000  H
  H696     1.0000 0.50200  0.55000  0.20000  Biso   1.000  H
  H697     1.0000 0.52600  0.56200  0.27700  Biso   1.000  H
  H698     1.0000 0.47500  0.58200  0.33300  Biso   1.000  H
  H699     1.0000 0.38800  0.57600  0.24500  Biso   1.000  H
  H700     1.0000 0.44400  0.56000  0.19100  Biso   1.000  H
  H701     1.0000 0.52200  0.55300  0.21100  Biso   1.000  H
  H702     1.0000 0.53900  0.56600  0.29000  Biso   1.000  H
  H703     1.0000 0.48300  0.58000  0.34200  Biso   1.000  H
  Ni260    1.0000 0.13040  0.40060  0.85080  Biso   1.000  Ni
  Ni261    1.0000 0.12190  0.40960  0.82660  Biso   1.000  Ni
  Ni262    1.0000 0.10710  0.40590  0.82690  Biso   1.000  Ni
  Ni263    1.0000 0.11780  0.36990  0.84660  Biso   1.000  Ni
  Ni264    1.0000 0.14730  0.38700  0.82560  Biso   1.000  Ni
  Ni265    1.0000 0.12720  0.38770  0.82000  Biso   1.000  Ni
  Ni266    1.0000 0.09660  0.39390  0.86160  Biso   1.000  Ni
  O223     1.0000 0.16560  0.35550  0.81020  Biso   1.000  O
  O224     1.0000 0.15770  0.36130  0.79700  Biso   1.000  O
  O225     1.0000 0.11880  0.29580  0.79750  Biso   1.000  O
  O226     1.0000 0.12310  0.29030  0.80900  Biso   1.000  O
  C630     1.0000 0.15430  0.31890  0.78690  Biso   1.000  C
  C631     1.0000 0.18100  0.30470  0.74660  Biso   1.000  C
  C632     1.0000 0.16910  0.26740  0.71970  Biso   1.000  C
  O227     1.0000 0.17060  0.38220  0.90880  Biso   1.000  O
  O228     1.0000 0.09010  0.34170  0.87510  Biso   1.000  O
  C633     1.0000 0.15900  0.33680  0.92460  Biso   1.000  C
  C634     1.0000 0.14380  0.32950  0.91880  Biso   1.000  C
  C635     1.0000 0.17560  0.33380  0.97560  Biso   1.000  C
  C636     1.0000 0.15960  0.31900  0.96900  Biso   1.000  C
  N75      1.0000 0.08190  0.41550  0.79420  Biso   1.000  N
  C637     1.0000 0.09430  0.42170  0.75050  Biso   1.000  C
  C638     1.0000 0.06470  0.43400  0.71650  Biso   1.000  C
  C639     1.0000 0.01930  0.44090  0.72410  Biso   1.000  C
  C640     1.0000 0.00660  0.43400  0.76830  Biso   1.000  C
  C641     1.0000 0.03700  0.42200  0.80170  Biso   1.000  C
  N76      1.0000 0.07060  0.41910  0.79930  Biso   1.000  N
  C642     1.0000 0.07940  0.42600  0.75480  Biso   1.000  C
  C643     1.0000 0.04680  0.43590  0.72290  Biso   1.000  C
  C644     1.0000 0.00160  0.43970  0.73380  Biso   1.000  C
  C645     1.0000 0.99260  0.43260  0.77890  Biso   1.000  C
  C646     1.0000 0.02610  0.42330  0.81000  Biso   1.000  C
  H704     1.0000 0.14100  0.25000  0.72800  Biso   1.000  H
  H705     1.0000 0.17500  0.31400  0.90600  Biso   1.000  H
  H706     1.0000 0.15900  0.30800  0.89800  Biso   1.000  H
  H707     1.0000 0.20900  0.33800  0.97700  Biso   1.000  H
  H708     1.0000 0.16700  0.30400  0.98800  Biso   1.000  H
  H709     1.0000 0.16100  0.35800  0.99400  Biso   1.000  H
  H710     1.0000 0.19300  0.32200  0.97100  Biso   1.000  H
  H711     1.0000 0.15000  0.28800  0.97700  Biso   1.000  H
  H712     1.0000 0.14500  0.34100  0.99000  Biso   1.000  H
  H713     1.0000 0.12700  0.41700  0.74200  Biso   1.000  H
  H714     1.0000 0.07700  0.43800  0.68500  Biso   1.000  H
  H715     1.0000 0.99800  0.45000  0.70000  Biso   1.000  H
  H716     1.0000 0.97400  0.43800  0.77700  Biso   1.000  H
  H717     1.0000 0.02500  0.41800  0.83300  Biso   1.000  H
  H718     1.0000 0.11200  0.42400  0.74500  Biso   1.000  H
  H719     1.0000 0.05600  0.44000  0.69100  Biso   1.000  H
  H720     1.0000 0.97800  0.44700  0.71100  Biso   1.000  H
  H721     1.0000 0.96100  0.43400  0.79000  Biso   1.000  H
  H722     1.0000 0.01700  0.42000  0.84200  Biso   1.000  H
  Ni267    1.0000 0.86960  0.90060  0.64920  Biso   1.000  Ni
  Ni268    1.0000 0.87810  0.90960  0.67340  Biso   1.000  Ni
  Ni269    1.0000 0.89290  0.90590  0.67310  Biso   1.000  Ni
  Ni270    1.0000 0.88220  0.86990  0.65340  Biso   1.000  Ni
  Ni271    1.0000 0.85270  0.88700  0.67440  Biso   1.000  Ni
  Ni272    1.0000 0.87280  0.88770  0.68000  Biso   1.000  Ni
  Ni273    1.0000 0.90340  0.89390  0.63840  Biso   1.000  Ni
  O229     1.0000 0.83440  0.85550  0.68980  Biso   1.000  O
  O230     1.0000 0.84230  0.86130  0.70300  Biso   1.000  O
  O231     1.0000 0.88120  0.79580  0.70250  Biso   1.000  O
  O232     1.0000 0.87690  0.79030  0.69100  Biso   1.000  O
  C647     1.0000 0.84570  0.81890  0.71310  Biso   1.000  C
  C648     1.0000 0.81900  0.80470  0.75340  Biso   1.000  C
  C649     1.0000 0.83090  0.76740  0.78030  Biso   1.000  C
  O233     1.0000 0.82940  0.88220  0.59120  Biso   1.000  O
  O234     1.0000 0.90990  0.84170  0.62490  Biso   1.000  O
  C650     1.0000 0.84100  0.83680  0.57540  Biso   1.000  C
  C651     1.0000 0.85620  0.82950  0.58120  Biso   1.000  C
  C652     1.0000 0.82440  0.83380  0.52440  Biso   1.000  C
  C653     1.0000 0.84040  0.81900  0.53100  Biso   1.000  C
  N77      1.0000 0.91810  0.91550  0.70580  Biso   1.000  N
  C654     1.0000 0.90570  0.92170  0.74950  Biso   1.000  C
  C655     1.0000 0.93530  0.93400  0.78350  Biso   1.000  C
  C656     1.0000 0.98070  0.94090  0.77590  Biso   1.000  C
  C657     1.0000 0.99340  0.93400  0.73170  Biso   1.000  C
  C658     1.0000 0.96300  0.92200  0.69830  Biso   1.000  C
  N78      1.0000 0.92940  0.91910  0.70070  Biso   1.000  N
  C659     1.0000 0.92060  0.92600  0.74520  Biso   1.000  C
  C660     1.0000 0.95320  0.93590  0.77710  Biso   1.000  C
  C661     1.0000 0.99840  0.93970  0.76620  Biso   1.000  C
  C662     1.0000 0.00740  0.93260  0.72110  Biso   1.000  C
  C663     1.0000 0.97390  0.92330  0.69000  Biso   1.000  C
  H723     1.0000 0.85900  0.75000  0.77200  Biso   1.000  H
  H724     1.0000 0.82500  0.81400  0.59400  Biso   1.000  H
  H725     1.0000 0.84100  0.80800  0.60200  Biso   1.000  H
  H726     1.0000 0.79100  0.83800  0.52300  Biso   1.000  H
  H727     1.0000 0.83300  0.80400  0.51200  Biso   1.000  H
  H728     1.0000 0.83900  0.85800  0.50600  Biso   1.000  H
  H729     1.0000 0.80700  0.82200  0.52900  Biso   1.000  H
  H730     1.0000 0.85000  0.78800  0.52300  Biso   1.000  H
  H731     1.0000 0.85500  0.84100  0.51000  Biso   1.000  H
  H732     1.0000 0.87300  0.91700  0.75800  Biso   1.000  H
  H733     1.0000 0.92300  0.93800  0.81500  Biso   1.000  H
  H734     1.0000 0.00200  0.95000  0.80000  Biso   1.000  H
  H735     1.0000 0.02600  0.93800  0.72300  Biso   1.000  H
  H736     1.0000 0.97500  0.91800  0.66700  Biso   1.000  H
  H737     1.0000 0.88800  0.92400  0.75500  Biso   1.000  H
  H738     1.0000 0.94400  0.94000  0.80900  Biso   1.000  H
  H739     1.0000 0.02200  0.94700  0.78900  Biso   1.000  H
  H740     1.0000 0.03900  0.93400  0.71000  Biso   1.000  H
  H741     1.0000 0.98300  0.92000  0.65800  Biso   1.000  H
  Ni274    1.0000 0.63040  0.09940  0.14920  Biso   1.000  Ni
  Ni275    1.0000 0.62190  0.09040  0.17340  Biso   1.000  Ni
  Ni276    1.0000 0.60710  0.09410  0.17310  Biso   1.000  Ni
  Ni277    1.0000 0.61780  0.13010  0.15340  Biso   1.000  Ni
  Ni278    1.0000 0.64730  0.11300  0.17440  Biso   1.000  Ni
  Ni279    1.0000 0.62720  0.11230  0.18000  Biso   1.000  Ni
  Ni280    1.0000 0.59660  0.10610  0.13840  Biso   1.000  Ni
  O235     1.0000 0.66560  0.14450  0.18980  Biso   1.000  O
  O236     1.0000 0.65770  0.13870  0.20300  Biso   1.000  O
  O237     1.0000 0.61880  0.20420  0.20250  Biso   1.000  O
  O238     1.0000 0.62310  0.20970  0.19100  Biso   1.000  O
  C664     1.0000 0.65430  0.18110  0.21310  Biso   1.000  C
  C665     1.0000 0.68100  0.19530  0.25340  Biso   1.000  C
  C666     1.0000 0.66910  0.23260  0.28030  Biso   1.000  C
  O239     1.0000 0.67060  0.11780  0.09120  Biso   1.000  O
  O240     1.0000 0.59010  0.15830  0.12490  Biso   1.000  O
  C667     1.0000 0.65900  0.16320  0.07540  Biso   1.000  C
  C668     1.0000 0.64380  0.17050  0.08120  Biso   1.000  C
  C669     1.0000 0.67560  0.16620  0.02440  Biso   1.000  C
  C670     1.0000 0.65960  0.18100  0.03100  Biso   1.000  C
  N79      1.0000 0.58190  0.08450  0.20580  Biso   1.000  N
  C671     1.0000 0.59430  0.07830  0.24950  Biso   1.000  C
  C672     1.0000 0.56470  0.06600  0.28350  Biso   1.000  C
  C673     1.0000 0.51930  0.05910  0.27590  Biso   1.000  C
  C674     1.0000 0.50660  0.06600  0.23170  Biso   1.000  C
  C675     1.0000 0.53700  0.07800  0.19830  Biso   1.000  C
  N80      1.0000 0.57060  0.08090  0.20070  Biso   1.000  N
  C676     1.0000 0.57940  0.07400  0.24520  Biso   1.000  C
  C677     1.0000 0.54680  0.06410  0.27710  Biso   1.000  C
  C678     1.0000 0.50160  0.06030  0.26620  Biso   1.000  C
  C679     1.0000 0.49260  0.06740  0.22110  Biso   1.000  C
  C680     1.0000 0.52610  0.07670  0.19000  Biso   1.000  C
  H742     1.0000 0.64100  0.25000  0.27200  Biso   1.000  H
  H743     1.0000 0.67500  0.18600  0.09400  Biso   1.000  H
  H744     1.0000 0.65900  0.19200  0.10200  Biso   1.000  H
  H745     1.0000 0.70900  0.16200  0.02300  Biso   1.000  H
  H746     1.0000 0.66700  0.19600  0.01200  Biso   1.000  H
  H747     1.0000 0.66100  0.14200  0.00600  Biso   1.000  H
  H748     1.0000 0.69300  0.17800  0.02900  Biso   1.000  H
  H749     1.0000 0.65000  0.21200  0.02300  Biso   1.000  H
  H750     1.0000 0.64500  0.15900  0.01000  Biso   1.000  H
  H751     1.0000 0.62700  0.08300  0.25800  Biso   1.000  H
  H752     1.0000 0.57700  0.06200  0.31500  Biso   1.000  H
  H753     1.0000 0.49800  0.05000  0.30000  Biso   1.000  H
  H754     1.0000 0.47400  0.06200  0.22300  Biso   1.000  H
  H755     1.0000 0.52500  0.08200  0.16700  Biso   1.000  H
  H756     1.0000 0.61200  0.07600  0.25500  Biso   1.000  H
  H757     1.0000 0.55600  0.06000  0.30900  Biso   1.000  H
  H758     1.0000 0.47800  0.05300  0.28900  Biso   1.000  H
  H759     1.0000 0.46100  0.06600  0.21000  Biso   1.000  H
  H760     1.0000 0.51700  0.08000  0.15800  Biso   1.000  H
  Ni281    1.0000 0.09940  0.14920  0.63040  Biso   1.000  Ni
  Ni282    1.0000 0.09040  0.17340  0.62190  Biso   1.000  Ni
  Ni283    1.0000 0.09410  0.17310  0.60710  Biso   1.000  Ni
  Ni284    1.0000 0.13010  0.15340  0.61780  Biso   1.000  Ni
  Ni285    1.0000 0.11300  0.17440  0.64730  Biso   1.000  Ni
  Ni286    1.0000 0.11230  0.18000  0.62720  Biso   1.000  Ni
  Ni287    1.0000 0.10610  0.13840  0.59660  Biso   1.000  Ni
  O241     1.0000 0.14450  0.18980  0.66560  Biso   1.000  O
  O242     1.0000 0.13870  0.20300  0.65770  Biso   1.000  O
  O243     1.0000 0.20420  0.20250  0.61880  Biso   1.000  O
  O244     1.0000 0.20970  0.19100  0.62310  Biso   1.000  O
  C681     1.0000 0.18110  0.21310  0.65430  Biso   1.000  C
  C682     1.0000 0.19530  0.25340  0.68100  Biso   1.000  C
  C683     1.0000 0.23260  0.28030  0.66910  Biso   1.000  C
  O245     1.0000 0.11780  0.09120  0.67060  Biso   1.000  O
  O246     1.0000 0.15830  0.12490  0.59010  Biso   1.000  O
  C684     1.0000 0.16320  0.07540  0.65900  Biso   1.000  C
  C685     1.0000 0.17050  0.08120  0.64380  Biso   1.000  C
  C686     1.0000 0.16620  0.02440  0.67560  Biso   1.000  C
  C687     1.0000 0.18100  0.03100  0.65960  Biso   1.000  C
  N81      1.0000 0.08450  0.20580  0.58190  Biso   1.000  N
  C688     1.0000 0.07830  0.24950  0.59430  Biso   1.000  C
  C689     1.0000 0.06600  0.28350  0.56470  Biso   1.000  C
  C690     1.0000 0.05910  0.27590  0.51930  Biso   1.000  C
  C691     1.0000 0.06600  0.23170  0.50660  Biso   1.000  C
  C692     1.0000 0.07800  0.19830  0.53700  Biso   1.000  C
  N82      1.0000 0.08090  0.20070  0.57060  Biso   1.000  N
  C693     1.0000 0.07400  0.24520  0.57940  Biso   1.000  C
  C694     1.0000 0.06410  0.27710  0.54680  Biso   1.000  C
  C695     1.0000 0.06030  0.26620  0.50160  Biso   1.000  C
  C696     1.0000 0.06740  0.22110  0.49260  Biso   1.000  C
  C697     1.0000 0.07670  0.19000  0.52610  Biso   1.000  C
  H761     1.0000 0.25000  0.27200  0.64100  Biso   1.000  H
  H762     1.0000 0.18600  0.09400  0.67500  Biso   1.000  H
  H763     1.0000 0.19200  0.10200  0.65900  Biso   1.000  H
  H764     1.0000 0.16200  0.02300  0.70900  Biso   1.000  H
  H765     1.0000 0.19600  0.01200  0.66700  Biso   1.000  H
  H766     1.0000 0.14200  0.00600  0.66100  Biso   1.000  H
  H767     1.0000 0.17800  0.02900  0.69300  Biso   1.000  H
  H768     1.0000 0.21200  0.02300  0.65000  Biso   1.000  H
  H769     1.0000 0.15900  0.01000  0.64500  Biso   1.000  H
  H770     1.0000 0.08300  0.25800  0.62700  Biso   1.000  H
  H771     1.0000 0.06200  0.31500  0.57700  Biso   1.000  H
  H772     1.0000 0.05000  0.30000  0.49800  Biso   1.000  H
  H773     1.0000 0.06200  0.22300  0.47400  Biso   1.000  H
  H774     1.0000 0.08200  0.16700  0.52500  Biso   1.000  H
  H775     1.0000 0.07600  0.25500  0.61200  Biso   1.000  H
  H776     1.0000 0.06000  0.30900  0.55600  Biso   1.000  H
  H777     1.0000 0.05300  0.28900  0.47800  Biso   1.000  H
  H778     1.0000 0.06600  0.21000  0.46100  Biso   1.000  H
  H779     1.0000 0.08000  0.15800  0.51700  Biso   1.000  H
  Ni288    1.0000 0.90060  0.64920  0.86960  Biso   1.000  Ni
  Ni289    1.0000 0.90960  0.67340  0.87810  Biso   1.000  Ni
  Ni290    1.0000 0.90590  0.67310  0.89290  Biso   1.000  Ni
  Ni291    1.0000 0.86990  0.65340  0.88220  Biso   1.000  Ni
  Ni292    1.0000 0.88700  0.67440  0.85270  Biso   1.000  Ni
  Ni293    1.0000 0.88770  0.68000  0.87280  Biso   1.000  Ni
  Ni294    1.0000 0.89390  0.63840  0.90340  Biso   1.000  Ni
  O247     1.0000 0.85550  0.68980  0.83440  Biso   1.000  O
  O248     1.0000 0.86130  0.70300  0.84230  Biso   1.000  O
  O249     1.0000 0.79580  0.70250  0.88120  Biso   1.000  O
  O250     1.0000 0.79030  0.69100  0.87690  Biso   1.000  O
  C698     1.0000 0.81890  0.71310  0.84570  Biso   1.000  C
  C699     1.0000 0.80470  0.75340  0.81900  Biso   1.000  C
  C700     1.0000 0.76740  0.78030  0.83090  Biso   1.000  C
  O251     1.0000 0.88220  0.59120  0.82940  Biso   1.000  O
  O252     1.0000 0.84170  0.62490  0.90990  Biso   1.000  O
  C701     1.0000 0.83680  0.57540  0.84100  Biso   1.000  C
  C702     1.0000 0.82950  0.58120  0.85620  Biso   1.000  C
  C703     1.0000 0.83380  0.52440  0.82440  Biso   1.000  C
  C704     1.0000 0.81900  0.53100  0.84040  Biso   1.000  C
  N83      1.0000 0.91550  0.70580  0.91810  Biso   1.000  N
  C705     1.0000 0.92170  0.74950  0.90570  Biso   1.000  C
  C706     1.0000 0.93400  0.78350  0.93530  Biso   1.000  C
  C707     1.0000 0.94090  0.77590  0.98070  Biso   1.000  C
  C708     1.0000 0.93400  0.73170  0.99340  Biso   1.000  C
  C709     1.0000 0.92200  0.69830  0.96300  Biso   1.000  C
  N84      1.0000 0.91910  0.70070  0.92940  Biso   1.000  N
  C710     1.0000 0.92600  0.74520  0.92060  Biso   1.000  C
  C711     1.0000 0.93590  0.77710  0.95320  Biso   1.000  C
  C712     1.0000 0.93970  0.76620  0.99840  Biso   1.000  C
  C713     1.0000 0.93260  0.72110  0.00740  Biso   1.000  C
  C714     1.0000 0.92330  0.69000  0.97390  Biso   1.000  C
  H780     1.0000 0.75000  0.77200  0.85900  Biso   1.000  H
  H781     1.0000 0.81400  0.59400  0.82500  Biso   1.000  H
  H782     1.0000 0.80800  0.60200  0.84100  Biso   1.000  H
  H783     1.0000 0.83800  0.52300  0.79100  Biso   1.000  H
  H784     1.0000 0.80400  0.51200  0.83300  Biso   1.000  H
  H785     1.0000 0.85800  0.50600  0.83900  Biso   1.000  H
  H786     1.0000 0.82200  0.52900  0.80700  Biso   1.000  H
  H787     1.0000 0.78800  0.52300  0.85000  Biso   1.000  H
  H788     1.0000 0.84100  0.51000  0.85500  Biso   1.000  H
  H789     1.0000 0.91700  0.75800  0.87300  Biso   1.000  H
  H790     1.0000 0.93800  0.81500  0.92300  Biso   1.000  H
  H791     1.0000 0.95000  0.80000  0.00200  Biso   1.000  H
  H792     1.0000 0.93800  0.72300  0.02600  Biso   1.000  H
  H793     1.0000 0.91800  0.66700  0.97500  Biso   1.000  H
  H794     1.0000 0.92400  0.75500  0.88800  Biso   1.000  H
  H795     1.0000 0.94000  0.80900  0.94400  Biso   1.000  H
  H796     1.0000 0.94700  0.78900  0.02200  Biso   1.000  H
  H797     1.0000 0.93400  0.71000  0.03900  Biso   1.000  H
  H798     1.0000 0.92000  0.65800  0.98300  Biso   1.000  H
  Ni295    1.0000 0.40060  0.85080  0.13040  Biso   1.000  Ni
  Ni296    1.0000 0.40960  0.82660  0.12190  Biso   1.000  Ni
  Ni297    1.0000 0.40590  0.82690  0.10710  Biso   1.000  Ni
  Ni298    1.0000 0.36990  0.84660  0.11780  Biso   1.000  Ni
  Ni299    1.0000 0.38700  0.82560  0.14730  Biso   1.000  Ni
  Ni300    1.0000 0.38770  0.82000  0.12720  Biso   1.000  Ni
  Ni301    1.0000 0.39390  0.86160  0.09660  Biso   1.000  Ni
  O253     1.0000 0.35550  0.81020  0.16560  Biso   1.000  O
  O254     1.0000 0.36130  0.79700  0.15770  Biso   1.000  O
  O255     1.0000 0.29580  0.79750  0.11880  Biso   1.000  O
  O256     1.0000 0.29030  0.80900  0.12310  Biso   1.000  O
  C715     1.0000 0.31890  0.78690  0.15430  Biso   1.000  C
  C716     1.0000 0.30470  0.74660  0.18100  Biso   1.000  C
  C717     1.0000 0.26740  0.71970  0.16910  Biso   1.000  C
  O257     1.0000 0.38220  0.90880  0.17060  Biso   1.000  O
  O258     1.0000 0.34170  0.87510  0.09010  Biso   1.000  O
  C718     1.0000 0.33680  0.92460  0.15900  Biso   1.000  C
  C719     1.0000 0.32950  0.91880  0.14380  Biso   1.000  C
  C720     1.0000 0.33380  0.97560  0.17560  Biso   1.000  C
  C721     1.0000 0.31900  0.96900  0.15960  Biso   1.000  C
  N85      1.0000 0.41550  0.79420  0.08190  Biso   1.000  N
  C722     1.0000 0.42170  0.75050  0.09430  Biso   1.000  C
  C723     1.0000 0.43400  0.71650  0.06470  Biso   1.000  C
  C724     1.0000 0.44090  0.72410  0.01930  Biso   1.000  C
  C725     1.0000 0.43400  0.76830  0.00660  Biso   1.000  C
  C726     1.0000 0.42200  0.80170  0.03700  Biso   1.000  C
  N86      1.0000 0.41910  0.79930  0.07060  Biso   1.000  N
  C727     1.0000 0.42600  0.75480  0.07940  Biso   1.000  C
  C728     1.0000 0.43590  0.72290  0.04680  Biso   1.000  C
  C729     1.0000 0.43970  0.73380  0.00160  Biso   1.000  C
  C730     1.0000 0.43260  0.77890  0.99260  Biso   1.000  C
  C731     1.0000 0.42330  0.81000  0.02610  Biso   1.000  C
  H799     1.0000 0.25000  0.72800  0.14100  Biso   1.000  H
  H800     1.0000 0.31400  0.90600  0.17500  Biso   1.000  H
  H801     1.0000 0.30800  0.89800  0.15900  Biso   1.000  H
  H802     1.0000 0.33800  0.97700  0.20900  Biso   1.000  H
  H803     1.0000 0.30400  0.98800  0.16700  Biso   1.000  H
  H804     1.0000 0.35800  0.99400  0.16100  Biso   1.000  H
  H805     1.0000 0.32200  0.97100  0.19300  Biso   1.000  H
  H806     1.0000 0.28800  0.97700  0.15000  Biso   1.000  H
  H807     1.0000 0.34100  0.99000  0.14500  Biso   1.000  H
  H808     1.0000 0.41700  0.74200  0.12700  Biso   1.000  H
  H809     1.0000 0.43800  0.68500  0.07700  Biso   1.000  H
  H810     1.0000 0.45000  0.70000  0.99800  Biso   1.000  H
  H811     1.0000 0.43800  0.77700  0.97400  Biso   1.000  H
  H812     1.0000 0.41800  0.83300  0.02500  Biso   1.000  H
  H813     1.0000 0.42400  0.74500  0.11200  Biso   1.000  H
  H814     1.0000 0.44000  0.69100  0.05600  Biso   1.000  H
  H815     1.0000 0.44700  0.71100  0.97800  Biso   1.000  H
  H816     1.0000 0.43400  0.79000  0.96100  Biso   1.000  H
  H817     1.0000 0.42000  0.84200  0.01700  Biso   1.000  H
  Ni302    1.0000 0.59940  0.35080  0.36960  Biso   1.000  Ni
  Ni303    1.0000 0.59040  0.32660  0.37810  Biso   1.000  Ni
  Ni304    1.0000 0.59410  0.32690  0.39290  Biso   1.000  Ni
  Ni305    1.0000 0.63010  0.34660  0.38220  Biso   1.000  Ni
  Ni306    1.0000 0.61300  0.32560  0.35270  Biso   1.000  Ni
  Ni307    1.0000 0.61230  0.32000  0.37280  Biso   1.000  Ni
  Ni308    1.0000 0.60610  0.36160  0.40340  Biso   1.000  Ni
  O259     1.0000 0.64450  0.31020  0.33440  Biso   1.000  O
  O260     1.0000 0.63870  0.29700  0.34230  Biso   1.000  O
  O261     1.0000 0.70420  0.29750  0.38120  Biso   1.000  O
  O262     1.0000 0.70970  0.30900  0.37690  Biso   1.000  O
  C732     1.0000 0.68110  0.28690  0.34570  Biso   1.000  C
  C733     1.0000 0.69530  0.24660  0.31900  Biso   1.000  C
  C734     1.0000 0.73260  0.21970  0.33090  Biso   1.000  C
  O263     1.0000 0.61780  0.40880  0.32940  Biso   1.000  O
  O264     1.0000 0.65830  0.37510  0.40990  Biso   1.000  O
  C735     1.0000 0.66320  0.42460  0.34100  Biso   1.000  C
  C736     1.0000 0.67050  0.41880  0.35620  Biso   1.000  C
  C737     1.0000 0.66620  0.47560  0.32440  Biso   1.000  C
  C738     1.0000 0.68100  0.46900  0.34040  Biso   1.000  C
  N87      1.0000 0.58450  0.29420  0.41810  Biso   1.000  N
  C739     1.0000 0.57830  0.25050  0.40570  Biso   1.000  C
  C740     1.0000 0.56600  0.21650  0.43530  Biso   1.000  C
  C741     1.0000 0.55910  0.22410  0.48070  Biso   1.000  C
  C742     1.0000 0.56600  0.26830  0.49340  Biso   1.000  C
  C743     1.0000 0.57800  0.30170  0.46300  Biso   1.000  C
  N88      1.0000 0.58090  0.29930  0.42940  Biso   1.000  N
  C744     1.0000 0.57400  0.25480  0.42060  Biso   1.000  C
  C745     1.0000 0.56410  0.22290  0.45320  Biso   1.000  C
  C746     1.0000 0.56030  0.23380  0.49840  Biso   1.000  C
  C747     1.0000 0.56740  0.27890  0.50740  Biso   1.000  C
  C748     1.0000 0.57670  0.31000  0.47390  Biso   1.000  C
  H818     1.0000 0.75000  0.22800  0.35900  Biso   1.000  H
  H819     1.0000 0.68600  0.40600  0.32500  Biso   1.000  H
  H820     1.0000 0.69200  0.39800  0.34100  Biso   1.000  H
  H821     1.0000 0.66200  0.47700  0.29100  Biso   1.000  H
  H822     1.0000 0.69600  0.48800  0.33300  Biso   1.000  H
  H823     1.0000 0.64200  0.49400  0.33900  Biso   1.000  H
  H824     1.0000 0.67800  0.47100  0.30700  Biso   1.000  H
  H825     1.0000 0.71200  0.47700  0.35000  Biso   1.000  H
  H826     1.0000 0.65900  0.49000  0.35500  Biso   1.000  H
  H827     1.0000 0.58300  0.24200  0.37300  Biso   1.000  H
  H828     1.0000 0.56200  0.18500  0.42300  Biso   1.000  H
  H829     1.0000 0.55000  0.20000  0.50200  Biso   1.000  H
  H830     1.0000 0.56200  0.27700  0.52600  Biso   1.000  H
  H831     1.0000 0.58200  0.33300  0.47500  Biso   1.000  H
  H832     1.0000 0.57600  0.24500  0.38800  Biso   1.000  H
  H833     1.0000 0.56000  0.19100  0.44400  Biso   1.000  H
  H834     1.0000 0.55300  0.21100  0.52200  Biso   1.000  H
  H835     1.0000 0.56600  0.29000  0.53900  Biso   1.000  H
  H836     1.0000 0.58000  0.34200  0.48300  Biso   1.000  H
  Ni309    1.0000 0.64920  0.86960  0.90060  Biso   1.000  Ni
  Ni310    1.0000 0.67340  0.87810  0.90960  Biso   1.000  Ni
  Ni311    1.0000 0.67310  0.89290  0.90590  Biso   1.000  Ni
  Ni312    1.0000 0.65340  0.88220  0.86990  Biso   1.000  Ni
  Ni313    1.0000 0.67440  0.85270  0.88700  Biso   1.000  Ni
  Ni314    1.0000 0.68000  0.87280  0.88770  Biso   1.000  Ni
  Ni315    1.0000 0.63840  0.90340  0.89390  Biso   1.000  Ni
  O265     1.0000 0.68980  0.83440  0.85550  Biso   1.000  O
  O266     1.0000 0.70300  0.84230  0.86130  Biso   1.000  O
  O267     1.0000 0.70250  0.88120  0.79580  Biso   1.000  O
  O268     1.0000 0.69100  0.87690  0.79030  Biso   1.000  O
  C749     1.0000 0.71310  0.84570  0.81890  Biso   1.000  C
  C750     1.0000 0.75340  0.81900  0.80470  Biso   1.000  C
  C751     1.0000 0.78030  0.83090  0.76740  Biso   1.000  C
  O269     1.0000 0.59120  0.82940  0.88220  Biso   1.000  O
  O270     1.0000 0.62490  0.90990  0.84170  Biso   1.000  O
  C752     1.0000 0.57540  0.84100  0.83680  Biso   1.000  C
  C753     1.0000 0.58120  0.85620  0.82950  Biso   1.000  C
  C754     1.0000 0.52440  0.82440  0.83380  Biso   1.000  C
  C755     1.0000 0.53100  0.84040  0.81900  Biso   1.000  C
  N89      1.0000 0.70580  0.91810  0.91550  Biso   1.000  N
  C756     1.0000 0.74950  0.90570  0.92170  Biso   1.000  C
  C757     1.0000 0.78350  0.93530  0.93400  Biso   1.000  C
  C758     1.0000 0.77590  0.98070  0.94090  Biso   1.000  C
  C759     1.0000 0.73170  0.99340  0.93400  Biso   1.000  C
  C760     1.0000 0.69830  0.96300  0.92200  Biso   1.000  C
  N90      1.0000 0.70070  0.92940  0.91910  Biso   1.000  N
  C761     1.0000 0.74520  0.92060  0.92600  Biso   1.000  C
  C762     1.0000 0.77710  0.95320  0.93590  Biso   1.000  C
  C763     1.0000 0.76620  0.99840  0.93970  Biso   1.000  C
  C764     1.0000 0.72110  0.00740  0.93260  Biso   1.000  C
  C765     1.0000 0.69000  0.97390  0.92330  Biso   1.000  C
  H837     1.0000 0.77200  0.85900  0.75000  Biso   1.000  H
  H838     1.0000 0.59400  0.82500  0.81400  Biso   1.000  H
  H839     1.0000 0.60200  0.84100  0.80800  Biso   1.000  H
  H840     1.0000 0.52300  0.79100  0.83800  Biso   1.000  H
  H841     1.0000 0.51200  0.83300  0.80400  Biso   1.000  H
  H842     1.0000 0.50600  0.83900  0.85800  Biso   1.000  H
  H843     1.0000 0.52900  0.80700  0.82200  Biso   1.000  H
  H844     1.0000 0.52300  0.85000  0.78800  Biso   1.000  H
  H845     1.0000 0.51000  0.85500  0.84100  Biso   1.000  H
  H846     1.0000 0.75800  0.87300  0.91700  Biso   1.000  H
  H847     1.0000 0.81500  0.92300  0.93800  Biso   1.000  H
  H848     1.0000 0.80000  0.00200  0.95000  Biso   1.000  H
  H849     1.0000 0.72300  0.02600  0.93800  Biso   1.000  H
  H850     1.0000 0.66700  0.97500  0.91800  Biso   1.000  H
  H851     1.0000 0.75500  0.88800  0.92400  Biso   1.000  H
  H852     1.0000 0.80900  0.94400  0.94000  Biso   1.000  H
  H853     1.0000 0.78900  0.02200  0.94700  Biso   1.000  H
  H854     1.0000 0.71000  0.03900  0.93400  Biso   1.000  H
  H855     1.0000 0.65800  0.98300  0.92000  Biso   1.000  H
  Ni316    1.0000 0.14920  0.63040  0.09940  Biso   1.000  Ni
  Ni317    1.0000 0.17340  0.62190  0.09040  Biso   1.000  Ni
  Ni318    1.0000 0.17310  0.60710  0.09410  Biso   1.000  Ni
  Ni319    1.0000 0.15340  0.61780  0.13010  Biso   1.000  Ni
  Ni320    1.0000 0.17440  0.64730  0.11300  Biso   1.000  Ni
  Ni321    1.0000 0.18000  0.62720  0.11230  Biso   1.000  Ni
  Ni322    1.0000 0.13840  0.59660  0.10610  Biso   1.000  Ni
  O271     1.0000 0.18980  0.66560  0.14450  Biso   1.000  O
  O272     1.0000 0.20300  0.65770  0.13870  Biso   1.000  O
  O273     1.0000 0.20250  0.61880  0.20420  Biso   1.000  O
  O274     1.0000 0.19100  0.62310  0.20970  Biso   1.000  O
  C766     1.0000 0.21310  0.65430  0.18110  Biso   1.000  C
  C767     1.0000 0.25340  0.68100  0.19530  Biso   1.000  C
  C768     1.0000 0.28030  0.66910  0.23260  Biso   1.000  C
  O275     1.0000 0.09120  0.67060  0.11780  Biso   1.000  O
  O276     1.0000 0.12490  0.59010  0.15830  Biso   1.000  O
  C769     1.0000 0.07540  0.65900  0.16320  Biso   1.000  C
  C770     1.0000 0.08120  0.64380  0.17050  Biso   1.000  C
  C771     1.0000 0.02440  0.67560  0.16620  Biso   1.000  C
  C772     1.0000 0.03100  0.65960  0.18100  Biso   1.000  C
  N91      1.0000 0.20580  0.58190  0.08450  Biso   1.000  N
  C773     1.0000 0.24950  0.59430  0.07830  Biso   1.000  C
  C774     1.0000 0.28350  0.56470  0.06600  Biso   1.000  C
  C775     1.0000 0.27590  0.51930  0.05910  Biso   1.000  C
  C776     1.0000 0.23170  0.50660  0.06600  Biso   1.000  C
  C777     1.0000 0.19830  0.53700  0.07800  Biso   1.000  C
  N92      1.0000 0.20070  0.57060  0.08090  Biso   1.000  N
  C778     1.0000 0.24520  0.57940  0.07400  Biso   1.000  C
  C779     1.0000 0.27710  0.54680  0.06410  Biso   1.000  C
  C780     1.0000 0.26620  0.50160  0.06030  Biso   1.000  C
  C781     1.0000 0.22110  0.49260  0.06740  Biso   1.000  C
  C782     1.0000 0.19000  0.52610  0.07670  Biso   1.000  C
  H856     1.0000 0.27200  0.64100  0.25000  Biso   1.000  H
  H857     1.0000 0.09400  0.67500  0.18600  Biso   1.000  H
  H858     1.0000 0.10200  0.65900  0.19200  Biso   1.000  H
  H859     1.0000 0.02300  0.70900  0.16200  Biso   1.000  H
  H860     1.0000 0.01200  0.66700  0.19600  Biso   1.000  H
  H861     1.0000 0.00600  0.66100  0.14200  Biso   1.000  H
  H862     1.0000 0.02900  0.69300  0.17800  Biso   1.000  H
  H863     1.0000 0.02300  0.65000  0.21200  Biso   1.000  H
  H864     1.0000 0.01000  0.64500  0.15900  Biso   1.000  H
  H865     1.0000 0.25800  0.62700  0.08300  Biso   1.000  H
  H866     1.0000 0.31500  0.57700  0.06200  Biso   1.000  H
  H867     1.0000 0.30000  0.49800  0.05000  Biso   1.000  H
  H868     1.0000 0.22300  0.47400  0.06200  Biso   1.000  H
  H869     1.0000 0.16700  0.52500  0.08200  Biso   1.000  H
  H870     1.0000 0.25500  0.61200  0.07600  Biso   1.000  H
  H871     1.0000 0.30900  0.55600  0.06000  Biso   1.000  H
  H872     1.0000 0.28900  0.47800  0.05300  Biso   1.000  H
  H873     1.0000 0.21000  0.46100  0.06600  Biso   1.000  H
  H874     1.0000 0.15800  0.51700  0.08000  Biso   1.000  H
  Ni323    1.0000 0.35080  0.36960  0.59940  Biso   1.000  Ni
  Ni324    1.0000 0.32660  0.37810  0.59040  Biso   1.000  Ni
  Ni325    1.0000 0.32690  0.39290  0.59410  Biso   1.000  Ni
  Ni326    1.0000 0.34660  0.38220  0.63010  Biso   1.000  Ni
  Ni327    1.0000 0.32560  0.35270  0.61300  Biso   1.000  Ni
  Ni328    1.0000 0.32000  0.37280  0.61230  Biso   1.000  Ni
  Ni329    1.0000 0.36160  0.40340  0.60610  Biso   1.000  Ni
  O277     1.0000 0.31020  0.33440  0.64450  Biso   1.000  O
  O278     1.0000 0.29700  0.34230  0.63870  Biso   1.000  O
  O279     1.0000 0.29750  0.38120  0.70420  Biso   1.000  O
  O280     1.0000 0.30900  0.37690  0.70970  Biso   1.000  O
  C783     1.0000 0.28690  0.34570  0.68110  Biso   1.000  C
  C784     1.0000 0.24660  0.31900  0.69530  Biso   1.000  C
  C785     1.0000 0.21970  0.33090  0.73260  Biso   1.000  C
  O281     1.0000 0.40880  0.32940  0.61780  Biso   1.000  O
  O282     1.0000 0.37510  0.40990  0.65830  Biso   1.000  O
  C786     1.0000 0.42460  0.34100  0.66320  Biso   1.000  C
  C787     1.0000 0.41880  0.35620  0.67050  Biso   1.000  C
  C788     1.0000 0.47560  0.32440  0.66620  Biso   1.000  C
  C789     1.0000 0.46900  0.34040  0.68100  Biso   1.000  C
  N93      1.0000 0.29420  0.41810  0.58450  Biso   1.000  N
  C790     1.0000 0.25050  0.40570  0.57830  Biso   1.000  C
  C791     1.0000 0.21650  0.43530  0.56600  Biso   1.000  C
  C792     1.0000 0.22410  0.48070  0.55910  Biso   1.000  C
  C793     1.0000 0.26830  0.49340  0.56600  Biso   1.000  C
  C794     1.0000 0.30170  0.46300  0.57800  Biso   1.000  C
  N94      1.0000 0.29930  0.42940  0.58090  Biso   1.000  N
  C795     1.0000 0.25480  0.42060  0.57400  Biso   1.000  C
  C796     1.0000 0.22290  0.45320  0.56410  Biso   1.000  C
  C797     1.0000 0.23380  0.49840  0.56030  Biso   1.000  C
  C798     1.0000 0.27890  0.50740  0.56740  Biso   1.000  C
  C799     1.0000 0.31000  0.47390  0.57670  Biso   1.000  C
  H875     1.0000 0.22800  0.35900  0.75000  Biso   1.000  H
  H876     1.0000 0.40600  0.32500  0.68600  Biso   1.000  H
  H877     1.0000 0.39800  0.34100  0.69200  Biso   1.000  H
  H878     1.0000 0.47700  0.29100  0.66200  Biso   1.000  H
  H879     1.0000 0.48800  0.33300  0.69600  Biso   1.000  H
  H880     1.0000 0.49400  0.33900  0.64200  Biso   1.000  H
  H881     1.0000 0.47100  0.30700  0.67800  Biso   1.000  H
  H882     1.0000 0.47700  0.35000  0.71200  Biso   1.000  H
  H883     1.0000 0.49000  0.35500  0.65900  Biso   1.000  H
  H884     1.0000 0.24200  0.37300  0.58300  Biso   1.000  H
  H885     1.0000 0.18500  0.42300  0.56200  Biso   1.000  H
  H886     1.0000 0.20000  0.50200  0.55000  Biso   1.000  H
  H887     1.0000 0.27700  0.52600  0.56200  Biso   1.000  H
  H888     1.0000 0.33300  0.47500  0.58200  Biso   1.000  H
  H889     1.0000 0.24500  0.38800  0.57600  Biso   1.000  H
  H890     1.0000 0.19100  0.44400  0.56000  Biso   1.000  H
  H891     1.0000 0.21100  0.52200  0.55300  Biso   1.000  H
  H892     1.0000 0.29000  0.53900  0.56600  Biso   1.000  H
  H893     1.0000 0.34200  0.48300  0.58000  Biso   1.000  H
  Ni330    1.0000 0.85080  0.13040  0.40060  Biso   1.000  Ni
  Ni331    1.0000 0.82660  0.12190  0.40960  Biso   1.000  Ni
  Ni332    1.0000 0.82690  0.10710  0.40590  Biso   1.000  Ni
  Ni333    1.0000 0.84660  0.11780  0.36990  Biso   1.000  Ni
  Ni334    1.0000 0.82560  0.14730  0.38700  Biso   1.000  Ni
  Ni335    1.0000 0.82000  0.12720  0.38770  Biso   1.000  Ni
  Ni336    1.0000 0.86160  0.09660  0.39390  Biso   1.000  Ni
  O283     1.0000 0.81020  0.16560  0.35550  Biso   1.000  O
  O284     1.0000 0.79700  0.15770  0.36130  Biso   1.000  O
  O285     1.0000 0.79750  0.11880  0.29580  Biso   1.000  O
  O286     1.0000 0.80900  0.12310  0.29030  Biso   1.000  O
  C800     1.0000 0.78690  0.15430  0.31890  Biso   1.000  C
  C801     1.0000 0.74660  0.18100  0.30470  Biso   1.000  C
  C802     1.0000 0.71970  0.16910  0.26740  Biso   1.000  C
  O287     1.0000 0.90880  0.17060  0.38220  Biso   1.000  O
  O288     1.0000 0.87510  0.09010  0.34170  Biso   1.000  O
  C803     1.0000 0.92460  0.15900  0.33680  Biso   1.000  C
  C804     1.0000 0.91880  0.14380  0.32950  Biso   1.000  C
  C805     1.0000 0.97560  0.17560  0.33380  Biso   1.000  C
  C806     1.0000 0.96900  0.15960  0.31900  Biso   1.000  C
  N95      1.0000 0.79420  0.08190  0.41550  Biso   1.000  N
  C807     1.0000 0.75050  0.09430  0.42170  Biso   1.000  C
  C808     1.0000 0.71650  0.06470  0.43400  Biso   1.000  C
  C809     1.0000 0.72410  0.01930  0.44090  Biso   1.000  C
  C810     1.0000 0.76830  0.00660  0.43400  Biso   1.000  C
  C811     1.0000 0.80170  0.03700  0.42200  Biso   1.000  C
  N96      1.0000 0.79930  0.07060  0.41910  Biso   1.000  N
  C812     1.0000 0.75480  0.07940  0.42600  Biso   1.000  C
  C813     1.0000 0.72290  0.04680  0.43590  Biso   1.000  C
  C814     1.0000 0.73380  0.00160  0.43970  Biso   1.000  C
  C815     1.0000 0.77890  0.99260  0.43260  Biso   1.000  C
  C816     1.0000 0.81000  0.02610  0.42330  Biso   1.000  C
  H894     1.0000 0.72800  0.14100  0.25000  Biso   1.000  H
  H895     1.0000 0.90600  0.17500  0.31400  Biso   1.000  H
  H896     1.0000 0.89800  0.15900  0.30800  Biso   1.000  H
  H897     1.0000 0.97700  0.20900  0.33800  Biso   1.000  H
  H898     1.0000 0.98800  0.16700  0.30400  Biso   1.000  H
  H899     1.0000 0.99400  0.16100  0.35800  Biso   1.000  H
  H900     1.0000 0.97100  0.19300  0.32200  Biso   1.000  H
  H901     1.0000 0.97700  0.15000  0.28800  Biso   1.000  H
  H902     1.0000 0.99000  0.14500  0.34100  Biso   1.000  H
  H903     1.0000 0.74200  0.12700  0.41700  Biso   1.000  H
  H904     1.0000 0.68500  0.07700  0.43800  Biso   1.000  H
  H905     1.0000 0.70000  0.99800  0.45000  Biso   1.000  H
  H906     1.0000 0.77700  0.97400  0.43800  Biso   1.000  H
  H907     1.0000 0.83300  0.02500  0.41800  Biso   1.000  H
  H908     1.0000 0.74500  0.11200  0.42400  Biso   1.000  H
  H909     1.0000 0.69100  0.05600  0.44000  Biso   1.000  H
  H910     1.0000 0.71100  0.97800  0.44700  Biso   1.000  H
  H911     1.0000 0.79000  0.96100  0.43400  Biso   1.000  H
  H912     1.0000 0.84200  0.01700  0.42000  Biso   1.000  H
