data_image0
_cell_length_a       28.471
_cell_length_b       28.471
_cell_length_c       28.471
_cell_angle_alpha    90
_cell_angle_beta     90
_cell_angle_gamma    90

_symmetry_space_group_name_H-M    "P 1"
_symmetry_int_tables_number       1

loop_
  _symmetry_equiv_pos_as_xyz
  'x, y, z'

loop_
  _atom_site_label
  _atom_site_occupancy
  _atom_site_fract_x
  _atom_site_fract_y
  _atom_site_fract_z
  _atom_site_thermal_displace_type
  _atom_site_B_iso_or_equiv
  _atom_site_type_symbol
  Ni1      1.0000 0.34730  0.61890  0.89900  Biso   1.000  Ni
  O1       1.0000 0.39070  0.58840  0.94530  Biso   1.000  O
  O2       1.0000 0.45700  0.62960  0.94730  Biso   1.000  O
  C1       1.0000 0.42980  0.59800  0.96270  Biso   1.000  C
  C2       1.0000 0.44420  0.56940  0.00350  Biso   1.000  C
  C3       1.0000 0.48370  0.58160  0.03010  Biso   1.000  C
  O3       1.0000 0.36480  0.57730  0.84180  Biso   1.000  O
  O4       1.0000 0.40380  0.65860  0.87400  Biso   1.000  O
  C4       1.0000 0.41020  0.58790  0.82560  Biso   1.000  C
  C5       1.0000 0.42060  0.64170  0.83030  Biso   1.000  C
  C6       1.0000 0.42070  0.56520  0.78270  Biso   1.000  C
  C7       1.0000 0.46680  0.65760  0.82130  Biso   1.000  C
  N1       1.0000 0.33310  0.66520  0.95440  Biso   1.000  N
  C8       1.0000 0.32960  0.65180  0.99830  Biso   1.000  C
  C9       1.0000 0.31770  0.68570  0.03430  Biso   1.000  C
  C10      1.0000 0.30990  0.73200  0.02570  Biso   1.000  C
  C11      1.0000 0.31420  0.74440  0.98570  Biso   1.000  C
  C12      1.0000 0.32510  0.71800  0.94900  Biso   1.000  C
  N2       1.0000 0.33180  0.68300  0.95200  Biso   1.000  N
  C13      1.0000 0.32390  0.66920  0.99660  Biso   1.000  C
  C14      1.0000 0.31300  0.70730  0.02940  Biso   1.000  C
  C15      1.0000 0.30820  0.74950  0.01710  Biso   1.000  C
  C16      1.0000 0.31770  0.75750  0.96900  Biso   1.000  C
  C17      1.0000 0.32990  0.72010  0.93540  Biso   1.000  C
  H1       1.0000 0.49800  0.61000  0.02000  Biso   1.000  H
  H2       1.0000 0.43100  0.57300  0.84800  Biso   1.000  H
  H3       1.0000 0.42200  0.60300  0.79600  Biso   1.000  H
  H4       1.0000 0.44500  0.59200  0.84400  Biso   1.000  H
  H5       1.0000 0.41200  0.53300  0.78500  Biso   1.000  H
  H6       1.0000 0.45400  0.56800  0.77600  Biso   1.000  H
  H7       1.0000 0.40300  0.58000  0.75800  Biso   1.000  H
  H8       1.0000 0.40100  0.65700  0.80700  Biso   1.000  H
  H9       1.0000 0.41300  0.57900  0.79300  Biso   1.000  H
  H10      1.0000 0.43300  0.57000  0.84300  Biso   1.000  H
  H11      1.0000 0.46800  0.69100  0.82600  Biso   1.000  H
  H12      1.0000 0.47500  0.65000  0.79000  Biso   1.000  H
  H13      1.0000 0.48800  0.64300  0.84300  Biso   1.000  H
  H14      1.0000 0.33500  0.62000  0.00700  Biso   1.000  H
  H15      1.0000 0.31500  0.67500  0.06600  Biso   1.000  H
  H16      1.0000 0.30100  0.75400  0.05000  Biso   1.000  H
  H17      1.0000 0.30900  0.77700  0.98000  Biso   1.000  H
  H18      1.0000 0.32800  0.73200  0.91900  Biso   1.000  H
  H19      1.0000 0.32500  0.63700  0.00600  Biso   1.000  H
  H20      1.0000 0.30900  0.70000  0.06200  Biso   1.000  H
  H21      1.0000 0.29900  0.77400  0.03800  Biso   1.000  H
  H22      1.0000 0.31600  0.78900  0.95800  Biso   1.000  H
  H23      1.0000 0.33600  0.72600  0.90300  Biso   1.000  H
  Ni2      1.0000 0.15270  0.38110  0.39900  Biso   1.000  Ni
  O5       1.0000 0.10930  0.41160  0.44530  Biso   1.000  O
  O6       1.0000 0.04300  0.37040  0.44730  Biso   1.000  O
  C18      1.0000 0.07020  0.40200  0.46270  Biso   1.000  C
  C19      1.0000 0.05580  0.43060  0.50350  Biso   1.000  C
  C20      1.0000 0.01630  0.41840  0.53010  Biso   1.000  C
  O7       1.0000 0.13520  0.42270  0.34180  Biso   1.000  O
  O8       1.0000 0.09620  0.34140  0.37400  Biso   1.000  O
  C21      1.0000 0.08980  0.41210  0.32560  Biso   1.000  C
  C22      1.0000 0.07940  0.35830  0.33030  Biso   1.000  C
  C23      1.0000 0.07930  0.43480  0.28270  Biso   1.000  C
  C24      1.0000 0.03320  0.34240  0.32130  Biso   1.000  C
  N3       1.0000 0.16690  0.33480  0.45440  Biso   1.000  N
  C25      1.0000 0.17040  0.34820  0.49830  Biso   1.000  C
  C26      1.0000 0.18230  0.31430  0.53430  Biso   1.000  C
  C27      1.0000 0.19010  0.26800  0.52570  Biso   1.000  C
  C28      1.0000 0.18580  0.25560  0.48570  Biso   1.000  C
  C29      1.0000 0.17490  0.28200  0.44900  Biso   1.000  C
  N4       1.0000 0.16820  0.31700  0.45200  Biso   1.000  N
  C30      1.0000 0.17610  0.33080  0.49660  Biso   1.000  C
  C31      1.0000 0.18700  0.29270  0.52940  Biso   1.000  C
  C32      1.0000 0.19180  0.25050  0.51710  Biso   1.000  C
  C33      1.0000 0.18230  0.24250  0.46900  Biso   1.000  C
  C34      1.0000 0.17010  0.27990  0.43540  Biso   1.000  C
  H24      1.0000 0.00200  0.39000  0.52000  Biso   1.000  H
  H25      1.0000 0.06900  0.42700  0.34800  Biso   1.000  H
  H26      1.0000 0.07800  0.39700  0.29600  Biso   1.000  H
  H27      1.0000 0.05500  0.40800  0.34400  Biso   1.000  H
  H28      1.0000 0.08800  0.46700  0.28500  Biso   1.000  H
  H29      1.0000 0.04600  0.43200  0.27600  Biso   1.000  H
  H30      1.0000 0.09700  0.42000  0.25800  Biso   1.000  H
  H31      1.0000 0.09900  0.34300  0.30700  Biso   1.000  H
  H32      1.0000 0.08700  0.42100  0.29300  Biso   1.000  H
  H33      1.0000 0.06700  0.43000  0.34300  Biso   1.000  H
  H34      1.0000 0.03200  0.30900  0.32600  Biso   1.000  H
  H35      1.0000 0.02500  0.35000  0.29000  Biso   1.000  H
  H36      1.0000 0.01200  0.35700  0.34300  Biso   1.000  H
  H37      1.0000 0.16500  0.38000  0.50700  Biso   1.000  H
  H38      1.0000 0.18500  0.32500  0.56600  Biso   1.000  H
  H39      1.0000 0.19900  0.24600  0.55000  Biso   1.000  H
  H40      1.0000 0.19100  0.22300  0.48000  Biso   1.000  H
  H41      1.0000 0.17200  0.26800  0.41900  Biso   1.000  H
  H42      1.0000 0.17500  0.36300  0.50600  Biso   1.000  H
  H43      1.0000 0.19100  0.30000  0.56200  Biso   1.000  H
  H44      1.0000 0.20100  0.22600  0.53800  Biso   1.000  H
  H45      1.0000 0.18400  0.21100  0.45800  Biso   1.000  H
  H46      1.0000 0.16400  0.27400  0.40300  Biso   1.000  H
  Ni3      1.0000 0.65270  0.11890  0.60100  Biso   1.000  Ni
  O9       1.0000 0.60930  0.08840  0.55470  Biso   1.000  O
  O10      1.0000 0.54300  0.12960  0.55270  Biso   1.000  O
  C35      1.0000 0.57020  0.09800  0.53730  Biso   1.000  C
  C36      1.0000 0.55580  0.06940  0.49650  Biso   1.000  C
  C37      1.0000 0.51630  0.08160  0.46990  Biso   1.000  C
  O11      1.0000 0.63520  0.07730  0.65820  Biso   1.000  O
  O12      1.0000 0.59620  0.15860  0.62600  Biso   1.000  O
  C38      1.0000 0.58980  0.08790  0.67440  Biso   1.000  C
  C39      1.0000 0.57940  0.14170  0.66970  Biso   1.000  C
  C40      1.0000 0.57930  0.06520  0.71730  Biso   1.000  C
  C41      1.0000 0.53320  0.15760  0.67870  Biso   1.000  C
  N5       1.0000 0.66690  0.16520  0.54560  Biso   1.000  N
  C42      1.0000 0.67040  0.15180  0.50170  Biso   1.000  C
  C43      1.0000 0.68230  0.18570  0.46570  Biso   1.000  C
  C44      1.0000 0.69010  0.23200  0.47430  Biso   1.000  C
  C45      1.0000 0.68580  0.24440  0.51430  Biso   1.000  C
  C46      1.0000 0.67490  0.21800  0.55100  Biso   1.000  C
  N6       1.0000 0.66820  0.18300  0.54800  Biso   1.000  N
  C47      1.0000 0.67610  0.16920  0.50340  Biso   1.000  C
  C48      1.0000 0.68700  0.20730  0.47060  Biso   1.000  C
  C49      1.0000 0.69180  0.24950  0.48290  Biso   1.000  C
  C50      1.0000 0.68230  0.25750  0.53100  Biso   1.000  C
  C51      1.0000 0.67010  0.22010  0.56460  Biso   1.000  C
  H47      1.0000 0.50200  0.11000  0.48000  Biso   1.000  H
  H48      1.0000 0.56900  0.07300  0.65200  Biso   1.000  H
  H49      1.0000 0.57800  0.10300  0.70400  Biso   1.000  H
  H50      1.0000 0.55500  0.09200  0.65600  Biso   1.000  H
  H51      1.0000 0.58800  0.03300  0.71500  Biso   1.000  H
  H52      1.0000 0.54600  0.06800  0.72400  Biso   1.000  H
  H53      1.0000 0.59700  0.08000  0.74200  Biso   1.000  H
  H54      1.0000 0.59900  0.15700  0.69300  Biso   1.000  H
  H55      1.0000 0.58700  0.07900  0.70700  Biso   1.000  H
  H56      1.0000 0.56700  0.07000  0.65700  Biso   1.000  H
  H57      1.0000 0.53200  0.19100  0.67400  Biso   1.000  H
  H58      1.0000 0.52500  0.15000  0.71000  Biso   1.000  H
  H59      1.0000 0.51200  0.14300  0.65700  Biso   1.000  H
  H60      1.0000 0.66500  0.12000  0.49300  Biso   1.000  H
  H61      1.0000 0.68500  0.17500  0.43400  Biso   1.000  H
  H62      1.0000 0.69900  0.25400  0.45000  Biso   1.000  H
  H63      1.0000 0.69100  0.27700  0.52000  Biso   1.000  H
  H64      1.0000 0.67200  0.23200  0.58100  Biso   1.000  H
  H65      1.0000 0.67500  0.13700  0.49400  Biso   1.000  H
  H66      1.0000 0.69100  0.20000  0.43800  Biso   1.000  H
  H67      1.0000 0.70100  0.27400  0.46200  Biso   1.000  H
  H68      1.0000 0.68400  0.28900  0.54200  Biso   1.000  H
  H69      1.0000 0.66400  0.22600  0.59700  Biso   1.000  H
  Ni4      1.0000 0.84730  0.88110  0.10100  Biso   1.000  Ni
  O13      1.0000 0.89070  0.91160  0.05470  Biso   1.000  O
  O14      1.0000 0.95700  0.87040  0.05270  Biso   1.000  O
  C52      1.0000 0.92980  0.90200  0.03730  Biso   1.000  C
  C53      1.0000 0.94420  0.93060  0.99650  Biso   1.000  C
  C54      1.0000 0.98370  0.91840  0.96990  Biso   1.000  C
  O15      1.0000 0.86480  0.92270  0.15820  Biso   1.000  O
  O16      1.0000 0.90380  0.84140  0.12600  Biso   1.000  O
  C55      1.0000 0.91020  0.91210  0.17440  Biso   1.000  C
  C56      1.0000 0.92060  0.85830  0.16970  Biso   1.000  C
  C57      1.0000 0.92070  0.93480  0.21730  Biso   1.000  C
  C58      1.0000 0.96680  0.84240  0.17870  Biso   1.000  C
  N7       1.0000 0.83310  0.83480  0.04560  Biso   1.000  N
  C59      1.0000 0.82960  0.84820  0.00170  Biso   1.000  C
  C60      1.0000 0.81770  0.81430  0.96570  Biso   1.000  C
  C61      1.0000 0.80990  0.76800  0.97430  Biso   1.000  C
  C62      1.0000 0.81420  0.75560  0.01430  Biso   1.000  C
  C63      1.0000 0.82510  0.78200  0.05100  Biso   1.000  C
  N8       1.0000 0.83180  0.81700  0.04800  Biso   1.000  N
  C64      1.0000 0.82390  0.83080  0.00340  Biso   1.000  C
  C65      1.0000 0.81300  0.79270  0.97060  Biso   1.000  C
  C66      1.0000 0.80820  0.75050  0.98290  Biso   1.000  C
  C67      1.0000 0.81770  0.74250  0.03100  Biso   1.000  C
  C68      1.0000 0.82990  0.77990  0.06460  Biso   1.000  C
  H70      1.0000 0.99800  0.89000  0.98000  Biso   1.000  H
  H71      1.0000 0.93100  0.92700  0.15200  Biso   1.000  H
  H72      1.0000 0.92200  0.89700  0.20400  Biso   1.000  H
  H73      1.0000 0.94500  0.90800  0.15600  Biso   1.000  H
  H74      1.0000 0.91200  0.96700  0.21500  Biso   1.000  H
  H75      1.0000 0.95400  0.93200  0.22400  Biso   1.000  H
  H76      1.0000 0.90300  0.92000  0.24200  Biso   1.000  H
  H77      1.0000 0.90100  0.84300  0.19300  Biso   1.000  H
  H78      1.0000 0.91300  0.92100  0.20700  Biso   1.000  H
  H79      1.0000 0.93300  0.93000  0.15700  Biso   1.000  H
  H80      1.0000 0.96800  0.80900  0.17400  Biso   1.000  H
  H81      1.0000 0.97500  0.85000  0.21000  Biso   1.000  H
  H82      1.0000 0.98800  0.85700  0.15700  Biso   1.000  H
  H83      1.0000 0.83500  0.88000  0.99300  Biso   1.000  H
  H84      1.0000 0.81500  0.82500  0.93400  Biso   1.000  H
  H85      1.0000 0.80100  0.74600  0.95000  Biso   1.000  H
  H86      1.0000 0.80900  0.72300  0.02000  Biso   1.000  H
  H87      1.0000 0.82800  0.76800  0.08100  Biso   1.000  H
  H88      1.0000 0.82500  0.86300  0.99400  Biso   1.000  H
  H89      1.0000 0.80900  0.80000  0.93800  Biso   1.000  H
  H90      1.0000 0.79900  0.72600  0.96200  Biso   1.000  H
  H91      1.0000 0.81600  0.71100  0.04200  Biso   1.000  H
  H92      1.0000 0.83600  0.77400  0.09700  Biso   1.000  H
  Ni5      1.0000 0.89900  0.34730  0.61890  Biso   1.000  Ni
  O17      1.0000 0.94530  0.39070  0.58840  Biso   1.000  O
  O18      1.0000 0.94730  0.45700  0.62960  Biso   1.000  O
  C69      1.0000 0.96270  0.42980  0.59800  Biso   1.000  C
  C70      1.0000 0.00350  0.44420  0.56940  Biso   1.000  C
  C71      1.0000 0.03010  0.48370  0.58160  Biso   1.000  C
  O19      1.0000 0.84180  0.36480  0.57730  Biso   1.000  O
  O20      1.0000 0.87400  0.40380  0.65860  Biso   1.000  O
  C72      1.0000 0.82560  0.41020  0.58790  Biso   1.000  C
  C73      1.0000 0.83030  0.42060  0.64170  Biso   1.000  C
  C74      1.0000 0.78270  0.42070  0.56520  Biso   1.000  C
  C75      1.0000 0.82130  0.46680  0.65760  Biso   1.000  C
  N9       1.0000 0.95440  0.33310  0.66520  Biso   1.000  N
  C76      1.0000 0.99830  0.32960  0.65180  Biso   1.000  C
  C77      1.0000 0.03430  0.31770  0.68570  Biso   1.000  C
  C78      1.0000 0.02570  0.30990  0.73200  Biso   1.000  C
  C79      1.0000 0.98570  0.31420  0.74440  Biso   1.000  C
  C80      1.0000 0.94900  0.32510  0.71800  Biso   1.000  C
  N10      1.0000 0.95200  0.33180  0.68300  Biso   1.000  N
  C81      1.0000 0.99660  0.32390  0.66920  Biso   1.000  C
  C82      1.0000 0.02940  0.31300  0.70730  Biso   1.000  C
  C83      1.0000 0.01710  0.30820  0.74950  Biso   1.000  C
  C84      1.0000 0.96900  0.31770  0.75750  Biso   1.000  C
  C85      1.0000 0.93540  0.32990  0.72010  Biso   1.000  C
  H93      1.0000 0.02000  0.49800  0.61000  Biso   1.000  H
  H94      1.0000 0.84800  0.43100  0.57300  Biso   1.000  H
  H95      1.0000 0.79600  0.42200  0.60300  Biso   1.000  H
  H96      1.0000 0.84400  0.44500  0.59200  Biso   1.000  H
  H97      1.0000 0.78500  0.41200  0.53300  Biso   1.000  H
  H98      1.0000 0.77600  0.45400  0.56800  Biso   1.000  H
  H99      1.0000 0.75800  0.40300  0.58000  Biso   1.000  H
  H100     1.0000 0.80700  0.40100  0.65700  Biso   1.000  H
  H101     1.0000 0.79300  0.41300  0.57900  Biso   1.000  H
  H102     1.0000 0.84300  0.43300  0.57000  Biso   1.000  H
  H103     1.0000 0.82600  0.46800  0.69100  Biso   1.000  H
  H104     1.0000 0.79000  0.47500  0.65000  Biso   1.000  H
  H105     1.0000 0.84300  0.48800  0.64300  Biso   1.000  H
  H106     1.0000 0.00700  0.33500  0.62000  Biso   1.000  H
  H107     1.0000 0.06600  0.31500  0.67500  Biso   1.000  H
  H108     1.0000 0.05000  0.30100  0.75400  Biso   1.000  H
  H109     1.0000 0.98000  0.30900  0.77700  Biso   1.000  H
  H110     1.0000 0.91900  0.32800  0.73200  Biso   1.000  H
  H111     1.0000 0.00600  0.32500  0.63700  Biso   1.000  H
  H112     1.0000 0.06200  0.30900  0.70000  Biso   1.000  H
  H113     1.0000 0.03800  0.29900  0.77400  Biso   1.000  H
  H114     1.0000 0.95800  0.31600  0.78900  Biso   1.000  H
  H115     1.0000 0.90300  0.33600  0.72600  Biso   1.000  H
  Ni6      1.0000 0.39900  0.15270  0.38110  Biso   1.000  Ni
  O21      1.0000 0.44530  0.10930  0.41160  Biso   1.000  O
  O22      1.0000 0.44730  0.04300  0.37040  Biso   1.000  O
  C86      1.0000 0.46270  0.07020  0.40200  Biso   1.000  C
  C87      1.0000 0.50350  0.05580  0.43060  Biso   1.000  C
  C88      1.0000 0.53010  0.01630  0.41840  Biso   1.000  C
  O23      1.0000 0.34180  0.13520  0.42270  Biso   1.000  O
  O24      1.0000 0.37400  0.09620  0.34140  Biso   1.000  O
  C89      1.0000 0.32560  0.08980  0.41210  Biso   1.000  C
  C90      1.0000 0.33030  0.07940  0.35830  Biso   1.000  C
  C91      1.0000 0.28270  0.07930  0.43480  Biso   1.000  C
  C92      1.0000 0.32130  0.03320  0.34240  Biso   1.000  C
  N11      1.0000 0.45440  0.16690  0.33480  Biso   1.000  N
  C93      1.0000 0.49830  0.17040  0.34820  Biso   1.000  C
  C94      1.0000 0.53430  0.18230  0.31430  Biso   1.000  C
  C95      1.0000 0.52570  0.19010  0.26800  Biso   1.000  C
  C96      1.0000 0.48570  0.18580  0.25560  Biso   1.000  C
  C97      1.0000 0.44900  0.17490  0.28200  Biso   1.000  C
  N12      1.0000 0.45200  0.16820  0.31700  Biso   1.000  N
  C98      1.0000 0.49660  0.17610  0.33080  Biso   1.000  C
  C99      1.0000 0.52940  0.18700  0.29270  Biso   1.000  C
  C100     1.0000 0.51710  0.19180  0.25050  Biso   1.000  C
  C101     1.0000 0.46900  0.18230  0.24250  Biso   1.000  C
  C102     1.0000 0.43540  0.17010  0.27990  Biso   1.000  C
  H116     1.0000 0.52000  0.00200  0.39000  Biso   1.000  H
  H117     1.0000 0.34800  0.06900  0.42700  Biso   1.000  H
  H118     1.0000 0.29600  0.07800  0.39700  Biso   1.000  H
  H119     1.0000 0.34400  0.05500  0.40800  Biso   1.000  H
  H120     1.0000 0.28500  0.08800  0.46700  Biso   1.000  H
  H121     1.0000 0.27600  0.04600  0.43200  Biso   1.000  H
  H122     1.0000 0.25800  0.09700  0.42000  Biso   1.000  H
  H123     1.0000 0.30700  0.09900  0.34300  Biso   1.000  H
  H124     1.0000 0.29300  0.08700  0.42100  Biso   1.000  H
  H125     1.0000 0.34300  0.06700  0.43000  Biso   1.000  H
  H126     1.0000 0.32600  0.03200  0.30900  Biso   1.000  H
  H127     1.0000 0.29000  0.02500  0.35000  Biso   1.000  H
  H128     1.0000 0.34300  0.01200  0.35700  Biso   1.000  H
  H129     1.0000 0.50700  0.16500  0.38000  Biso   1.000  H
  H130     1.0000 0.56600  0.18500  0.32500  Biso   1.000  H
  H131     1.0000 0.55000  0.19900  0.24600  Biso   1.000  H
  H132     1.0000 0.48000  0.19100  0.22300  Biso   1.000  H
  H133     1.0000 0.41900  0.17200  0.26800  Biso   1.000  H
  H134     1.0000 0.50600  0.17500  0.36300  Biso   1.000  H
  H135     1.0000 0.56200  0.19100  0.30000  Biso   1.000  H
  H136     1.0000 0.53800  0.20100  0.22600  Biso   1.000  H
  H137     1.0000 0.45800  0.18400  0.21100  Biso   1.000  H
  H138     1.0000 0.40300  0.16400  0.27400  Biso   1.000  H
  Ni7      1.0000 0.60100  0.65270  0.11890  Biso   1.000  Ni
  O25      1.0000 0.55470  0.60930  0.08840  Biso   1.000  O
  O26      1.0000 0.55270  0.54300  0.12960  Biso   1.000  O
  C103     1.0000 0.53730  0.57020  0.09800  Biso   1.000  C
  C104     1.0000 0.49650  0.55580  0.06940  Biso   1.000  C
  C105     1.0000 0.46990  0.51630  0.08160  Biso   1.000  C
  O27      1.0000 0.65820  0.63520  0.07730  Biso   1.000  O
  O28      1.0000 0.62600  0.59620  0.15860  Biso   1.000  O
  C106     1.0000 0.67440  0.58980  0.08790  Biso   1.000  C
  C107     1.0000 0.66970  0.57940  0.14170  Biso   1.000  C
  C108     1.0000 0.71730  0.57930  0.06520  Biso   1.000  C
  C109     1.0000 0.67870  0.53320  0.15760  Biso   1.000  C
  N13      1.0000 0.54560  0.66690  0.16520  Biso   1.000  N
  C110     1.0000 0.50170  0.67040  0.15180  Biso   1.000  C
  C111     1.0000 0.46570  0.68230  0.18570  Biso   1.000  C
  C112     1.0000 0.47430  0.69010  0.23200  Biso   1.000  C
  C113     1.0000 0.51430  0.68580  0.24440  Biso   1.000  C
  C114     1.0000 0.55100  0.67490  0.21800  Biso   1.000  C
  N14      1.0000 0.54800  0.66820  0.18300  Biso   1.000  N
  C115     1.0000 0.50340  0.67610  0.16920  Biso   1.000  C
  C116     1.0000 0.47060  0.68700  0.20730  Biso   1.000  C
  C117     1.0000 0.48290  0.69180  0.24950  Biso   1.000  C
  C118     1.0000 0.53100  0.68230  0.25750  Biso   1.000  C
  C119     1.0000 0.56460  0.67010  0.22010  Biso   1.000  C
  H139     1.0000 0.48000  0.50200  0.11000  Biso   1.000  H
  H140     1.0000 0.65200  0.56900  0.07300  Biso   1.000  H
  H141     1.0000 0.70400  0.57800  0.10300  Biso   1.000  H
  H142     1.0000 0.65600  0.55500  0.09200  Biso   1.000  H
  H143     1.0000 0.71500  0.58800  0.03300  Biso   1.000  H
  H144     1.0000 0.72400  0.54600  0.06800  Biso   1.000  H
  H145     1.0000 0.74200  0.59700  0.08000  Biso   1.000  H
  H146     1.0000 0.69300  0.59900  0.15700  Biso   1.000  H
  H147     1.0000 0.70700  0.58700  0.07900  Biso   1.000  H
  H148     1.0000 0.65700  0.56700  0.07000  Biso   1.000  H
  H149     1.0000 0.67400  0.53200  0.19100  Biso   1.000  H
  H150     1.0000 0.71000  0.52500  0.15000  Biso   1.000  H
  H151     1.0000 0.65700  0.51200  0.14300  Biso   1.000  H
  H152     1.0000 0.49300  0.66500  0.12000  Biso   1.000  H
  H153     1.0000 0.43400  0.68500  0.17500  Biso   1.000  H
  H154     1.0000 0.45000  0.69900  0.25400  Biso   1.000  H
  H155     1.0000 0.52000  0.69100  0.27700  Biso   1.000  H
  H156     1.0000 0.58100  0.67200  0.23200  Biso   1.000  H
  H157     1.0000 0.49400  0.67500  0.13700  Biso   1.000  H
  H158     1.0000 0.43800  0.69100  0.20000  Biso   1.000  H
  H159     1.0000 0.46200  0.70100  0.27400  Biso   1.000  H
  H160     1.0000 0.54200  0.68400  0.28900  Biso   1.000  H
  H161     1.0000 0.59700  0.66400  0.22600  Biso   1.000  H
  Ni8      1.0000 0.10100  0.84730  0.88110  Biso   1.000  Ni
  O29      1.0000 0.05470  0.89070  0.91160  Biso   1.000  O
  O30      1.0000 0.05270  0.95700  0.87040  Biso   1.000  O
  C120     1.0000 0.03730  0.92980  0.90200  Biso   1.000  C
  C121     1.0000 0.99650  0.94420  0.93060  Biso   1.000  C
  C122     1.0000 0.96990  0.98370  0.91840  Biso   1.000  C
  O31      1.0000 0.15820  0.86480  0.92270  Biso   1.000  O
  O32      1.0000 0.12600  0.90380  0.84140  Biso   1.000  O
  C123     1.0000 0.17440  0.91020  0.91210  Biso   1.000  C
  C124     1.0000 0.16970  0.92060  0.85830  Biso   1.000  C
  C125     1.0000 0.21730  0.92070  0.93480  Biso   1.000  C
  C126     1.0000 0.17870  0.96680  0.84240  Biso   1.000  C
  N15      1.0000 0.04560  0.83310  0.83480  Biso   1.000  N
  C127     1.0000 0.00170  0.82960  0.84820  Biso   1.000  C
  C128     1.0000 0.96570  0.81770  0.81430  Biso   1.000  C
  C129     1.0000 0.97430  0.80990  0.76800  Biso   1.000  C
  C130     1.0000 0.01430  0.81420  0.75560  Biso   1.000  C
  C131     1.0000 0.05100  0.82510  0.78200  Biso   1.000  C
  N16      1.0000 0.04800  0.83180  0.81700  Biso   1.000  N
  C132     1.0000 0.00340  0.82390  0.83080  Biso   1.000  C
  C133     1.0000 0.97060  0.81300  0.79270  Biso   1.000  C
  C134     1.0000 0.98290  0.80820  0.75050  Biso   1.000  C
  C135     1.0000 0.03100  0.81770  0.74250  Biso   1.000  C
  C136     1.0000 0.06460  0.82990  0.77990  Biso   1.000  C
  H162     1.0000 0.98000  0.99800  0.89000  Biso   1.000  H
  H163     1.0000 0.15200  0.93100  0.92700  Biso   1.000  H
  H164     1.0000 0.20400  0.92200  0.89700  Biso   1.000  H
  H165     1.0000 0.15600  0.94500  0.90800  Biso   1.000  H
  H166     1.0000 0.21500  0.91200  0.96700  Biso   1.000  H
  H167     1.0000 0.22400  0.95400  0.93200  Biso   1.000  H
  H168     1.0000 0.24200  0.90300  0.92000  Biso   1.000  H
  H169     1.0000 0.19300  0.90100  0.84300  Biso   1.000  H
  H170     1.0000 0.20700  0.91300  0.92100  Biso   1.000  H
  H171     1.0000 0.15700  0.93300  0.93000  Biso   1.000  H
  H172     1.0000 0.17400  0.96800  0.80900  Biso   1.000  H
  H173     1.0000 0.21000  0.97500  0.85000  Biso   1.000  H
  H174     1.0000 0.15700  0.98800  0.85700  Biso   1.000  H
  H175     1.0000 0.99300  0.83500  0.88000  Biso   1.000  H
  H176     1.0000 0.93400  0.81500  0.82500  Biso   1.000  H
  H177     1.0000 0.95000  0.80100  0.74600  Biso   1.000  H
  H178     1.0000 0.02000  0.80900  0.72300  Biso   1.000  H
  H179     1.0000 0.08100  0.82800  0.76800  Biso   1.000  H
  H180     1.0000 0.99400  0.82500  0.86300  Biso   1.000  H
  H181     1.0000 0.93800  0.80900  0.80000  Biso   1.000  H
  H182     1.0000 0.96200  0.79900  0.72600  Biso   1.000  H
  H183     1.0000 0.04200  0.81600  0.71100  Biso   1.000  H
  H184     1.0000 0.09700  0.83600  0.77400  Biso   1.000  H
  Ni9      1.0000 0.61890  0.89900  0.34730  Biso   1.000  Ni
  O33      1.0000 0.58840  0.94530  0.39070  Biso   1.000  O
  O34      1.0000 0.62960  0.94730  0.45700  Biso   1.000  O
  C137     1.0000 0.59800  0.96270  0.42980  Biso   1.000  C
  C138     1.0000 0.56940  0.00350  0.44420  Biso   1.000  C
  C139     1.0000 0.58160  0.03010  0.48370  Biso   1.000  C
  O35      1.0000 0.57730  0.84180  0.36480  Biso   1.000  O
  O36      1.0000 0.65860  0.87400  0.40380  Biso   1.000  O
  C140     1.0000 0.58790  0.82560  0.41020  Biso   1.000  C
  C141     1.0000 0.64170  0.83030  0.42060  Biso   1.000  C
  C142     1.0000 0.56520  0.78270  0.42070  Biso   1.000  C
  C143     1.0000 0.65760  0.82130  0.46680  Biso   1.000  C
  N17      1.0000 0.66520  0.95440  0.33310  Biso   1.000  N
  C144     1.0000 0.65180  0.99830  0.32960  Biso   1.000  C
  C145     1.0000 0.68570  0.03430  0.31770  Biso   1.000  C
  C146     1.0000 0.73200  0.02570  0.30990  Biso   1.000  C
  C147     1.0000 0.74440  0.98570  0.31420  Biso   1.000  C
  C148     1.0000 0.71800  0.94900  0.32510  Biso   1.000  C
  N18      1.0000 0.68300  0.95200  0.33180  Biso   1.000  N
  C149     1.0000 0.66920  0.99660  0.32390  Biso   1.000  C
  C150     1.0000 0.70730  0.02940  0.31300  Biso   1.000  C
  C151     1.0000 0.74950  0.01710  0.30820  Biso   1.000  C
  C152     1.0000 0.75750  0.96900  0.31770  Biso   1.000  C
  C153     1.0000 0.72010  0.93540  0.32990  Biso   1.000  C
  H185     1.0000 0.61000  0.02000  0.49800  Biso   1.000  H
  H186     1.0000 0.57300  0.84800  0.43100  Biso   1.000  H
  H187     1.0000 0.60300  0.79600  0.42200  Biso   1.000  H
  H188     1.0000 0.59200  0.84400  0.44500  Biso   1.000  H
  H189     1.0000 0.53300  0.78500  0.41200  Biso   1.000  H
  H190     1.0000 0.56800  0.77600  0.45400  Biso   1.000  H
  H191     1.0000 0.58000  0.75800  0.40300  Biso   1.000  H
  H192     1.0000 0.65700  0.80700  0.40100  Biso   1.000  H
  H193     1.0000 0.57900  0.79300  0.41300  Biso   1.000  H
  H194     1.0000 0.57000  0.84300  0.43300  Biso   1.000  H
  H195     1.0000 0.69100  0.82600  0.46800  Biso   1.000  H
  H196     1.0000 0.65000  0.79000  0.47500  Biso   1.000  H
  H197     1.0000 0.64300  0.84300  0.48800  Biso   1.000  H
  H198     1.0000 0.62000  0.00700  0.33500  Biso   1.000  H
  H199     1.0000 0.67500  0.06600  0.31500  Biso   1.000  H
  H200     1.0000 0.75400  0.05000  0.30100  Biso   1.000  H
  H201     1.0000 0.77700  0.98000  0.30900  Biso   1.000  H
  H202     1.0000 0.73200  0.91900  0.32800  Biso   1.000  H
  H203     1.0000 0.63700  0.00600  0.32500  Biso   1.000  H
  H204     1.0000 0.70000  0.06200  0.30900  Biso   1.000  H
  H205     1.0000 0.77400  0.03800  0.29900  Biso   1.000  H
  H206     1.0000 0.78900  0.95800  0.31600  Biso   1.000  H
  H207     1.0000 0.72600  0.90300  0.33600  Biso   1.000  H
  Ni10     1.0000 0.38110  0.39900  0.15270  Biso   1.000  Ni
  O37      1.0000 0.41160  0.44530  0.10930  Biso   1.000  O
  O38      1.0000 0.37040  0.44730  0.04300  Biso   1.000  O
  C154     1.0000 0.40200  0.46270  0.07020  Biso   1.000  C
  C155     1.0000 0.43060  0.50350  0.05580  Biso   1.000  C
  C156     1.0000 0.41840  0.53010  0.01630  Biso   1.000  C
  O39      1.0000 0.42270  0.34180  0.13520  Biso   1.000  O
  O40      1.0000 0.34140  0.37400  0.09620  Biso   1.000  O
  C157     1.0000 0.41210  0.32560  0.08980  Biso   1.000  C
  C158     1.0000 0.35830  0.33030  0.07940  Biso   1.000  C
  C159     1.0000 0.43480  0.28270  0.07930  Biso   1.000  C
  C160     1.0000 0.34240  0.32130  0.03320  Biso   1.000  C
  N19      1.0000 0.33480  0.45440  0.16690  Biso   1.000  N
  C161     1.0000 0.34820  0.49830  0.17040  Biso   1.000  C
  C162     1.0000 0.31430  0.53430  0.18230  Biso   1.000  C
  C163     1.0000 0.26800  0.52570  0.19010  Biso   1.000  C
  C164     1.0000 0.25560  0.48570  0.18580  Biso   1.000  C
  C165     1.0000 0.28200  0.44900  0.17490  Biso   1.000  C
  N20      1.0000 0.31700  0.45200  0.16820  Biso   1.000  N
  C166     1.0000 0.33080  0.49660  0.17610  Biso   1.000  C
  C167     1.0000 0.29270  0.52940  0.18700  Biso   1.000  C
  C168     1.0000 0.25050  0.51710  0.19180  Biso   1.000  C
  C169     1.0000 0.24250  0.46900  0.18230  Biso   1.000  C
  C170     1.0000 0.27990  0.43540  0.17010  Biso   1.000  C
  H208     1.0000 0.39000  0.52000  0.00200  Biso   1.000  H
  H209     1.0000 0.42700  0.34800  0.06900  Biso   1.000  H
  H210     1.0000 0.39700  0.29600  0.07800  Biso   1.000  H
  H211     1.0000 0.40800  0.34400  0.05500  Biso   1.000  H
  H212     1.0000 0.46700  0.28500  0.08800  Biso   1.000  H
  H213     1.0000 0.43200  0.27600  0.04600  Biso   1.000  H
  H214     1.0000 0.42000  0.25800  0.09700  Biso   1.000  H
  H215     1.0000 0.34300  0.30700  0.09900  Biso   1.000  H
  H216     1.0000 0.42100  0.29300  0.08700  Biso   1.000  H
  H217     1.0000 0.43000  0.34300  0.06700  Biso   1.000  H
  H218     1.0000 0.30900  0.32600  0.03200  Biso   1.000  H
  H219     1.0000 0.35000  0.29000  0.02500  Biso   1.000  H
  H220     1.0000 0.35700  0.34300  0.01200  Biso   1.000  H
  H221     1.0000 0.38000  0.50700  0.16500  Biso   1.000  H
  H222     1.0000 0.32500  0.56600  0.18500  Biso   1.000  H
  H223     1.0000 0.24600  0.55000  0.19900  Biso   1.000  H
  H224     1.0000 0.22300  0.48000  0.19100  Biso   1.000  H
  H225     1.0000 0.26800  0.41900  0.17200  Biso   1.000  H
  H226     1.0000 0.36300  0.50600  0.17500  Biso   1.000  H
  H227     1.0000 0.30000  0.56200  0.19100  Biso   1.000  H
  H228     1.0000 0.22600  0.53800  0.20100  Biso   1.000  H
  H229     1.0000 0.21100  0.45800  0.18400  Biso   1.000  H
  H230     1.0000 0.27400  0.40300  0.16400  Biso   1.000  H
  Ni11     1.0000 0.11890  0.60100  0.65270  Biso   1.000  Ni
  O41      1.0000 0.08840  0.55470  0.60930  Biso   1.000  O
  O42      1.0000 0.12960  0.55270  0.54300  Biso   1.000  O
  C171     1.0000 0.09800  0.53730  0.57020  Biso   1.000  C
  C172     1.0000 0.06940  0.49650  0.55580  Biso   1.000  C
  C173     1.0000 0.08160  0.46990  0.51630  Biso   1.000  C
  O43      1.0000 0.07730  0.65820  0.63520  Biso   1.000  O
  O44      1.0000 0.15860  0.62600  0.59620  Biso   1.000  O
  C174     1.0000 0.08790  0.67440  0.58980  Biso   1.000  C
  C175     1.0000 0.14170  0.66970  0.57940  Biso   1.000  C
  C176     1.0000 0.06520  0.71730  0.57930  Biso   1.000  C
  C177     1.0000 0.15760  0.67870  0.53320  Biso   1.000  C
  N21      1.0000 0.16520  0.54560  0.66690  Biso   1.000  N
  C178     1.0000 0.15180  0.50170  0.67040  Biso   1.000  C
  C179     1.0000 0.18570  0.46570  0.68230  Biso   1.000  C
  C180     1.0000 0.23200  0.47430  0.69010  Biso   1.000  C
  C181     1.0000 0.24440  0.51430  0.68580  Biso   1.000  C
  C182     1.0000 0.21800  0.55100  0.67490  Biso   1.000  C
  N22      1.0000 0.18300  0.54800  0.66820  Biso   1.000  N
  C183     1.0000 0.16920  0.50340  0.67610  Biso   1.000  C
  C184     1.0000 0.20730  0.47060  0.68700  Biso   1.000  C
  C185     1.0000 0.24950  0.48290  0.69180  Biso   1.000  C
  C186     1.0000 0.25750  0.53100  0.68230  Biso   1.000  C
  C187     1.0000 0.22010  0.56460  0.67010  Biso   1.000  C
  H231     1.0000 0.11000  0.48000  0.50200  Biso   1.000  H
  H232     1.0000 0.07300  0.65200  0.56900  Biso   1.000  H
  H233     1.0000 0.10300  0.70400  0.57800  Biso   1.000  H
  H234     1.0000 0.09200  0.65600  0.55500  Biso   1.000  H
  H235     1.0000 0.03300  0.71500  0.58800  Biso   1.000  H
  H236     1.0000 0.06800  0.72400  0.54600  Biso   1.000  H
  H237     1.0000 0.08000  0.74200  0.59700  Biso   1.000  H
  H238     1.0000 0.15700  0.69300  0.59900  Biso   1.000  H
  H239     1.0000 0.07900  0.70700  0.58700  Biso   1.000  H
  H240     1.0000 0.07000  0.65700  0.56700  Biso   1.000  H
  H241     1.0000 0.19100  0.67400  0.53200  Biso   1.000  H
  H242     1.0000 0.15000  0.71000  0.52500  Biso   1.000  H
  H243     1.0000 0.14300  0.65700  0.51200  Biso   1.000  H
  H244     1.0000 0.12000  0.49300  0.66500  Biso   1.000  H
  H245     1.0000 0.17500  0.43400  0.68500  Biso   1.000  H
  H246     1.0000 0.25400  0.45000  0.69900  Biso   1.000  H
  H247     1.0000 0.27700  0.52000  0.69100  Biso   1.000  H
  H248     1.0000 0.23200  0.58100  0.67200  Biso   1.000  H
  H249     1.0000 0.13700  0.49400  0.67500  Biso   1.000  H
  H250     1.0000 0.20000  0.43800  0.69100  Biso   1.000  H
  H251     1.0000 0.27400  0.46200  0.70100  Biso   1.000  H
  H252     1.0000 0.28900  0.54200  0.68400  Biso   1.000  H
  H253     1.0000 0.22600  0.59700  0.66400  Biso   1.000  H
  Ni12     1.0000 0.88110  0.10100  0.84730  Biso   1.000  Ni
  O45      1.0000 0.91160  0.05470  0.89070  Biso   1.000  O
  O46      1.0000 0.87040  0.05270  0.95700  Biso   1.000  O
  C188     1.0000 0.90200  0.03730  0.92980  Biso   1.000  C
  C189     1.0000 0.93060  0.99650  0.94420  Biso   1.000  C
  C190     1.0000 0.91840  0.96990  0.98370  Biso   1.000  C
  O47      1.0000 0.92270  0.15820  0.86480  Biso   1.000  O
  O48      1.0000 0.84140  0.12600  0.90380  Biso   1.000  O
  C191     1.0000 0.91210  0.17440  0.91020  Biso   1.000  C
  C192     1.0000 0.85830  0.16970  0.92060  Biso   1.000  C
  C193     1.0000 0.93480  0.21730  0.92070  Biso   1.000  C
  C194     1.0000 0.84240  0.17870  0.96680  Biso   1.000  C
  N23      1.0000 0.83480  0.04560  0.83310  Biso   1.000  N
  C195     1.0000 0.84820  0.00170  0.82960  Biso   1.000  C
  C196     1.0000 0.81430  0.96570  0.81770  Biso   1.000  C
  C197     1.0000 0.76800  0.97430  0.80990  Biso   1.000  C
  C198     1.0000 0.75560  0.01430  0.81420  Biso   1.000  C
  C199     1.0000 0.78200  0.05100  0.82510  Biso   1.000  C
  N24      1.0000 0.81700  0.04800  0.83180  Biso   1.000  N
  C200     1.0000 0.83080  0.00340  0.82390  Biso   1.000  C
  C201     1.0000 0.79270  0.97060  0.81300  Biso   1.000  C
  C202     1.0000 0.75050  0.98290  0.80820  Biso   1.000  C
  C203     1.0000 0.74250  0.03100  0.81770  Biso   1.000  C
  C204     1.0000 0.77990  0.06460  0.82990  Biso   1.000  C
  H254     1.0000 0.89000  0.98000  0.99800  Biso   1.000  H
  H255     1.0000 0.92700  0.15200  0.93100  Biso   1.000  H
  H256     1.0000 0.89700  0.20400  0.92200  Biso   1.000  H
  H257     1.0000 0.90800  0.15600  0.94500  Biso   1.000  H
  H258     1.0000 0.96700  0.21500  0.91200  Biso   1.000  H
  H259     1.0000 0.93200  0.22400  0.95400  Biso   1.000  H
  H260     1.0000 0.92000  0.24200  0.90300  Biso   1.000  H
  H261     1.0000 0.84300  0.19300  0.90100  Biso   1.000  H
  H262     1.0000 0.92100  0.20700  0.91300  Biso   1.000  H
  H263     1.0000 0.93000  0.15700  0.93300  Biso   1.000  H
  H264     1.0000 0.80900  0.17400  0.96800  Biso   1.000  H
  H265     1.0000 0.85000  0.21000  0.97500  Biso   1.000  H
  H266     1.0000 0.85700  0.15700  0.98800  Biso   1.000  H
  H267     1.0000 0.88000  0.99300  0.83500  Biso   1.000  H
  H268     1.0000 0.82500  0.93400  0.81500  Biso   1.000  H
  H269     1.0000 0.74600  0.95000  0.80100  Biso   1.000  H
  H270     1.0000 0.72300  0.02000  0.80900  Biso   1.000  H
  H271     1.0000 0.76800  0.08100  0.82800  Biso   1.000  H
  H272     1.0000 0.86300  0.99400  0.82500  Biso   1.000  H
  H273     1.0000 0.80000  0.93800  0.80900  Biso   1.000  H
  H274     1.0000 0.72600  0.96200  0.79900  Biso   1.000  H
  H275     1.0000 0.71100  0.04200  0.81600  Biso   1.000  H
  H276     1.0000 0.77400  0.09700  0.83600  Biso   1.000  H
  Ni13     1.0000 0.86890  0.09730  0.85100  Biso   1.000  Ni
  O49      1.0000 0.83840  0.14070  0.80470  Biso   1.000  O
  O50      1.0000 0.87960  0.20700  0.80270  Biso   1.000  O
  C205     1.0000 0.84800  0.17980  0.78730  Biso   1.000  C
  C206     1.0000 0.81940  0.19420  0.74650  Biso   1.000  C
  C207     1.0000 0.83160  0.23370  0.71990  Biso   1.000  C
  O51      1.0000 0.82730  0.11480  0.90820  Biso   1.000  O
  O52      1.0000 0.90860  0.15380  0.87600  Biso   1.000  O
  C208     1.0000 0.83790  0.16020  0.92440  Biso   1.000  C
  C209     1.0000 0.89170  0.17060  0.91970  Biso   1.000  C
  C210     1.0000 0.81520  0.17070  0.96730  Biso   1.000  C
  C211     1.0000 0.90760  0.21680  0.92870  Biso   1.000  C
  N25      1.0000 0.91520  0.08310  0.79560  Biso   1.000  N
  C212     1.0000 0.90180  0.07960  0.75170  Biso   1.000  C
  C213     1.0000 0.93570  0.06770  0.71570  Biso   1.000  C
  C214     1.0000 0.98200  0.05990  0.72430  Biso   1.000  C
  C215     1.0000 0.99440  0.06420  0.76430  Biso   1.000  C
  C216     1.0000 0.96800  0.07510  0.80100  Biso   1.000  C
  N26      1.0000 0.93300  0.08180  0.79800  Biso   1.000  N
  C217     1.0000 0.91920  0.07390  0.75340  Biso   1.000  C
  C218     1.0000 0.95730  0.06300  0.72060  Biso   1.000  C
  C219     1.0000 0.99950  0.05820  0.73290  Biso   1.000  C
  C220     1.0000 0.00750  0.06770  0.78100  Biso   1.000  C
  C221     1.0000 0.97010  0.07990  0.81460  Biso   1.000  C
  H277     1.0000 0.86000  0.24800  0.73000  Biso   1.000  H
  H278     1.0000 0.82300  0.18100  0.90200  Biso   1.000  H
  H279     1.0000 0.85300  0.17200  0.95400  Biso   1.000  H
  H280     1.0000 0.84200  0.19500  0.90600  Biso   1.000  H
  H281     1.0000 0.78300  0.16200  0.96500  Biso   1.000  H
  H282     1.0000 0.81800  0.20400  0.97400  Biso   1.000  H
  H283     1.0000 0.83000  0.15300  0.99200  Biso   1.000  H
  H284     1.0000 0.90700  0.15100  0.94300  Biso   1.000  H
  H285     1.0000 0.82900  0.16300  0.95700  Biso   1.000  H
  H286     1.0000 0.82000  0.18300  0.90700  Biso   1.000  H
  H287     1.0000 0.94100  0.21800  0.92400  Biso   1.000  H
  H288     1.0000 0.90000  0.22500  0.96000  Biso   1.000  H
  H289     1.0000 0.89300  0.23800  0.90700  Biso   1.000  H
  H290     1.0000 0.87000  0.08500  0.74300  Biso   1.000  H
  H291     1.0000 0.92500  0.06500  0.68400  Biso   1.000  H
  H292     1.0000 0.00400  0.05100  0.70000  Biso   1.000  H
  H293     1.0000 0.02700  0.05900  0.77000  Biso   1.000  H
  H294     1.0000 0.98200  0.07800  0.83100  Biso   1.000  H
  H295     1.0000 0.88700  0.07500  0.74400  Biso   1.000  H
  H296     1.0000 0.95000  0.05900  0.68800  Biso   1.000  H
  H297     1.0000 0.02400  0.04900  0.71200  Biso   1.000  H
  H298     1.0000 0.03900  0.06600  0.79200  Biso   1.000  H
  H299     1.0000 0.97600  0.08600  0.84700  Biso   1.000  H
  Ni14     1.0000 0.63110  0.90270  0.35100  Biso   1.000  Ni
  O53      1.0000 0.66160  0.85930  0.30470  Biso   1.000  O
  O54      1.0000 0.62040  0.79300  0.30270  Biso   1.000  O
  C222     1.0000 0.65200  0.82020  0.28730  Biso   1.000  C
  C223     1.0000 0.68060  0.80580  0.24650  Biso   1.000  C
  C224     1.0000 0.66840  0.76630  0.21990  Biso   1.000  C
  O55      1.0000 0.67270  0.88520  0.40820  Biso   1.000  O
  O56      1.0000 0.59140  0.84620  0.37600  Biso   1.000  O
  C225     1.0000 0.66210  0.83980  0.42440  Biso   1.000  C
  C226     1.0000 0.60830  0.82940  0.41970  Biso   1.000  C
  C227     1.0000 0.68480  0.82930  0.46730  Biso   1.000  C
  C228     1.0000 0.59240  0.78320  0.42870  Biso   1.000  C
  N27      1.0000 0.58480  0.91690  0.29560  Biso   1.000  N
  C229     1.0000 0.59820  0.92040  0.25170  Biso   1.000  C
  C230     1.0000 0.56430  0.93230  0.21570  Biso   1.000  C
  C231     1.0000 0.51800  0.94010  0.22430  Biso   1.000  C
  C232     1.0000 0.50560  0.93580  0.26430  Biso   1.000  C
  C233     1.0000 0.53200  0.92490  0.30100  Biso   1.000  C
  N28      1.0000 0.56700  0.91820  0.29800  Biso   1.000  N
  C234     1.0000 0.58080  0.92610  0.25340  Biso   1.000  C
  C235     1.0000 0.54270  0.93700  0.22060  Biso   1.000  C
  C236     1.0000 0.50050  0.94180  0.23290  Biso   1.000  C
  C237     1.0000 0.49250  0.93230  0.28100  Biso   1.000  C
  C238     1.0000 0.52990  0.92010  0.31460  Biso   1.000  C
  H300     1.0000 0.64000  0.75200  0.23000  Biso   1.000  H
  H301     1.0000 0.67700  0.81900  0.40200  Biso   1.000  H
  H302     1.0000 0.64700  0.82800  0.45400  Biso   1.000  H
  H303     1.0000 0.65800  0.80500  0.40600  Biso   1.000  H
  H304     1.0000 0.71700  0.83800  0.46500  Biso   1.000  H
  H305     1.0000 0.68200  0.79600  0.47400  Biso   1.000  H
  H306     1.0000 0.67000  0.84700  0.49200  Biso   1.000  H
  H307     1.0000 0.59300  0.84900  0.44300  Biso   1.000  H
  H308     1.0000 0.67100  0.83700  0.45700  Biso   1.000  H
  H309     1.0000 0.68000  0.81700  0.40700  Biso   1.000  H
  H310     1.0000 0.55900  0.78200  0.42400  Biso   1.000  H
  H311     1.0000 0.60000  0.77500  0.46000  Biso   1.000  H
  H312     1.0000 0.60700  0.76200  0.40700  Biso   1.000  H
  H313     1.0000 0.63000  0.91500  0.24300  Biso   1.000  H
  H314     1.0000 0.57500  0.93500  0.18400  Biso   1.000  H
  H315     1.0000 0.49600  0.94900  0.20000  Biso   1.000  H
  H316     1.0000 0.47300  0.94100  0.27000  Biso   1.000  H
  H317     1.0000 0.51800  0.92200  0.33100  Biso   1.000  H
  H318     1.0000 0.61300  0.92500  0.24400  Biso   1.000  H
  H319     1.0000 0.55000  0.94100  0.18800  Biso   1.000  H
  H320     1.0000 0.47600  0.95100  0.21200  Biso   1.000  H
  H321     1.0000 0.46100  0.93400  0.29200  Biso   1.000  H
  H322     1.0000 0.52400  0.91400  0.34700  Biso   1.000  H
  Ni15     1.0000 0.36890  0.40270  0.14900  Biso   1.000  Ni
  O57      1.0000 0.33840  0.35930  0.19530  Biso   1.000  O
  O58      1.0000 0.37960  0.29300  0.19730  Biso   1.000  O
  C239     1.0000 0.34800  0.32020  0.21270  Biso   1.000  C
  C240     1.0000 0.31940  0.30580  0.25350  Biso   1.000  C
  C241     1.0000 0.33160  0.26630  0.28010  Biso   1.000  C
  O59      1.0000 0.32730  0.38520  0.09180  Biso   1.000  O
  O60      1.0000 0.40860  0.34620  0.12400  Biso   1.000  O
  C242     1.0000 0.33790  0.33980  0.07560  Biso   1.000  C
  C243     1.0000 0.39170  0.32940  0.08030  Biso   1.000  C
  C244     1.0000 0.31520  0.32930  0.03270  Biso   1.000  C
  C245     1.0000 0.40760  0.28320  0.07130  Biso   1.000  C
  N29      1.0000 0.41520  0.41690  0.20440  Biso   1.000  N
  C246     1.0000 0.40180  0.42040  0.24830  Biso   1.000  C
  C247     1.0000 0.43570  0.43230  0.28430  Biso   1.000  C
  C248     1.0000 0.48200  0.44010  0.27570  Biso   1.000  C
  C249     1.0000 0.49440  0.43580  0.23570  Biso   1.000  C
  C250     1.0000 0.46800  0.42490  0.19900  Biso   1.000  C
  N30      1.0000 0.43300  0.41820  0.20200  Biso   1.000  N
  C251     1.0000 0.41920  0.42610  0.24660  Biso   1.000  C
  C252     1.0000 0.45730  0.43700  0.27940  Biso   1.000  C
  C253     1.0000 0.49950  0.44180  0.26710  Biso   1.000  C
  C254     1.0000 0.50750  0.43230  0.21900  Biso   1.000  C
  C255     1.0000 0.47010  0.42010  0.18540  Biso   1.000  C
  H323     1.0000 0.36000  0.25200  0.27000  Biso   1.000  H
  H324     1.0000 0.32300  0.31900  0.09800  Biso   1.000  H
  H325     1.0000 0.35300  0.32800  0.04600  Biso   1.000  H
  H326     1.0000 0.34200  0.30500  0.09400  Biso   1.000  H
  H327     1.0000 0.28300  0.33800  0.03500  Biso   1.000  H
  H328     1.0000 0.31800  0.29600  0.02600  Biso   1.000  H
  H329     1.0000 0.33000  0.34700  0.00800  Biso   1.000  H
  H330     1.0000 0.40700  0.34900  0.05700  Biso   1.000  H
  H331     1.0000 0.32900  0.33700  0.04300  Biso   1.000  H
  H332     1.0000 0.32000  0.31700  0.09300  Biso   1.000  H
  H333     1.0000 0.44100  0.28200  0.07600  Biso   1.000  H
  H334     1.0000 0.40000  0.27500  0.04000  Biso   1.000  H
  H335     1.0000 0.39300  0.26200  0.09300  Biso   1.000  H
  H336     1.0000 0.37000  0.41500  0.25700  Biso   1.000  H
  H337     1.0000 0.42500  0.43500  0.31600  Biso   1.000  H
  H338     1.0000 0.50400  0.44900  0.30000  Biso   1.000  H
  H339     1.0000 0.52700  0.44100  0.23000  Biso   1.000  H
  H340     1.0000 0.48200  0.42200  0.16900  Biso   1.000  H
  H341     1.0000 0.38700  0.42500  0.25600  Biso   1.000  H
  H342     1.0000 0.45000  0.44100  0.31200  Biso   1.000  H
  H343     1.0000 0.52400  0.45100  0.28800  Biso   1.000  H
  H344     1.0000 0.53900  0.43400  0.20800  Biso   1.000  H
  H345     1.0000 0.47600  0.41400  0.15300  Biso   1.000  H
  Ni16     1.0000 0.13110  0.59730  0.64900  Biso   1.000  Ni
  O61      1.0000 0.16160  0.64070  0.69530  Biso   1.000  O
  O62      1.0000 0.12040  0.70700  0.69730  Biso   1.000  O
  C256     1.0000 0.15200  0.67980  0.71270  Biso   1.000  C
  C257     1.0000 0.18060  0.69420  0.75350  Biso   1.000  C
  C258     1.0000 0.16840  0.73370  0.78010  Biso   1.000  C
  O63      1.0000 0.17270  0.61480  0.59180  Biso   1.000  O
  O64      1.0000 0.09140  0.65380  0.62400  Biso   1.000  O
  C259     1.0000 0.16210  0.66020  0.57560  Biso   1.000  C
  C260     1.0000 0.10830  0.67060  0.58030  Biso   1.000  C
  C261     1.0000 0.18480  0.67070  0.53270  Biso   1.000  C
  C262     1.0000 0.09240  0.71680  0.57130  Biso   1.000  C
  N31      1.0000 0.08480  0.58310  0.70440  Biso   1.000  N
  C263     1.0000 0.09820  0.57960  0.74830  Biso   1.000  C
  C264     1.0000 0.06430  0.56770  0.78430  Biso   1.000  C
  C265     1.0000 0.01800  0.55990  0.77570  Biso   1.000  C
  C266     1.0000 0.00560  0.56420  0.73570  Biso   1.000  C
  C267     1.0000 0.03200  0.57510  0.69900  Biso   1.000  C
  N32      1.0000 0.06700  0.58180  0.70200  Biso   1.000  N
  C268     1.0000 0.08080  0.57390  0.74660  Biso   1.000  C
  C269     1.0000 0.04270  0.56300  0.77940  Biso   1.000  C
  C270     1.0000 0.00050  0.55820  0.76710  Biso   1.000  C
  C271     1.0000 0.99250  0.56770  0.71900  Biso   1.000  C
  C272     1.0000 0.02990  0.57990  0.68540  Biso   1.000  C
  H346     1.0000 0.14000  0.74800  0.77000  Biso   1.000  H
  H347     1.0000 0.17700  0.68100  0.59800  Biso   1.000  H
  H348     1.0000 0.14700  0.67200  0.54600  Biso   1.000  H
  H349     1.0000 0.15800  0.69500  0.59400  Biso   1.000  H
  H350     1.0000 0.21700  0.66200  0.53500  Biso   1.000  H
  H351     1.0000 0.18200  0.70400  0.52600  Biso   1.000  H
  H352     1.0000 0.17000  0.65300  0.50800  Biso   1.000  H
  H353     1.0000 0.09300  0.65100  0.55700  Biso   1.000  H
  H354     1.0000 0.17100  0.66300  0.54300  Biso   1.000  H
  H355     1.0000 0.18000  0.68300  0.59300  Biso   1.000  H
  H356     1.0000 0.05900  0.71800  0.57600  Biso   1.000  H
  H357     1.0000 0.10000  0.72500  0.54000  Biso   1.000  H
  H358     1.0000 0.10700  0.73800  0.59300  Biso   1.000  H
  H359     1.0000 0.13000  0.58500  0.75700  Biso   1.000  H
  H360     1.0000 0.07500  0.56500  0.81600  Biso   1.000  H
  H361     1.0000 0.99600  0.55100  0.80000  Biso   1.000  H
  H362     1.0000 0.97300  0.55900  0.73000  Biso   1.000  H
  H363     1.0000 0.01800  0.57800  0.66900  Biso   1.000  H
  H364     1.0000 0.11300  0.57500  0.75600  Biso   1.000  H
  H365     1.0000 0.05000  0.55900  0.81200  Biso   1.000  H
  H366     1.0000 0.97600  0.54900  0.78800  Biso   1.000  H
  H367     1.0000 0.96100  0.56600  0.70800  Biso   1.000  H
  H368     1.0000 0.02400  0.58600  0.65300  Biso   1.000  H
  Ni17     1.0000 0.59730  0.64900  0.13110  Biso   1.000  Ni
  O65      1.0000 0.64070  0.69530  0.16160  Biso   1.000  O
  O66      1.0000 0.70700  0.69730  0.12040  Biso   1.000  O
  C273     1.0000 0.67980  0.71270  0.15200  Biso   1.000  C
  C274     1.0000 0.69420  0.75350  0.18060  Biso   1.000  C
  C275     1.0000 0.73370  0.78010  0.16840  Biso   1.000  C
  O67      1.0000 0.61480  0.59180  0.17270  Biso   1.000  O
  O68      1.0000 0.65380  0.62400  0.09140  Biso   1.000  O
  C276     1.0000 0.66020  0.57560  0.16210  Biso   1.000  C
  C277     1.0000 0.67060  0.58030  0.10830  Biso   1.000  C
  C278     1.0000 0.67070  0.53270  0.18480  Biso   1.000  C
  C279     1.0000 0.71680  0.57130  0.09240  Biso   1.000  C
  N33      1.0000 0.58310  0.70440  0.08480  Biso   1.000  N
  C280     1.0000 0.57960  0.74830  0.09820  Biso   1.000  C
  C281     1.0000 0.56770  0.78430  0.06430  Biso   1.000  C
  C282     1.0000 0.55990  0.77570  0.01800  Biso   1.000  C
  C283     1.0000 0.56420  0.73570  0.00560  Biso   1.000  C
  C284     1.0000 0.57510  0.69900  0.03200  Biso   1.000  C
  N34      1.0000 0.58180  0.70200  0.06700  Biso   1.000  N
  C285     1.0000 0.57390  0.74660  0.08080  Biso   1.000  C
  C286     1.0000 0.56300  0.77940  0.04270  Biso   1.000  C
  C287     1.0000 0.55820  0.76710  0.00050  Biso   1.000  C
  C288     1.0000 0.56770  0.71900  0.99250  Biso   1.000  C
  C289     1.0000 0.57990  0.68540  0.02990  Biso   1.000  C
  H369     1.0000 0.74800  0.77000  0.14000  Biso   1.000  H
  H370     1.0000 0.68100  0.59800  0.17700  Biso   1.000  H
  H371     1.0000 0.67200  0.54600  0.14700  Biso   1.000  H
  H372     1.0000 0.69500  0.59400  0.15800  Biso   1.000  H
  H373     1.0000 0.66200  0.53500  0.21700  Biso   1.000  H
  H374     1.0000 0.70400  0.52600  0.18200  Biso   1.000  H
  H375     1.0000 0.65300  0.50800  0.17000  Biso   1.000  H
  H376     1.0000 0.65100  0.55700  0.09300  Biso   1.000  H
  H377     1.0000 0.66300  0.54300  0.17100  Biso   1.000  H
  H378     1.0000 0.68300  0.59300  0.18000  Biso   1.000  H
  H379     1.0000 0.71800  0.57600  0.05900  Biso   1.000  H
  H380     1.0000 0.72500  0.54000  0.10000  Biso   1.000  H
  H381     1.0000 0.73800  0.59300  0.10700  Biso   1.000  H
  H382     1.0000 0.58500  0.75700  0.13000  Biso   1.000  H
  H383     1.0000 0.56500  0.81600  0.07500  Biso   1.000  H
  H384     1.0000 0.55100  0.80000  0.99600  Biso   1.000  H
  H385     1.0000 0.55900  0.73000  0.97300  Biso   1.000  H
  H386     1.0000 0.57800  0.66900  0.01800  Biso   1.000  H
  H387     1.0000 0.57500  0.75600  0.11300  Biso   1.000  H
  H388     1.0000 0.55900  0.81200  0.05000  Biso   1.000  H
  H389     1.0000 0.54900  0.78800  0.97600  Biso   1.000  H
  H390     1.0000 0.56600  0.70800  0.96100  Biso   1.000  H
  H391     1.0000 0.58600  0.65300  0.02400  Biso   1.000  H
  Ni18     1.0000 0.40270  0.14900  0.36890  Biso   1.000  Ni
  O69      1.0000 0.35930  0.19530  0.33840  Biso   1.000  O
  O70      1.0000 0.29300  0.19730  0.37960  Biso   1.000  O
  C290     1.0000 0.32020  0.21270  0.34800  Biso   1.000  C
  C291     1.0000 0.30580  0.25350  0.31940  Biso   1.000  C
  C292     1.0000 0.26630  0.28010  0.33160  Biso   1.000  C
  O71      1.0000 0.38520  0.09180  0.32730  Biso   1.000  O
  O72      1.0000 0.34620  0.12400  0.40860  Biso   1.000  O
  C293     1.0000 0.33980  0.07560  0.33790  Biso   1.000  C
  C294     1.0000 0.32940  0.08030  0.39170  Biso   1.000  C
  C295     1.0000 0.32930  0.03270  0.31520  Biso   1.000  C
  C296     1.0000 0.28320  0.07130  0.40760  Biso   1.000  C
  N35      1.0000 0.41690  0.20440  0.41520  Biso   1.000  N
  C297     1.0000 0.42040  0.24830  0.40180  Biso   1.000  C
  C298     1.0000 0.43230  0.28430  0.43570  Biso   1.000  C
  C299     1.0000 0.44010  0.27570  0.48200  Biso   1.000  C
  C300     1.0000 0.43580  0.23570  0.49440  Biso   1.000  C
  C301     1.0000 0.42490  0.19900  0.46800  Biso   1.000  C
  N36      1.0000 0.41820  0.20200  0.43300  Biso   1.000  N
  C302     1.0000 0.42610  0.24660  0.41920  Biso   1.000  C
  C303     1.0000 0.43700  0.27940  0.45730  Biso   1.000  C
  C304     1.0000 0.44180  0.26710  0.49950  Biso   1.000  C
  C305     1.0000 0.43230  0.21900  0.50750  Biso   1.000  C
  C306     1.0000 0.42010  0.18540  0.47010  Biso   1.000  C
  H392     1.0000 0.25200  0.27000  0.36000  Biso   1.000  H
  H393     1.0000 0.31900  0.09800  0.32300  Biso   1.000  H
  H394     1.0000 0.32800  0.04600  0.35300  Biso   1.000  H
  H395     1.0000 0.30500  0.09400  0.34200  Biso   1.000  H
  H396     1.0000 0.33800  0.03500  0.28300  Biso   1.000  H
  H397     1.0000 0.29600  0.02600  0.31800  Biso   1.000  H
  H398     1.0000 0.34700  0.00800  0.33000  Biso   1.000  H
  H399     1.0000 0.34900  0.05700  0.40700  Biso   1.000  H
  H400     1.0000 0.33700  0.04300  0.32900  Biso   1.000  H
  H401     1.0000 0.31700  0.09300  0.32000  Biso   1.000  H
  H402     1.0000 0.28200  0.07600  0.44100  Biso   1.000  H
  H403     1.0000 0.27500  0.04000  0.40000  Biso   1.000  H
  H404     1.0000 0.26200  0.09300  0.39300  Biso   1.000  H
  H405     1.0000 0.41500  0.25700  0.37000  Biso   1.000  H
  H406     1.0000 0.43500  0.31600  0.42500  Biso   1.000  H
  H407     1.0000 0.44900  0.30000  0.50400  Biso   1.000  H
  H408     1.0000 0.44100  0.23000  0.52700  Biso   1.000  H
  H409     1.0000 0.42200  0.16900  0.48200  Biso   1.000  H
  H410     1.0000 0.42500  0.25600  0.38700  Biso   1.000  H
  H411     1.0000 0.44100  0.31200  0.45000  Biso   1.000  H
  H412     1.0000 0.45100  0.28800  0.52400  Biso   1.000  H
  H413     1.0000 0.43400  0.20800  0.53900  Biso   1.000  H
  H414     1.0000 0.41400  0.15300  0.47600  Biso   1.000  H
  Ni19     1.0000 0.90270  0.35100  0.63110  Biso   1.000  Ni
  O73      1.0000 0.85930  0.30470  0.66160  Biso   1.000  O
  O74      1.0000 0.79300  0.30270  0.62040  Biso   1.000  O
  C307     1.0000 0.82020  0.28730  0.65200  Biso   1.000  C
  C308     1.0000 0.80580  0.24650  0.68060  Biso   1.000  C
  C309     1.0000 0.76630  0.21990  0.66840  Biso   1.000  C
  O75      1.0000 0.88520  0.40820  0.67270  Biso   1.000  O
  O76      1.0000 0.84620  0.37600  0.59140  Biso   1.000  O
  C310     1.0000 0.83980  0.42440  0.66210  Biso   1.000  C
  C311     1.0000 0.82940  0.41970  0.60830  Biso   1.000  C
  C312     1.0000 0.82930  0.46730  0.68480  Biso   1.000  C
  C313     1.0000 0.78320  0.42870  0.59240  Biso   1.000  C
  N37      1.0000 0.91690  0.29560  0.58480  Biso   1.000  N
  C314     1.0000 0.92040  0.25170  0.59820  Biso   1.000  C
  C315     1.0000 0.93230  0.21570  0.56430  Biso   1.000  C
  C316     1.0000 0.94010  0.22430  0.51800  Biso   1.000  C
  C317     1.0000 0.93580  0.26430  0.50560  Biso   1.000  C
  C318     1.0000 0.92490  0.30100  0.53200  Biso   1.000  C
  N38      1.0000 0.91820  0.29800  0.56700  Biso   1.000  N
  C319     1.0000 0.92610  0.25340  0.58080  Biso   1.000  C
  C320     1.0000 0.93700  0.22060  0.54270  Biso   1.000  C
  C321     1.0000 0.94180  0.23290  0.50050  Biso   1.000  C
  C322     1.0000 0.93230  0.28100  0.49250  Biso   1.000  C
  C323     1.0000 0.92010  0.31460  0.52990  Biso   1.000  C
  H415     1.0000 0.75200  0.23000  0.64000  Biso   1.000  H
  H416     1.0000 0.81900  0.40200  0.67700  Biso   1.000  H
  H417     1.0000 0.82800  0.45400  0.64700  Biso   1.000  H
  H418     1.0000 0.80500  0.40600  0.65800  Biso   1.000  H
  H419     1.0000 0.83800  0.46500  0.71700  Biso   1.000  H
  H420     1.0000 0.79600  0.47400  0.68200  Biso   1.000  H
  H421     1.0000 0.84700  0.49200  0.67000  Biso   1.000  H
  H422     1.0000 0.84900  0.44300  0.59300  Biso   1.000  H
  H423     1.0000 0.83700  0.45700  0.67100  Biso   1.000  H
  H424     1.0000 0.81700  0.40700  0.68000  Biso   1.000  H
  H425     1.0000 0.78200  0.42400  0.55900  Biso   1.000  H
  H426     1.0000 0.77500  0.46000  0.60000  Biso   1.000  H
  H427     1.0000 0.76200  0.40700  0.60700  Biso   1.000  H
  H428     1.0000 0.91500  0.24300  0.63000  Biso   1.000  H
  H429     1.0000 0.93500  0.18400  0.57500  Biso   1.000  H
  H430     1.0000 0.94900  0.20000  0.49600  Biso   1.000  H
  H431     1.0000 0.94100  0.27000  0.47300  Biso   1.000  H
  H432     1.0000 0.92200  0.33100  0.51800  Biso   1.000  H
  H433     1.0000 0.92500  0.24400  0.61300  Biso   1.000  H
  H434     1.0000 0.94100  0.18800  0.55000  Biso   1.000  H
  H435     1.0000 0.95100  0.21200  0.47600  Biso   1.000  H
  H436     1.0000 0.93400  0.29200  0.46100  Biso   1.000  H
  H437     1.0000 0.91400  0.34700  0.52400  Biso   1.000  H
  Ni20     1.0000 0.09730  0.85100  0.86890  Biso   1.000  Ni
  O77      1.0000 0.14070  0.80470  0.83840  Biso   1.000  O
  O78      1.0000 0.20700  0.80270  0.87960  Biso   1.000  O
  C324     1.0000 0.17980  0.78730  0.84800  Biso   1.000  C
  C325     1.0000 0.19420  0.74650  0.81940  Biso   1.000  C
  C326     1.0000 0.23370  0.71990  0.83160  Biso   1.000  C
  O79      1.0000 0.11480  0.90820  0.82730  Biso   1.000  O
  O80      1.0000 0.15380  0.87600  0.90860  Biso   1.000  O
  C327     1.0000 0.16020  0.92440  0.83790  Biso   1.000  C
  C328     1.0000 0.17060  0.91970  0.89170  Biso   1.000  C
  C329     1.0000 0.17070  0.96730  0.81520  Biso   1.000  C
  C330     1.0000 0.21680  0.92870  0.90760  Biso   1.000  C
  N39      1.0000 0.08310  0.79560  0.91520  Biso   1.000  N
  C331     1.0000 0.07960  0.75170  0.90180  Biso   1.000  C
  C332     1.0000 0.06770  0.71570  0.93570  Biso   1.000  C
  C333     1.0000 0.05990  0.72430  0.98200  Biso   1.000  C
  C334     1.0000 0.06420  0.76430  0.99440  Biso   1.000  C
  C335     1.0000 0.07510  0.80100  0.96800  Biso   1.000  C
  N40      1.0000 0.08180  0.79800  0.93300  Biso   1.000  N
  C336     1.0000 0.07390  0.75340  0.91920  Biso   1.000  C
  C337     1.0000 0.06300  0.72060  0.95730  Biso   1.000  C
  C338     1.0000 0.05820  0.73290  0.99950  Biso   1.000  C
  C339     1.0000 0.06770  0.78100  0.00750  Biso   1.000  C
  C340     1.0000 0.07990  0.81460  0.97010  Biso   1.000  C
  H438     1.0000 0.24800  0.73000  0.86000  Biso   1.000  H
  H439     1.0000 0.18100  0.90200  0.82300  Biso   1.000  H
  H440     1.0000 0.17200  0.95400  0.85300  Biso   1.000  H
  H441     1.0000 0.19500  0.90600  0.84200  Biso   1.000  H
  H442     1.0000 0.16200  0.96500  0.78300  Biso   1.000  H
  H443     1.0000 0.20400  0.97400  0.81800  Biso   1.000  H
  H444     1.0000 0.15300  0.99200  0.83000  Biso   1.000  H
  H445     1.0000 0.15100  0.94300  0.90700  Biso   1.000  H
  H446     1.0000 0.16300  0.95700  0.82900  Biso   1.000  H
  H447     1.0000 0.18300  0.90700  0.82000  Biso   1.000  H
  H448     1.0000 0.21800  0.92400  0.94100  Biso   1.000  H
  H449     1.0000 0.22500  0.96000  0.90000  Biso   1.000  H
  H450     1.0000 0.23800  0.90700  0.89300  Biso   1.000  H
  H451     1.0000 0.08500  0.74300  0.87000  Biso   1.000  H
  H452     1.0000 0.06500  0.68400  0.92500  Biso   1.000  H
  H453     1.0000 0.05100  0.70000  0.00400  Biso   1.000  H
  H454     1.0000 0.05900  0.77000  0.02700  Biso   1.000  H
  H455     1.0000 0.07800  0.83100  0.98200  Biso   1.000  H
  H456     1.0000 0.07500  0.74400  0.88700  Biso   1.000  H
  H457     1.0000 0.05900  0.68800  0.95000  Biso   1.000  H
  H458     1.0000 0.04900  0.71200  0.02400  Biso   1.000  H
  H459     1.0000 0.06600  0.79200  0.03900  Biso   1.000  H
  H460     1.0000 0.08600  0.84700  0.97600  Biso   1.000  H
  Ni21     1.0000 0.14900  0.36890  0.40270  Biso   1.000  Ni
  O81      1.0000 0.19530  0.33840  0.35930  Biso   1.000  O
  O82      1.0000 0.19730  0.37960  0.29300  Biso   1.000  O
  C341     1.0000 0.21270  0.34800  0.32020  Biso   1.000  C
  C342     1.0000 0.25350  0.31940  0.30580  Biso   1.000  C
  C343     1.0000 0.28010  0.33160  0.26630  Biso   1.000  C
  O83      1.0000 0.09180  0.32730  0.38520  Biso   1.000  O
  O84      1.0000 0.12400  0.40860  0.34620  Biso   1.000  O
  C344     1.0000 0.07560  0.33790  0.33980  Biso   1.000  C
  C345     1.0000 0.08030  0.39170  0.32940  Biso   1.000  C
  C346     1.0000 0.03270  0.31520  0.32930  Biso   1.000  C
  C347     1.0000 0.07130  0.40760  0.28320  Biso   1.000  C
  N41      1.0000 0.20440  0.41520  0.41690  Biso   1.000  N
  C348     1.0000 0.24830  0.40180  0.42040  Biso   1.000  C
  C349     1.0000 0.28430  0.43570  0.43230  Biso   1.000  C
  C350     1.0000 0.27570  0.48200  0.44010  Biso   1.000  C
  C351     1.0000 0.23570  0.49440  0.43580  Biso   1.000  C
  C352     1.0000 0.19900  0.46800  0.42490  Biso   1.000  C
  N42      1.0000 0.20200  0.43300  0.41820  Biso   1.000  N
  C353     1.0000 0.24660  0.41920  0.42610  Biso   1.000  C
  C354     1.0000 0.27940  0.45730  0.43700  Biso   1.000  C
  C355     1.0000 0.26710  0.49950  0.44180  Biso   1.000  C
  C356     1.0000 0.21900  0.50750  0.43230  Biso   1.000  C
  C357     1.0000 0.18540  0.47010  0.42010  Biso   1.000  C
  H461     1.0000 0.27000  0.36000  0.25200  Biso   1.000  H
  H462     1.0000 0.09800  0.32300  0.31900  Biso   1.000  H
  H463     1.0000 0.04600  0.35300  0.32800  Biso   1.000  H
  H464     1.0000 0.09400  0.34200  0.30500  Biso   1.000  H
  H465     1.0000 0.03500  0.28300  0.33800  Biso   1.000  H
  H466     1.0000 0.02600  0.31800  0.29600  Biso   1.000  H
  H467     1.0000 0.00800  0.33000  0.34700  Biso   1.000  H
  H468     1.0000 0.05700  0.40700  0.34900  Biso   1.000  H
  H469     1.0000 0.04300  0.32900  0.33700  Biso   1.000  H
  H470     1.0000 0.09300  0.32000  0.31700  Biso   1.000  H
  H471     1.0000 0.07600  0.44100  0.28200  Biso   1.000  H
  H472     1.0000 0.04000  0.40000  0.27500  Biso   1.000  H
  H473     1.0000 0.09300  0.39300  0.26200  Biso   1.000  H
  H474     1.0000 0.25700  0.37000  0.41500  Biso   1.000  H
  H475     1.0000 0.31600  0.42500  0.43500  Biso   1.000  H
  H476     1.0000 0.30000  0.50400  0.44900  Biso   1.000  H
  H477     1.0000 0.23000  0.52700  0.44100  Biso   1.000  H
  H478     1.0000 0.16900  0.48200  0.42200  Biso   1.000  H
  H479     1.0000 0.25600  0.38700  0.42500  Biso   1.000  H
  H480     1.0000 0.31200  0.45000  0.44100  Biso   1.000  H
  H481     1.0000 0.28800  0.52400  0.45100  Biso   1.000  H
  H482     1.0000 0.20800  0.53900  0.43400  Biso   1.000  H
  H483     1.0000 0.15300  0.47600  0.41400  Biso   1.000  H
  Ni22     1.0000 0.64900  0.13110  0.59730  Biso   1.000  Ni
  O85      1.0000 0.69530  0.16160  0.64070  Biso   1.000  O
  O86      1.0000 0.69730  0.12040  0.70700  Biso   1.000  O
  C358     1.0000 0.71270  0.15200  0.67980  Biso   1.000  C
  C359     1.0000 0.75350  0.18060  0.69420  Biso   1.000  C
  C360     1.0000 0.78010  0.16840  0.73370  Biso   1.000  C
  O87      1.0000 0.59180  0.17270  0.61480  Biso   1.000  O
  O88      1.0000 0.62400  0.09140  0.65380  Biso   1.000  O
  C361     1.0000 0.57560  0.16210  0.66020  Biso   1.000  C
  C362     1.0000 0.58030  0.10830  0.67060  Biso   1.000  C
  C363     1.0000 0.53270  0.18480  0.67070  Biso   1.000  C
  C364     1.0000 0.57130  0.09240  0.71680  Biso   1.000  C
  N43      1.0000 0.70440  0.08480  0.58310  Biso   1.000  N
  C365     1.0000 0.74830  0.09820  0.57960  Biso   1.000  C
  C366     1.0000 0.78430  0.06430  0.56770  Biso   1.000  C
  C367     1.0000 0.77570  0.01800  0.55990  Biso   1.000  C
  C368     1.0000 0.73570  0.00560  0.56420  Biso   1.000  C
  C369     1.0000 0.69900  0.03200  0.57510  Biso   1.000  C
  N44      1.0000 0.70200  0.06700  0.58180  Biso   1.000  N
  C370     1.0000 0.74660  0.08080  0.57390  Biso   1.000  C
  C371     1.0000 0.77940  0.04270  0.56300  Biso   1.000  C
  C372     1.0000 0.76710  0.00050  0.55820  Biso   1.000  C
  C373     1.0000 0.71900  0.99250  0.56770  Biso   1.000  C
  C374     1.0000 0.68540  0.02990  0.57990  Biso   1.000  C
  H484     1.0000 0.77000  0.14000  0.74800  Biso   1.000  H
  H485     1.0000 0.59800  0.17700  0.68100  Biso   1.000  H
  H486     1.0000 0.54600  0.14700  0.67200  Biso   1.000  H
  H487     1.0000 0.59400  0.15800  0.69500  Biso   1.000  H
  H488     1.0000 0.53500  0.21700  0.66200  Biso   1.000  H
  H489     1.0000 0.52600  0.18200  0.70400  Biso   1.000  H
  H490     1.0000 0.50800  0.17000  0.65300  Biso   1.000  H
  H491     1.0000 0.55700  0.09300  0.65100  Biso   1.000  H
  H492     1.0000 0.54300  0.17100  0.66300  Biso   1.000  H
  H493     1.0000 0.59300  0.18000  0.68300  Biso   1.000  H
  H494     1.0000 0.57600  0.05900  0.71800  Biso   1.000  H
  H495     1.0000 0.54000  0.10000  0.72500  Biso   1.000  H
  H496     1.0000 0.59300  0.10700  0.73800  Biso   1.000  H
  H497     1.0000 0.75700  0.13000  0.58500  Biso   1.000  H
  H498     1.0000 0.81600  0.07500  0.56500  Biso   1.000  H
  H499     1.0000 0.80000  0.99600  0.55100  Biso   1.000  H
  H500     1.0000 0.73000  0.97300  0.55900  Biso   1.000  H
  H501     1.0000 0.66900  0.01800  0.57800  Biso   1.000  H
  H502     1.0000 0.75600  0.11300  0.57500  Biso   1.000  H
  H503     1.0000 0.81200  0.05000  0.55900  Biso   1.000  H
  H504     1.0000 0.78800  0.97600  0.54900  Biso   1.000  H
  H505     1.0000 0.70800  0.96100  0.56600  Biso   1.000  H
  H506     1.0000 0.65300  0.02400  0.58600  Biso   1.000  H
  Ni23     1.0000 0.85100  0.86890  0.09730  Biso   1.000  Ni
  O89      1.0000 0.80470  0.83840  0.14070  Biso   1.000  O
  O90      1.0000 0.80270  0.87960  0.20700  Biso   1.000  O
  C375     1.0000 0.78730  0.84800  0.17980  Biso   1.000  C
  C376     1.0000 0.74650  0.81940  0.19420  Biso   1.000  C
  C377     1.0000 0.71990  0.83160  0.23370  Biso   1.000  C
  O91      1.0000 0.90820  0.82730  0.11480  Biso   1.000  O
  O92      1.0000 0.87600  0.90860  0.15380  Biso   1.000  O
  C378     1.0000 0.92440  0.83790  0.16020  Biso   1.000  C
  C379     1.0000 0.91970  0.89170  0.17060  Biso   1.000  C
  C380     1.0000 0.96730  0.81520  0.17070  Biso   1.000  C
  C381     1.0000 0.92870  0.90760  0.21680  Biso   1.000  C
  N45      1.0000 0.79560  0.91520  0.08310  Biso   1.000  N
  C382     1.0000 0.75170  0.90180  0.07960  Biso   1.000  C
  C383     1.0000 0.71570  0.93570  0.06770  Biso   1.000  C
  C384     1.0000 0.72430  0.98200  0.05990  Biso   1.000  C
  C385     1.0000 0.76430  0.99440  0.06420  Biso   1.000  C
  C386     1.0000 0.80100  0.96800  0.07510  Biso   1.000  C
  N46      1.0000 0.79800  0.93300  0.08180  Biso   1.000  N
  C387     1.0000 0.75340  0.91920  0.07390  Biso   1.000  C
  C388     1.0000 0.72060  0.95730  0.06300  Biso   1.000  C
  C389     1.0000 0.73290  0.99950  0.05820  Biso   1.000  C
  C390     1.0000 0.78100  0.00750  0.06770  Biso   1.000  C
  C391     1.0000 0.81460  0.97010  0.07990  Biso   1.000  C
  H507     1.0000 0.73000  0.86000  0.24800  Biso   1.000  H
  H508     1.0000 0.90200  0.82300  0.18100  Biso   1.000  H
  H509     1.0000 0.95400  0.85300  0.17200  Biso   1.000  H
  H510     1.0000 0.90600  0.84200  0.19500  Biso   1.000  H
  H511     1.0000 0.96500  0.78300  0.16200  Biso   1.000  H
  H512     1.0000 0.97400  0.81800  0.20400  Biso   1.000  H
  H513     1.0000 0.99200  0.83000  0.15300  Biso   1.000  H
  H514     1.0000 0.94300  0.90700  0.15100  Biso   1.000  H
  H515     1.0000 0.95700  0.82900  0.16300  Biso   1.000  H
  H516     1.0000 0.90700  0.82000  0.18300  Biso   1.000  H
  H517     1.0000 0.92400  0.94100  0.21800  Biso   1.000  H
  H518     1.0000 0.96000  0.90000  0.22500  Biso   1.000  H
  H519     1.0000 0.90700  0.89300  0.23800  Biso   1.000  H
  H520     1.0000 0.74300  0.87000  0.08500  Biso   1.000  H
  H521     1.0000 0.68400  0.92500  0.06500  Biso   1.000  H
  H522     1.0000 0.70000  0.00400  0.05100  Biso   1.000  H
  H523     1.0000 0.77000  0.02700  0.05900  Biso   1.000  H
  H524     1.0000 0.83100  0.98200  0.07800  Biso   1.000  H
  H525     1.0000 0.74400  0.88700  0.07500  Biso   1.000  H
  H526     1.0000 0.68800  0.95000  0.05900  Biso   1.000  H
  H527     1.0000 0.71200  0.02400  0.04900  Biso   1.000  H
  H528     1.0000 0.79200  0.03900  0.06600  Biso   1.000  H
  H529     1.0000 0.84700  0.97600  0.08600  Biso   1.000  H
  Ni24     1.0000 0.35100  0.63110  0.90270  Biso   1.000  Ni
  O93      1.0000 0.30470  0.66160  0.85930  Biso   1.000  O
  O94      1.0000 0.30270  0.62040  0.79300  Biso   1.000  O
  C392     1.0000 0.28730  0.65200  0.82020  Biso   1.000  C
  C393     1.0000 0.24650  0.68060  0.80580  Biso   1.000  C
  C394     1.0000 0.21990  0.66840  0.76630  Biso   1.000  C
  O95      1.0000 0.40820  0.67270  0.88520  Biso   1.000  O
  O96      1.0000 0.37600  0.59140  0.84620  Biso   1.000  O
  C395     1.0000 0.42440  0.66210  0.83980  Biso   1.000  C
  C396     1.0000 0.41970  0.60830  0.82940  Biso   1.000  C
  C397     1.0000 0.46730  0.68480  0.82930  Biso   1.000  C
  C398     1.0000 0.42870  0.59240  0.78320  Biso   1.000  C
  N47      1.0000 0.29560  0.58480  0.91690  Biso   1.000  N
  C399     1.0000 0.25170  0.59820  0.92040  Biso   1.000  C
  C400     1.0000 0.21570  0.56430  0.93230  Biso   1.000  C
  C401     1.0000 0.22430  0.51800  0.94010  Biso   1.000  C
  C402     1.0000 0.26430  0.50560  0.93580  Biso   1.000  C
  C403     1.0000 0.30100  0.53200  0.92490  Biso   1.000  C
  N48      1.0000 0.29800  0.56700  0.91820  Biso   1.000  N
  C404     1.0000 0.25340  0.58080  0.92610  Biso   1.000  C
  C405     1.0000 0.22060  0.54270  0.93700  Biso   1.000  C
  C406     1.0000 0.23290  0.50050  0.94180  Biso   1.000  C
  C407     1.0000 0.28100  0.49250  0.93230  Biso   1.000  C
  C408     1.0000 0.31460  0.52990  0.92010  Biso   1.000  C
  H530     1.0000 0.23000  0.64000  0.75200  Biso   1.000  H
  H531     1.0000 0.40200  0.67700  0.81900  Biso   1.000  H
  H532     1.0000 0.45400  0.64700  0.82800  Biso   1.000  H
  H533     1.0000 0.40600  0.65800  0.80500  Biso   1.000  H
  H534     1.0000 0.46500  0.71700  0.83800  Biso   1.000  H
  H535     1.0000 0.47400  0.68200  0.79600  Biso   1.000  H
  H536     1.0000 0.49200  0.67000  0.84700  Biso   1.000  H
  H537     1.0000 0.44300  0.59300  0.84900  Biso   1.000  H
  H538     1.0000 0.45700  0.67100  0.83700  Biso   1.000  H
  H539     1.0000 0.40700  0.68000  0.81700  Biso   1.000  H
  H540     1.0000 0.42400  0.55900  0.78200  Biso   1.000  H
  H541     1.0000 0.46000  0.60000  0.77500  Biso   1.000  H
  H542     1.0000 0.40700  0.60700  0.76200  Biso   1.000  H
  H543     1.0000 0.24300  0.63000  0.91500  Biso   1.000  H
  H544     1.0000 0.18400  0.57500  0.93500  Biso   1.000  H
  H545     1.0000 0.20000  0.49600  0.94900  Biso   1.000  H
  H546     1.0000 0.27000  0.47300  0.94100  Biso   1.000  H
  H547     1.0000 0.33100  0.51800  0.92200  Biso   1.000  H
  H548     1.0000 0.24400  0.61300  0.92500  Biso   1.000  H
  H549     1.0000 0.18800  0.55000  0.94100  Biso   1.000  H
  H550     1.0000 0.21200  0.47600  0.95100  Biso   1.000  H
  H551     1.0000 0.29200  0.46100  0.93400  Biso   1.000  H
  H552     1.0000 0.34700  0.52400  0.91400  Biso   1.000  H
  Ni25     1.0000 0.84730  0.11890  0.39900  Biso   1.000  Ni
  O97      1.0000 0.89070  0.08840  0.44530  Biso   1.000  O
  O98      1.0000 0.95700  0.12960  0.44730  Biso   1.000  O
  C409     1.0000 0.92980  0.09800  0.46270  Biso   1.000  C
  C410     1.0000 0.94420  0.06940  0.50350  Biso   1.000  C
  C411     1.0000 0.98370  0.08160  0.53010  Biso   1.000  C
  O99      1.0000 0.86480  0.07730  0.34180  Biso   1.000  O
  O100     1.0000 0.90380  0.15860  0.37400  Biso   1.000  O
  C412     1.0000 0.91020  0.08790  0.32560  Biso   1.000  C
  C413     1.0000 0.92060  0.14170  0.33030  Biso   1.000  C
  C414     1.0000 0.92070  0.06520  0.28270  Biso   1.000  C
  C415     1.0000 0.96680  0.15760  0.32130  Biso   1.000  C
  N49      1.0000 0.83310  0.16520  0.45440  Biso   1.000  N
  C416     1.0000 0.82960  0.15180  0.49830  Biso   1.000  C
  C417     1.0000 0.81770  0.18570  0.53430  Biso   1.000  C
  C418     1.0000 0.80990  0.23200  0.52570  Biso   1.000  C
  C419     1.0000 0.81420  0.24440  0.48570  Biso   1.000  C
  C420     1.0000 0.82510  0.21800  0.44900  Biso   1.000  C
  N50      1.0000 0.83180  0.18300  0.45200  Biso   1.000  N
  C421     1.0000 0.82390  0.16920  0.49660  Biso   1.000  C
  C422     1.0000 0.81300  0.20730  0.52940  Biso   1.000  C
  C423     1.0000 0.80820  0.24950  0.51710  Biso   1.000  C
  C424     1.0000 0.81770  0.25750  0.46900  Biso   1.000  C
  C425     1.0000 0.82990  0.22010  0.43540  Biso   1.000  C
  H553     1.0000 0.99800  0.11000  0.52000  Biso   1.000  H
  H554     1.0000 0.93100  0.07300  0.34800  Biso   1.000  H
  H555     1.0000 0.92200  0.10300  0.29600  Biso   1.000  H
  H556     1.0000 0.94500  0.09200  0.34400  Biso   1.000  H
  H557     1.0000 0.91200  0.03300  0.28500  Biso   1.000  H
  H558     1.0000 0.95400  0.06800  0.27600  Biso   1.000  H
  H559     1.0000 0.90300  0.08000  0.25800  Biso   1.000  H
  H560     1.0000 0.90100  0.15700  0.30700  Biso   1.000  H
  H561     1.0000 0.91300  0.07900  0.29300  Biso   1.000  H
  H562     1.0000 0.93300  0.07000  0.34300  Biso   1.000  H
  H563     1.0000 0.96800  0.19100  0.32600  Biso   1.000  H
  H564     1.0000 0.97500  0.15000  0.29000  Biso   1.000  H
  H565     1.0000 0.98800  0.14300  0.34300  Biso   1.000  H
  H566     1.0000 0.83500  0.12000  0.50700  Biso   1.000  H
  H567     1.0000 0.81500  0.17500  0.56600  Biso   1.000  H
  H568     1.0000 0.80100  0.25400  0.55000  Biso   1.000  H
  H569     1.0000 0.80900  0.27700  0.48000  Biso   1.000  H
  H570     1.0000 0.82800  0.23200  0.41900  Biso   1.000  H
  H571     1.0000 0.82500  0.13700  0.50600  Biso   1.000  H
  H572     1.0000 0.80900  0.20000  0.56200  Biso   1.000  H
  H573     1.0000 0.79900  0.27400  0.53800  Biso   1.000  H
  H574     1.0000 0.81600  0.28900  0.45800  Biso   1.000  H
  H575     1.0000 0.83600  0.22600  0.40300  Biso   1.000  H
  Ni26     1.0000 0.65270  0.88110  0.89900  Biso   1.000  Ni
  O101     1.0000 0.60930  0.91160  0.94530  Biso   1.000  O
  O102     1.0000 0.54300  0.87040  0.94730  Biso   1.000  O
  C426     1.0000 0.57020  0.90200  0.96270  Biso   1.000  C
  C427     1.0000 0.55580  0.93060  0.00350  Biso   1.000  C
  C428     1.0000 0.51630  0.91840  0.03010  Biso   1.000  C
  O103     1.0000 0.63520  0.92270  0.84180  Biso   1.000  O
  O104     1.0000 0.59620  0.84140  0.87400  Biso   1.000  O
  C429     1.0000 0.58980  0.91210  0.82560  Biso   1.000  C
  C430     1.0000 0.57940  0.85830  0.83030  Biso   1.000  C
  C431     1.0000 0.57930  0.93480  0.78270  Biso   1.000  C
  C432     1.0000 0.53320  0.84240  0.82130  Biso   1.000  C
  N51      1.0000 0.66690  0.83480  0.95440  Biso   1.000  N
  C433     1.0000 0.67040  0.84820  0.99830  Biso   1.000  C
  C434     1.0000 0.68230  0.81430  0.03430  Biso   1.000  C
  C435     1.0000 0.69010  0.76800  0.02570  Biso   1.000  C
  C436     1.0000 0.68580  0.75560  0.98570  Biso   1.000  C
  C437     1.0000 0.67490  0.78200  0.94900  Biso   1.000  C
  N52      1.0000 0.66820  0.81700  0.95200  Biso   1.000  N
  C438     1.0000 0.67610  0.83080  0.99660  Biso   1.000  C
  C439     1.0000 0.68700  0.79270  0.02940  Biso   1.000  C
  C440     1.0000 0.69180  0.75050  0.01710  Biso   1.000  C
  C441     1.0000 0.68230  0.74250  0.96900  Biso   1.000  C
  C442     1.0000 0.67010  0.77990  0.93540  Biso   1.000  C
  H576     1.0000 0.50200  0.89000  0.02000  Biso   1.000  H
  H577     1.0000 0.56900  0.92700  0.84800  Biso   1.000  H
  H578     1.0000 0.57800  0.89700  0.79600  Biso   1.000  H
  H579     1.0000 0.55500  0.90800  0.84400  Biso   1.000  H
  H580     1.0000 0.58800  0.96700  0.78500  Biso   1.000  H
  H581     1.0000 0.54600  0.93200  0.77600  Biso   1.000  H
  H582     1.0000 0.59700  0.92000  0.75800  Biso   1.000  H
  H583     1.0000 0.59900  0.84300  0.80700  Biso   1.000  H
  H584     1.0000 0.58700  0.92100  0.79300  Biso   1.000  H
  H585     1.0000 0.56700  0.93000  0.84300  Biso   1.000  H
  H586     1.0000 0.53200  0.80900  0.82600  Biso   1.000  H
  H587     1.0000 0.52500  0.85000  0.79000  Biso   1.000  H
  H588     1.0000 0.51200  0.85700  0.84300  Biso   1.000  H
  H589     1.0000 0.66500  0.88000  0.00700  Biso   1.000  H
  H590     1.0000 0.68500  0.82500  0.06600  Biso   1.000  H
  H591     1.0000 0.69900  0.74600  0.05000  Biso   1.000  H
  H592     1.0000 0.69100  0.72300  0.98000  Biso   1.000  H
  H593     1.0000 0.67200  0.76800  0.91900  Biso   1.000  H
  H594     1.0000 0.67500  0.86300  0.00600  Biso   1.000  H
  H595     1.0000 0.69100  0.80000  0.06200  Biso   1.000  H
  H596     1.0000 0.70100  0.72600  0.03800  Biso   1.000  H
  H597     1.0000 0.68400  0.71100  0.95800  Biso   1.000  H
  H598     1.0000 0.66400  0.77400  0.90300  Biso   1.000  H
  Ni27     1.0000 0.15270  0.61890  0.10100  Biso   1.000  Ni
  O105     1.0000 0.10930  0.58840  0.05470  Biso   1.000  O
  O106     1.0000 0.04300  0.62960  0.05270  Biso   1.000  O
  C443     1.0000 0.07020  0.59800  0.03730  Biso   1.000  C
  C444     1.0000 0.05580  0.56940  0.99650  Biso   1.000  C
  C445     1.0000 0.01630  0.58160  0.96990  Biso   1.000  C
  O107     1.0000 0.13520  0.57730  0.15820  Biso   1.000  O
  O108     1.0000 0.09620  0.65860  0.12600  Biso   1.000  O
  C446     1.0000 0.08980  0.58790  0.17440  Biso   1.000  C
  C447     1.0000 0.07940  0.64170  0.16970  Biso   1.000  C
  C448     1.0000 0.07930  0.56520  0.21730  Biso   1.000  C
  C449     1.0000 0.03320  0.65760  0.17870  Biso   1.000  C
  N53      1.0000 0.16690  0.66520  0.04560  Biso   1.000  N
  C450     1.0000 0.17040  0.65180  0.00170  Biso   1.000  C
  C451     1.0000 0.18230  0.68570  0.96570  Biso   1.000  C
  C452     1.0000 0.19010  0.73200  0.97430  Biso   1.000  C
  C453     1.0000 0.18580  0.74440  0.01430  Biso   1.000  C
  C454     1.0000 0.17490  0.71800  0.05100  Biso   1.000  C
  N54      1.0000 0.16820  0.68300  0.04800  Biso   1.000  N
  C455     1.0000 0.17610  0.66920  0.00340  Biso   1.000  C
  C456     1.0000 0.18700  0.70730  0.97060  Biso   1.000  C
  C457     1.0000 0.19180  0.74950  0.98290  Biso   1.000  C
  C458     1.0000 0.18230  0.75750  0.03100  Biso   1.000  C
  C459     1.0000 0.17010  0.72010  0.06460  Biso   1.000  C
  H599     1.0000 0.00200  0.61000  0.98000  Biso   1.000  H
  H600     1.0000 0.06900  0.57300  0.15200  Biso   1.000  H
  H601     1.0000 0.07800  0.60300  0.20400  Biso   1.000  H
  H602     1.0000 0.05500  0.59200  0.15600  Biso   1.000  H
  H603     1.0000 0.08800  0.53300  0.21500  Biso   1.000  H
  H604     1.0000 0.04600  0.56800  0.22400  Biso   1.000  H
  H605     1.0000 0.09700  0.58000  0.24200  Biso   1.000  H
  H606     1.0000 0.09900  0.65700  0.19300  Biso   1.000  H
  H607     1.0000 0.08700  0.57900  0.20700  Biso   1.000  H
  H608     1.0000 0.06700  0.57000  0.15700  Biso   1.000  H
  H609     1.0000 0.03200  0.69100  0.17400  Biso   1.000  H
  H610     1.0000 0.02500  0.65000  0.21000  Biso   1.000  H
  H611     1.0000 0.01200  0.64300  0.15700  Biso   1.000  H
  H612     1.0000 0.16500  0.62000  0.99300  Biso   1.000  H
  H613     1.0000 0.18500  0.67500  0.93400  Biso   1.000  H
  H614     1.0000 0.19900  0.75400  0.95000  Biso   1.000  H
  H615     1.0000 0.19100  0.77700  0.02000  Biso   1.000  H
  H616     1.0000 0.17200  0.73200  0.08100  Biso   1.000  H
  H617     1.0000 0.17500  0.63700  0.99400  Biso   1.000  H
  H618     1.0000 0.19100  0.70000  0.93800  Biso   1.000  H
  H619     1.0000 0.20100  0.77400  0.96200  Biso   1.000  H
  H620     1.0000 0.18400  0.78900  0.04200  Biso   1.000  H
  H621     1.0000 0.16400  0.72600  0.09700  Biso   1.000  H
  Ni28     1.0000 0.34730  0.38110  0.60100  Biso   1.000  Ni
  O109     1.0000 0.39070  0.41160  0.55470  Biso   1.000  O
  O110     1.0000 0.45700  0.37040  0.55270  Biso   1.000  O
  C460     1.0000 0.42980  0.40200  0.53730  Biso   1.000  C
  C461     1.0000 0.44420  0.43060  0.49650  Biso   1.000  C
  C462     1.0000 0.48370  0.41840  0.46990  Biso   1.000  C
  O111     1.0000 0.36480  0.42270  0.65820  Biso   1.000  O
  O112     1.0000 0.40380  0.34140  0.62600  Biso   1.000  O
  C463     1.0000 0.41020  0.41210  0.67440  Biso   1.000  C
  C464     1.0000 0.42060  0.35830  0.66970  Biso   1.000  C
  C465     1.0000 0.42070  0.43480  0.71730  Biso   1.000  C
  C466     1.0000 0.46680  0.34240  0.67870  Biso   1.000  C
  N55      1.0000 0.33310  0.33480  0.54560  Biso   1.000  N
  C467     1.0000 0.32960  0.34820  0.50170  Biso   1.000  C
  C468     1.0000 0.31770  0.31430  0.46570  Biso   1.000  C
  C469     1.0000 0.30990  0.26800  0.47430  Biso   1.000  C
  C470     1.0000 0.31420  0.25560  0.51430  Biso   1.000  C
  C471     1.0000 0.32510  0.28200  0.55100  Biso   1.000  C
  N56      1.0000 0.33180  0.31700  0.54800  Biso   1.000  N
  C472     1.0000 0.32390  0.33080  0.50340  Biso   1.000  C
  C473     1.0000 0.31300  0.29270  0.47060  Biso   1.000  C
  C474     1.0000 0.30820  0.25050  0.48290  Biso   1.000  C
  C475     1.0000 0.31770  0.24250  0.53100  Biso   1.000  C
  C476     1.0000 0.32990  0.27990  0.56460  Biso   1.000  C
  H622     1.0000 0.49800  0.39000  0.48000  Biso   1.000  H
  H623     1.0000 0.43100  0.42700  0.65200  Biso   1.000  H
  H624     1.0000 0.42200  0.39700  0.70400  Biso   1.000  H
  H625     1.0000 0.44500  0.40800  0.65600  Biso   1.000  H
  H626     1.0000 0.41200  0.46700  0.71500  Biso   1.000  H
  H627     1.0000 0.45400  0.43200  0.72400  Biso   1.000  H
  H628     1.0000 0.40300  0.42000  0.74200  Biso   1.000  H
  H629     1.0000 0.40100  0.34300  0.69300  Biso   1.000  H
  H630     1.0000 0.41300  0.42100  0.70700  Biso   1.000  H
  H631     1.0000 0.43300  0.43000  0.65700  Biso   1.000  H
  H632     1.0000 0.46800  0.30900  0.67400  Biso   1.000  H
  H633     1.0000 0.47500  0.35000  0.71000  Biso   1.000  H
  H634     1.0000 0.48800  0.35700  0.65700  Biso   1.000  H
  H635     1.0000 0.33500  0.38000  0.49300  Biso   1.000  H
  H636     1.0000 0.31500  0.32500  0.43400  Biso   1.000  H
  H637     1.0000 0.30100  0.24600  0.45000  Biso   1.000  H
  H638     1.0000 0.30900  0.22300  0.52000  Biso   1.000  H
  H639     1.0000 0.32800  0.26800  0.58100  Biso   1.000  H
  H640     1.0000 0.32500  0.36300  0.49400  Biso   1.000  H
  H641     1.0000 0.30900  0.30000  0.43800  Biso   1.000  H
  H642     1.0000 0.29900  0.22600  0.46200  Biso   1.000  H
  H643     1.0000 0.31600  0.21100  0.54200  Biso   1.000  H
  H644     1.0000 0.33600  0.27400  0.59700  Biso   1.000  H
  Ni29     1.0000 0.39900  0.84730  0.11890  Biso   1.000  Ni
  O113     1.0000 0.44530  0.89070  0.08840  Biso   1.000  O
  O114     1.0000 0.44730  0.95700  0.12960  Biso   1.000  O
  C477     1.0000 0.46270  0.92980  0.09800  Biso   1.000  C
  C478     1.0000 0.50350  0.94420  0.06940  Biso   1.000  C
  C479     1.0000 0.53010  0.98370  0.08160  Biso   1.000  C
  O115     1.0000 0.34180  0.86480  0.07730  Biso   1.000  O
  O116     1.0000 0.37400  0.90380  0.15860  Biso   1.000  O
  C480     1.0000 0.32560  0.91020  0.08790  Biso   1.000  C
  C481     1.0000 0.33030  0.92060  0.14170  Biso   1.000  C
  C482     1.0000 0.28270  0.92070  0.06520  Biso   1.000  C
  C483     1.0000 0.32130  0.96680  0.15760  Biso   1.000  C
  N57      1.0000 0.45440  0.83310  0.16520  Biso   1.000  N
  C484     1.0000 0.49830  0.82960  0.15180  Biso   1.000  C
  C485     1.0000 0.53430  0.81770  0.18570  Biso   1.000  C
  C486     1.0000 0.52570  0.80990  0.23200  Biso   1.000  C
  C487     1.0000 0.48570  0.81420  0.24440  Biso   1.000  C
  C488     1.0000 0.44900  0.82510  0.21800  Biso   1.000  C
  N58      1.0000 0.45200  0.83180  0.18300  Biso   1.000  N
  C489     1.0000 0.49660  0.82390  0.16920  Biso   1.000  C
  C490     1.0000 0.52940  0.81300  0.20730  Biso   1.000  C
  C491     1.0000 0.51710  0.80820  0.24950  Biso   1.000  C
  C492     1.0000 0.46900  0.81770  0.25750  Biso   1.000  C
  C493     1.0000 0.43540  0.82990  0.22010  Biso   1.000  C
  H645     1.0000 0.52000  0.99800  0.11000  Biso   1.000  H
  H646     1.0000 0.34800  0.93100  0.07300  Biso   1.000  H
  H647     1.0000 0.29600  0.92200  0.10300  Biso   1.000  H
  H648     1.0000 0.34400  0.94500  0.09200  Biso   1.000  H
  H649     1.0000 0.28500  0.91200  0.03300  Biso   1.000  H
  H650     1.0000 0.27600  0.95400  0.06800  Biso   1.000  H
  H651     1.0000 0.25800  0.90300  0.08000  Biso   1.000  H
  H652     1.0000 0.30700  0.90100  0.15700  Biso   1.000  H
  H653     1.0000 0.29300  0.91300  0.07900  Biso   1.000  H
  H654     1.0000 0.34300  0.93300  0.07000  Biso   1.000  H
  H655     1.0000 0.32600  0.96800  0.19100  Biso   1.000  H
  H656     1.0000 0.29000  0.97500  0.15000  Biso   1.000  H
  H657     1.0000 0.34300  0.98800  0.14300  Biso   1.000  H
  H658     1.0000 0.50700  0.83500  0.12000  Biso   1.000  H
  H659     1.0000 0.56600  0.81500  0.17500  Biso   1.000  H
  H660     1.0000 0.55000  0.80100  0.25400  Biso   1.000  H
  H661     1.0000 0.48000  0.80900  0.27700  Biso   1.000  H
  H662     1.0000 0.41900  0.82800  0.23200  Biso   1.000  H
  H663     1.0000 0.50600  0.82500  0.13700  Biso   1.000  H
  H664     1.0000 0.56200  0.80900  0.20000  Biso   1.000  H
  H665     1.0000 0.53800  0.79900  0.27400  Biso   1.000  H
  H666     1.0000 0.45800  0.81600  0.28900  Biso   1.000  H
  H667     1.0000 0.40300  0.83600  0.22600  Biso   1.000  H
  Ni30     1.0000 0.89900  0.65270  0.88110  Biso   1.000  Ni
  O117     1.0000 0.94530  0.60930  0.91160  Biso   1.000  O
  O118     1.0000 0.94730  0.54300  0.87040  Biso   1.000  O
  C494     1.0000 0.96270  0.57020  0.90200  Biso   1.000  C
  C495     1.0000 0.00350  0.55580  0.93060  Biso   1.000  C
  C496     1.0000 0.03010  0.51630  0.91840  Biso   1.000  C
  O119     1.0000 0.84180  0.63520  0.92270  Biso   1.000  O
  O120     1.0000 0.87400  0.59620  0.84140  Biso   1.000  O
  C497     1.0000 0.82560  0.58980  0.91210  Biso   1.000  C
  C498     1.0000 0.83030  0.57940  0.85830  Biso   1.000  C
  C499     1.0000 0.78270  0.57930  0.93480  Biso   1.000  C
  C500     1.0000 0.82130  0.53320  0.84240  Biso   1.000  C
  N59      1.0000 0.95440  0.66690  0.83480  Biso   1.000  N
  C501     1.0000 0.99830  0.67040  0.84820  Biso   1.000  C
  C502     1.0000 0.03430  0.68230  0.81430  Biso   1.000  C
  C503     1.0000 0.02570  0.69010  0.76800  Biso   1.000  C
  C504     1.0000 0.98570  0.68580  0.75560  Biso   1.000  C
  C505     1.0000 0.94900  0.67490  0.78200  Biso   1.000  C
  N60      1.0000 0.95200  0.66820  0.81700  Biso   1.000  N
  C506     1.0000 0.99660  0.67610  0.83080  Biso   1.000  C
  C507     1.0000 0.02940  0.68700  0.79270  Biso   1.000  C
  C508     1.0000 0.01710  0.69180  0.75050  Biso   1.000  C
  C509     1.0000 0.96900  0.68230  0.74250  Biso   1.000  C
  C510     1.0000 0.93540  0.67010  0.77990  Biso   1.000  C
  H668     1.0000 0.02000  0.50200  0.89000  Biso   1.000  H
  H669     1.0000 0.84800  0.56900  0.92700  Biso   1.000  H
  H670     1.0000 0.79600  0.57800  0.89700  Biso   1.000  H
  H671     1.0000 0.84400  0.55500  0.90800  Biso   1.000  H
  H672     1.0000 0.78500  0.58800  0.96700  Biso   1.000  H
  H673     1.0000 0.77600  0.54600  0.93200  Biso   1.000  H
  H674     1.0000 0.75800  0.59700  0.92000  Biso   1.000  H
  H675     1.0000 0.80700  0.59900  0.84300  Biso   1.000  H
  H676     1.0000 0.79300  0.58700  0.92100  Biso   1.000  H
  H677     1.0000 0.84300  0.56700  0.93000  Biso   1.000  H
  H678     1.0000 0.82600  0.53200  0.80900  Biso   1.000  H
  H679     1.0000 0.79000  0.52500  0.85000  Biso   1.000  H
  H680     1.0000 0.84300  0.51200  0.85700  Biso   1.000  H
  H681     1.0000 0.00700  0.66500  0.88000  Biso   1.000  H
  H682     1.0000 0.06600  0.68500  0.82500  Biso   1.000  H
  H683     1.0000 0.05000  0.69900  0.74600  Biso   1.000  H
  H684     1.0000 0.98000  0.69100  0.72300  Biso   1.000  H
  H685     1.0000 0.91900  0.67200  0.76800  Biso   1.000  H
  H686     1.0000 0.00600  0.67500  0.86300  Biso   1.000  H
  H687     1.0000 0.06200  0.69100  0.80000  Biso   1.000  H
  H688     1.0000 0.03800  0.70100  0.72600  Biso   1.000  H
  H689     1.0000 0.95800  0.68400  0.71100  Biso   1.000  H
  H690     1.0000 0.90300  0.66400  0.77400  Biso   1.000  H
  Ni31     1.0000 0.10100  0.15270  0.61890  Biso   1.000  Ni
  O121     1.0000 0.05470  0.10930  0.58840  Biso   1.000  O
  O122     1.0000 0.05270  0.04300  0.62960  Biso   1.000  O
  C511     1.0000 0.03730  0.07020  0.59800  Biso   1.000  C
  C512     1.0000 0.99650  0.05580  0.56940  Biso   1.000  C
  C513     1.0000 0.96990  0.01630  0.58160  Biso   1.000  C
  O123     1.0000 0.15820  0.13520  0.57730  Biso   1.000  O
  O124     1.0000 0.12600  0.09620  0.65860  Biso   1.000  O
  C514     1.0000 0.17440  0.08980  0.58790  Biso   1.000  C
  C515     1.0000 0.16970  0.07940  0.64170  Biso   1.000  C
  C516     1.0000 0.21730  0.07930  0.56520  Biso   1.000  C
  C517     1.0000 0.17870  0.03320  0.65760  Biso   1.000  C
  N61      1.0000 0.04560  0.16690  0.66520  Biso   1.000  N
  C518     1.0000 0.00170  0.17040  0.65180  Biso   1.000  C
  C519     1.0000 0.96570  0.18230  0.68570  Biso   1.000  C
  C520     1.0000 0.97430  0.19010  0.73200  Biso   1.000  C
  C521     1.0000 0.01430  0.18580  0.74440  Biso   1.000  C
  C522     1.0000 0.05100  0.17490  0.71800  Biso   1.000  C
  N62      1.0000 0.04800  0.16820  0.68300  Biso   1.000  N
  C523     1.0000 0.00340  0.17610  0.66920  Biso   1.000  C
  C524     1.0000 0.97060  0.18700  0.70730  Biso   1.000  C
  C525     1.0000 0.98290  0.19180  0.74950  Biso   1.000  C
  C526     1.0000 0.03100  0.18230  0.75750  Biso   1.000  C
  C527     1.0000 0.06460  0.17010  0.72010  Biso   1.000  C
  H691     1.0000 0.98000  0.00200  0.61000  Biso   1.000  H
  H692     1.0000 0.15200  0.06900  0.57300  Biso   1.000  H
  H693     1.0000 0.20400  0.07800  0.60300  Biso   1.000  H
  H694     1.0000 0.15600  0.05500  0.59200  Biso   1.000  H
  H695     1.0000 0.21500  0.08800  0.53300  Biso   1.000  H
  H696     1.0000 0.22400  0.04600  0.56800  Biso   1.000  H
  H697     1.0000 0.24200  0.09700  0.58000  Biso   1.000  H
  H698     1.0000 0.19300  0.09900  0.65700  Biso   1.000  H
  H699     1.0000 0.20700  0.08700  0.57900  Biso   1.000  H
  H700     1.0000 0.15700  0.06700  0.57000  Biso   1.000  H
  H701     1.0000 0.17400  0.03200  0.69100  Biso   1.000  H
  H702     1.0000 0.21000  0.02500  0.65000  Biso   1.000  H
  H703     1.0000 0.15700  0.01200  0.64300  Biso   1.000  H
  H704     1.0000 0.99300  0.16500  0.62000  Biso   1.000  H
  H705     1.0000 0.93400  0.18500  0.67500  Biso   1.000  H
  H706     1.0000 0.95000  0.19900  0.75400  Biso   1.000  H
  H707     1.0000 0.02000  0.19100  0.77700  Biso   1.000  H
  H708     1.0000 0.08100  0.17200  0.73200  Biso   1.000  H
  H709     1.0000 0.99400  0.17500  0.63700  Biso   1.000  H
  H710     1.0000 0.93800  0.19100  0.70000  Biso   1.000  H
  H711     1.0000 0.96200  0.20100  0.77400  Biso   1.000  H
  H712     1.0000 0.04200  0.18400  0.78900  Biso   1.000  H
  H713     1.0000 0.09700  0.16400  0.72600  Biso   1.000  H
  Ni32     1.0000 0.60100  0.34730  0.38110  Biso   1.000  Ni
  O125     1.0000 0.55470  0.39070  0.41160  Biso   1.000  O
  O126     1.0000 0.55270  0.45700  0.37040  Biso   1.000  O
  C528     1.0000 0.53730  0.42980  0.40200  Biso   1.000  C
  C529     1.0000 0.49650  0.44420  0.43060  Biso   1.000  C
  C530     1.0000 0.46990  0.48370  0.41840  Biso   1.000  C
  O127     1.0000 0.65820  0.36480  0.42270  Biso   1.000  O
  O128     1.0000 0.62600  0.40380  0.34140  Biso   1.000  O
  C531     1.0000 0.67440  0.41020  0.41210  Biso   1.000  C
  C532     1.0000 0.66970  0.42060  0.35830  Biso   1.000  C
  C533     1.0000 0.71730  0.42070  0.43480  Biso   1.000  C
  C534     1.0000 0.67870  0.46680  0.34240  Biso   1.000  C
  N63      1.0000 0.54560  0.33310  0.33480  Biso   1.000  N
  C535     1.0000 0.50170  0.32960  0.34820  Biso   1.000  C
  C536     1.0000 0.46570  0.31770  0.31430  Biso   1.000  C
  C537     1.0000 0.47430  0.30990  0.26800  Biso   1.000  C
  C538     1.0000 0.51430  0.31420  0.25560  Biso   1.000  C
  C539     1.0000 0.55100  0.32510  0.28200  Biso   1.000  C
  N64      1.0000 0.54800  0.33180  0.31700  Biso   1.000  N
  C540     1.0000 0.50340  0.32390  0.33080  Biso   1.000  C
  C541     1.0000 0.47060  0.31300  0.29270  Biso   1.000  C
  C542     1.0000 0.48290  0.30820  0.25050  Biso   1.000  C
  C543     1.0000 0.53100  0.31770  0.24250  Biso   1.000  C
  C544     1.0000 0.56460  0.32990  0.27990  Biso   1.000  C
  H714     1.0000 0.48000  0.49800  0.39000  Biso   1.000  H
  H715     1.0000 0.65200  0.43100  0.42700  Biso   1.000  H
  H716     1.0000 0.70400  0.42200  0.39700  Biso   1.000  H
  H717     1.0000 0.65600  0.44500  0.40800  Biso   1.000  H
  H718     1.0000 0.71500  0.41200  0.46700  Biso   1.000  H
  H719     1.0000 0.72400  0.45400  0.43200  Biso   1.000  H
  H720     1.0000 0.74200  0.40300  0.42000  Biso   1.000  H
  H721     1.0000 0.69300  0.40100  0.34300  Biso   1.000  H
  H722     1.0000 0.70700  0.41300  0.42100  Biso   1.000  H
  H723     1.0000 0.65700  0.43300  0.43000  Biso   1.000  H
  H724     1.0000 0.67400  0.46800  0.30900  Biso   1.000  H
  H725     1.0000 0.71000  0.47500  0.35000  Biso   1.000  H
  H726     1.0000 0.65700  0.48800  0.35700  Biso   1.000  H
  H727     1.0000 0.49300  0.33500  0.38000  Biso   1.000  H
  H728     1.0000 0.43400  0.31500  0.32500  Biso   1.000  H
  H729     1.0000 0.45000  0.30100  0.24600  Biso   1.000  H
  H730     1.0000 0.52000  0.30900  0.22300  Biso   1.000  H
  H731     1.0000 0.58100  0.32800  0.26800  Biso   1.000  H
  H732     1.0000 0.49400  0.32500  0.36300  Biso   1.000  H
  H733     1.0000 0.43800  0.30900  0.30000  Biso   1.000  H
  H734     1.0000 0.46200  0.29900  0.22600  Biso   1.000  H
  H735     1.0000 0.54200  0.31600  0.21100  Biso   1.000  H
  H736     1.0000 0.59700  0.33600  0.27400  Biso   1.000  H
  Ni33     1.0000 0.11890  0.39900  0.84730  Biso   1.000  Ni
  O129     1.0000 0.08840  0.44530  0.89070  Biso   1.000  O
  O130     1.0000 0.12960  0.44730  0.95700  Biso   1.000  O
  C545     1.0000 0.09800  0.46270  0.92980  Biso   1.000  C
  C546     1.0000 0.06940  0.50350  0.94420  Biso   1.000  C
  C547     1.0000 0.08160  0.53010  0.98370  Biso   1.000  C
  O131     1.0000 0.07730  0.34180  0.86480  Biso   1.000  O
  O132     1.0000 0.15860  0.37400  0.90380  Biso   1.000  O
  C548     1.0000 0.08790  0.32560  0.91020  Biso   1.000  C
  C549     1.0000 0.14170  0.33030  0.92060  Biso   1.000  C
  C550     1.0000 0.06520  0.28270  0.92070  Biso   1.000  C
  C551     1.0000 0.15760  0.32130  0.96680  Biso   1.000  C
  N65      1.0000 0.16520  0.45440  0.83310  Biso   1.000  N
  C552     1.0000 0.15180  0.49830  0.82960  Biso   1.000  C
  C553     1.0000 0.18570  0.53430  0.81770  Biso   1.000  C
  C554     1.0000 0.23200  0.52570  0.80990  Biso   1.000  C
  C555     1.0000 0.24440  0.48570  0.81420  Biso   1.000  C
  C556     1.0000 0.21800  0.44900  0.82510  Biso   1.000  C
  N66      1.0000 0.18300  0.45200  0.83180  Biso   1.000  N
  C557     1.0000 0.16920  0.49660  0.82390  Biso   1.000  C
  C558     1.0000 0.20730  0.52940  0.81300  Biso   1.000  C
  C559     1.0000 0.24950  0.51710  0.80820  Biso   1.000  C
  C560     1.0000 0.25750  0.46900  0.81770  Biso   1.000  C
  C561     1.0000 0.22010  0.43540  0.82990  Biso   1.000  C
  H737     1.0000 0.11000  0.52000  0.99800  Biso   1.000  H
  H738     1.0000 0.07300  0.34800  0.93100  Biso   1.000  H
  H739     1.0000 0.10300  0.29600  0.92200  Biso   1.000  H
  H740     1.0000 0.09200  0.34400  0.94500  Biso   1.000  H
  H741     1.0000 0.03300  0.28500  0.91200  Biso   1.000  H
  H742     1.0000 0.06800  0.27600  0.95400  Biso   1.000  H
  H743     1.0000 0.08000  0.25800  0.90300  Biso   1.000  H
  H744     1.0000 0.15700  0.30700  0.90100  Biso   1.000  H
  H745     1.0000 0.07900  0.29300  0.91300  Biso   1.000  H
  H746     1.0000 0.07000  0.34300  0.93300  Biso   1.000  H
  H747     1.0000 0.19100  0.32600  0.96800  Biso   1.000  H
  H748     1.0000 0.15000  0.29000  0.97500  Biso   1.000  H
  H749     1.0000 0.14300  0.34300  0.98800  Biso   1.000  H
  H750     1.0000 0.12000  0.50700  0.83500  Biso   1.000  H
  H751     1.0000 0.17500  0.56600  0.81500  Biso   1.000  H
  H752     1.0000 0.25400  0.55000  0.80100  Biso   1.000  H
  H753     1.0000 0.27700  0.48000  0.80900  Biso   1.000  H
  H754     1.0000 0.23200  0.41900  0.82800  Biso   1.000  H
  H755     1.0000 0.13700  0.50600  0.82500  Biso   1.000  H
  H756     1.0000 0.20000  0.56200  0.80900  Biso   1.000  H
  H757     1.0000 0.27400  0.53800  0.79900  Biso   1.000  H
  H758     1.0000 0.28900  0.45800  0.81600  Biso   1.000  H
  H759     1.0000 0.22600  0.40300  0.83600  Biso   1.000  H
  Ni34     1.0000 0.88110  0.89900  0.65270  Biso   1.000  Ni
  O133     1.0000 0.91160  0.94530  0.60930  Biso   1.000  O
  O134     1.0000 0.87040  0.94730  0.54300  Biso   1.000  O
  C562     1.0000 0.90200  0.96270  0.57020  Biso   1.000  C
  C563     1.0000 0.93060  0.00350  0.55580  Biso   1.000  C
  C564     1.0000 0.91840  0.03010  0.51630  Biso   1.000  C
  O135     1.0000 0.92270  0.84180  0.63520  Biso   1.000  O
  O136     1.0000 0.84140  0.87400  0.59620  Biso   1.000  O
  C565     1.0000 0.91210  0.82560  0.58980  Biso   1.000  C
  C566     1.0000 0.85830  0.83030  0.57940  Biso   1.000  C
  C567     1.0000 0.93480  0.78270  0.57930  Biso   1.000  C
  C568     1.0000 0.84240  0.82130  0.53320  Biso   1.000  C
  N67      1.0000 0.83480  0.95440  0.66690  Biso   1.000  N
  C569     1.0000 0.84820  0.99830  0.67040  Biso   1.000  C
  C570     1.0000 0.81430  0.03430  0.68230  Biso   1.000  C
  C571     1.0000 0.76800  0.02570  0.69010  Biso   1.000  C
  C572     1.0000 0.75560  0.98570  0.68580  Biso   1.000  C
  C573     1.0000 0.78200  0.94900  0.67490  Biso   1.000  C
  N68      1.0000 0.81700  0.95200  0.66820  Biso   1.000  N
  C574     1.0000 0.83080  0.99660  0.67610  Biso   1.000  C
  C575     1.0000 0.79270  0.02940  0.68700  Biso   1.000  C
  C576     1.0000 0.75050  0.01710  0.69180  Biso   1.000  C
  C577     1.0000 0.74250  0.96900  0.68230  Biso   1.000  C
  C578     1.0000 0.77990  0.93540  0.67010  Biso   1.000  C
  H760     1.0000 0.89000  0.02000  0.50200  Biso   1.000  H
  H761     1.0000 0.92700  0.84800  0.56900  Biso   1.000  H
  H762     1.0000 0.89700  0.79600  0.57800  Biso   1.000  H
  H763     1.0000 0.90800  0.84400  0.55500  Biso   1.000  H
  H764     1.0000 0.96700  0.78500  0.58800  Biso   1.000  H
  H765     1.0000 0.93200  0.77600  0.54600  Biso   1.000  H
  H766     1.0000 0.92000  0.75800  0.59700  Biso   1.000  H
  H767     1.0000 0.84300  0.80700  0.59900  Biso   1.000  H
  H768     1.0000 0.92100  0.79300  0.58700  Biso   1.000  H
  H769     1.0000 0.93000  0.84300  0.56700  Biso   1.000  H
  H770     1.0000 0.80900  0.82600  0.53200  Biso   1.000  H
  H771     1.0000 0.85000  0.79000  0.52500  Biso   1.000  H
  H772     1.0000 0.85700  0.84300  0.51200  Biso   1.000  H
  H773     1.0000 0.88000  0.00700  0.66500  Biso   1.000  H
  H774     1.0000 0.82500  0.06600  0.68500  Biso   1.000  H
  H775     1.0000 0.74600  0.05000  0.69900  Biso   1.000  H
  H776     1.0000 0.72300  0.98000  0.69100  Biso   1.000  H
  H777     1.0000 0.76800  0.91900  0.67200  Biso   1.000  H
  H778     1.0000 0.86300  0.00600  0.67500  Biso   1.000  H
  H779     1.0000 0.80000  0.06200  0.69100  Biso   1.000  H
  H780     1.0000 0.72600  0.03800  0.70100  Biso   1.000  H
  H781     1.0000 0.71100  0.95800  0.68400  Biso   1.000  H
  H782     1.0000 0.77400  0.90300  0.66400  Biso   1.000  H
  Ni35     1.0000 0.61890  0.10100  0.15270  Biso   1.000  Ni
  O137     1.0000 0.58840  0.05470  0.10930  Biso   1.000  O
  O138     1.0000 0.62960  0.05270  0.04300  Biso   1.000  O
  C579     1.0000 0.59800  0.03730  0.07020  Biso   1.000  C
  C580     1.0000 0.56940  0.99650  0.05580  Biso   1.000  C
  C581     1.0000 0.58160  0.96990  0.01630  Biso   1.000  C
  O139     1.0000 0.57730  0.15820  0.13520  Biso   1.000  O
  O140     1.0000 0.65860  0.12600  0.09620  Biso   1.000  O
  C582     1.0000 0.58790  0.17440  0.08980  Biso   1.000  C
  C583     1.0000 0.64170  0.16970  0.07940  Biso   1.000  C
  C584     1.0000 0.56520  0.21730  0.07930  Biso   1.000  C
  C585     1.0000 0.65760  0.17870  0.03320  Biso   1.000  C
  N69      1.0000 0.66520  0.04560  0.16690  Biso   1.000  N
  C586     1.0000 0.65180  0.00170  0.17040  Biso   1.000  C
  C587     1.0000 0.68570  0.96570  0.18230  Biso   1.000  C
  C588     1.0000 0.73200  0.97430  0.19010  Biso   1.000  C
  C589     1.0000 0.74440  0.01430  0.18580  Biso   1.000  C
  C590     1.0000 0.71800  0.05100  0.17490  Biso   1.000  C
  N70      1.0000 0.68300  0.04800  0.16820  Biso   1.000  N
  C591     1.0000 0.66920  0.00340  0.17610  Biso   1.000  C
  C592     1.0000 0.70730  0.97060  0.18700  Biso   1.000  C
  C593     1.0000 0.74950  0.98290  0.19180  Biso   1.000  C
  C594     1.0000 0.75750  0.03100  0.18230  Biso   1.000  C
  C595     1.0000 0.72010  0.06460  0.17010  Biso   1.000  C
  H783     1.0000 0.61000  0.98000  0.00200  Biso   1.000  H
  H784     1.0000 0.57300  0.15200  0.06900  Biso   1.000  H
  H785     1.0000 0.60300  0.20400  0.07800  Biso   1.000  H
  H786     1.0000 0.59200  0.15600  0.05500  Biso   1.000  H
  H787     1.0000 0.53300  0.21500  0.08800  Biso   1.000  H
  H788     1.0000 0.56800  0.22400  0.04600  Biso   1.000  H
  H789     1.0000 0.58000  0.24200  0.09700  Biso   1.000  H
  H790     1.0000 0.65700  0.19300  0.09900  Biso   1.000  H
  H791     1.0000 0.57900  0.20700  0.08700  Biso   1.000  H
  H792     1.0000 0.57000  0.15700  0.06700  Biso   1.000  H
  H793     1.0000 0.69100  0.17400  0.03200  Biso   1.000  H
  H794     1.0000 0.65000  0.21000  0.02500  Biso   1.000  H
  H795     1.0000 0.64300  0.15700  0.01200  Biso   1.000  H
  H796     1.0000 0.62000  0.99300  0.16500  Biso   1.000  H
  H797     1.0000 0.67500  0.93400  0.18500  Biso   1.000  H
  H798     1.0000 0.75400  0.95000  0.19900  Biso   1.000  H
  H799     1.0000 0.77700  0.02000  0.19100  Biso   1.000  H
  H800     1.0000 0.73200  0.08100  0.17200  Biso   1.000  H
  H801     1.0000 0.63700  0.99400  0.17500  Biso   1.000  H
  H802     1.0000 0.70000  0.93800  0.19100  Biso   1.000  H
  H803     1.0000 0.77400  0.96200  0.20100  Biso   1.000  H
  H804     1.0000 0.78900  0.04200  0.18400  Biso   1.000  H
  H805     1.0000 0.72600  0.09700  0.16400  Biso   1.000  H
  Ni36     1.0000 0.38110  0.60100  0.34730  Biso   1.000  Ni
  O141     1.0000 0.41160  0.55470  0.39070  Biso   1.000  O
  O142     1.0000 0.37040  0.55270  0.45700  Biso   1.000  O
  C596     1.0000 0.40200  0.53730  0.42980  Biso   1.000  C
  C597     1.0000 0.43060  0.49650  0.44420  Biso   1.000  C
  C598     1.0000 0.41840  0.46990  0.48370  Biso   1.000  C
  O143     1.0000 0.42270  0.65820  0.36480  Biso   1.000  O
  O144     1.0000 0.34140  0.62600  0.40380  Biso   1.000  O
  C599     1.0000 0.41210  0.67440  0.41020  Biso   1.000  C
  C600     1.0000 0.35830  0.66970  0.42060  Biso   1.000  C
  C601     1.0000 0.43480  0.71730  0.42070  Biso   1.000  C
  C602     1.0000 0.34240  0.67870  0.46680  Biso   1.000  C
  N71      1.0000 0.33480  0.54560  0.33310  Biso   1.000  N
  C603     1.0000 0.34820  0.50170  0.32960  Biso   1.000  C
  C604     1.0000 0.31430  0.46570  0.31770  Biso   1.000  C
  C605     1.0000 0.26800  0.47430  0.30990  Biso   1.000  C
  C606     1.0000 0.25560  0.51430  0.31420  Biso   1.000  C
  C607     1.0000 0.28200  0.55100  0.32510  Biso   1.000  C
  N72      1.0000 0.31700  0.54800  0.33180  Biso   1.000  N
  C608     1.0000 0.33080  0.50340  0.32390  Biso   1.000  C
  C609     1.0000 0.29270  0.47060  0.31300  Biso   1.000  C
  C610     1.0000 0.25050  0.48290  0.30820  Biso   1.000  C
  C611     1.0000 0.24250  0.53100  0.31770  Biso   1.000  C
  C612     1.0000 0.27990  0.56460  0.32990  Biso   1.000  C
  H806     1.0000 0.39000  0.48000  0.49800  Biso   1.000  H
  H807     1.0000 0.42700  0.65200  0.43100  Biso   1.000  H
  H808     1.0000 0.39700  0.70400  0.42200  Biso   1.000  H
  H809     1.0000 0.40800  0.65600  0.44500  Biso   1.000  H
  H810     1.0000 0.46700  0.71500  0.41200  Biso   1.000  H
  H811     1.0000 0.43200  0.72400  0.45400  Biso   1.000  H
  H812     1.0000 0.42000  0.74200  0.40300  Biso   1.000  H
  H813     1.0000 0.34300  0.69300  0.40100  Biso   1.000  H
  H814     1.0000 0.42100  0.70700  0.41300  Biso   1.000  H
  H815     1.0000 0.43000  0.65700  0.43300  Biso   1.000  H
  H816     1.0000 0.30900  0.67400  0.46800  Biso   1.000  H
  H817     1.0000 0.35000  0.71000  0.47500  Biso   1.000  H
  H818     1.0000 0.35700  0.65700  0.48800  Biso   1.000  H
  H819     1.0000 0.38000  0.49300  0.33500  Biso   1.000  H
  H820     1.0000 0.32500  0.43400  0.31500  Biso   1.000  H
  H821     1.0000 0.24600  0.45000  0.30100  Biso   1.000  H
  H822     1.0000 0.22300  0.52000  0.30900  Biso   1.000  H
  H823     1.0000 0.26800  0.58100  0.32800  Biso   1.000  H
  H824     1.0000 0.36300  0.49400  0.32500  Biso   1.000  H
  H825     1.0000 0.30000  0.43800  0.30900  Biso   1.000  H
  H826     1.0000 0.22600  0.46200  0.29900  Biso   1.000  H
  H827     1.0000 0.21100  0.54200  0.31600  Biso   1.000  H
  H828     1.0000 0.27400  0.59700  0.33600  Biso   1.000  H
  Ni37     1.0000 0.36890  0.59730  0.35100  Biso   1.000  Ni
  O145     1.0000 0.33840  0.64070  0.30470  Biso   1.000  O
  O146     1.0000 0.37960  0.70700  0.30270  Biso   1.000  O
  C613     1.0000 0.34800  0.67980  0.28730  Biso   1.000  C
  C614     1.0000 0.31940  0.69420  0.24650  Biso   1.000  C
  C615     1.0000 0.33160  0.73370  0.21990  Biso   1.000  C
  O147     1.0000 0.32730  0.61480  0.40820  Biso   1.000  O
  O148     1.0000 0.40860  0.65380  0.37600  Biso   1.000  O
  C616     1.0000 0.33790  0.66020  0.42440  Biso   1.000  C
  C617     1.0000 0.39170  0.67060  0.41970  Biso   1.000  C
  C618     1.0000 0.31520  0.67070  0.46730  Biso   1.000  C
  C619     1.0000 0.40760  0.71680  0.42870  Biso   1.000  C
  N73      1.0000 0.41520  0.58310  0.29560  Biso   1.000  N
  C620     1.0000 0.40180  0.57960  0.25170  Biso   1.000  C
  C621     1.0000 0.43570  0.56770  0.21570  Biso   1.000  C
  C622     1.0000 0.48200  0.55990  0.22430  Biso   1.000  C
  C623     1.0000 0.49440  0.56420  0.26430  Biso   1.000  C
  C624     1.0000 0.46800  0.57510  0.30100  Biso   1.000  C
  N74      1.0000 0.43300  0.58180  0.29800  Biso   1.000  N
  C625     1.0000 0.41920  0.57390  0.25340  Biso   1.000  C
  C626     1.0000 0.45730  0.56300  0.22060  Biso   1.000  C
  C627     1.0000 0.49950  0.55820  0.23290  Biso   1.000  C
  C628     1.0000 0.50750  0.56770  0.28100  Biso   1.000  C
  C629     1.0000 0.47010  0.57990  0.31460  Biso   1.000  C
  H829     1.0000 0.36000  0.74800  0.23000  Biso   1.000  H
  H830     1.0000 0.32300  0.68100  0.40200  Biso   1.000  H
  H831     1.0000 0.35300  0.67200  0.45400  Biso   1.000  H
  H832     1.0000 0.34200  0.69500  0.40600  Biso   1.000  H
  H833     1.0000 0.28300  0.66200  0.46500  Biso   1.000  H
  H834     1.0000 0.31800  0.70400  0.47400  Biso   1.000  H
  H835     1.0000 0.33000  0.65300  0.49200  Biso   1.000  H
  H836     1.0000 0.40700  0.65100  0.44300  Biso   1.000  H
  H837     1.0000 0.32900  0.66300  0.45700  Biso   1.000  H
  H838     1.0000 0.32000  0.68300  0.40700  Biso   1.000  H
  H839     1.0000 0.44100  0.71800  0.42400  Biso   1.000  H
  H840     1.0000 0.40000  0.72500  0.46000  Biso   1.000  H
  H841     1.0000 0.39300  0.73800  0.40700  Biso   1.000  H
  H842     1.0000 0.37000  0.58500  0.24300  Biso   1.000  H
  H843     1.0000 0.42500  0.56500  0.18400  Biso   1.000  H
  H844     1.0000 0.50400  0.55100  0.20000  Biso   1.000  H
  H845     1.0000 0.52700  0.55900  0.27000  Biso   1.000  H
  H846     1.0000 0.48200  0.57800  0.33100  Biso   1.000  H
  H847     1.0000 0.38700  0.57500  0.24400  Biso   1.000  H
  H848     1.0000 0.45000  0.55900  0.18800  Biso   1.000  H
  H849     1.0000 0.52400  0.54900  0.21200  Biso   1.000  H
  H850     1.0000 0.53900  0.56600  0.29200  Biso   1.000  H
  H851     1.0000 0.47600  0.58600  0.34700  Biso   1.000  H
  Ni38     1.0000 0.13110  0.40270  0.85100  Biso   1.000  Ni
  O149     1.0000 0.16160  0.35930  0.80470  Biso   1.000  O
  O150     1.0000 0.12040  0.29300  0.80270  Biso   1.000  O
  C630     1.0000 0.15200  0.32020  0.78730  Biso   1.000  C
  C631     1.0000 0.18060  0.30580  0.74650  Biso   1.000  C
  C632     1.0000 0.16840  0.26630  0.71990  Biso   1.000  C
  O151     1.0000 0.17270  0.38520  0.90820  Biso   1.000  O
  O152     1.0000 0.09140  0.34620  0.87600  Biso   1.000  O
  C633     1.0000 0.16210  0.33980  0.92440  Biso   1.000  C
  C634     1.0000 0.10830  0.32940  0.91970  Biso   1.000  C
  C635     1.0000 0.18480  0.32930  0.96730  Biso   1.000  C
  C636     1.0000 0.09240  0.28320  0.92870  Biso   1.000  C
  N75      1.0000 0.08480  0.41690  0.79560  Biso   1.000  N
  C637     1.0000 0.09820  0.42040  0.75170  Biso   1.000  C
  C638     1.0000 0.06430  0.43230  0.71570  Biso   1.000  C
  C639     1.0000 0.01800  0.44010  0.72430  Biso   1.000  C
  C640     1.0000 0.00560  0.43580  0.76430  Biso   1.000  C
  C641     1.0000 0.03200  0.42490  0.80100  Biso   1.000  C
  N76      1.0000 0.06700  0.41820  0.79800  Biso   1.000  N
  C642     1.0000 0.08080  0.42610  0.75340  Biso   1.000  C
  C643     1.0000 0.04270  0.43700  0.72060  Biso   1.000  C
  C644     1.0000 0.00050  0.44180  0.73290  Biso   1.000  C
  C645     1.0000 0.99250  0.43230  0.78100  Biso   1.000  C
  C646     1.0000 0.02990  0.42010  0.81460  Biso   1.000  C
  H852     1.0000 0.14000  0.25200  0.73000  Biso   1.000  H
  H853     1.0000 0.17700  0.31900  0.90200  Biso   1.000  H
  H854     1.0000 0.14700  0.32800  0.95400  Biso   1.000  H
  H855     1.0000 0.15800  0.30500  0.90600  Biso   1.000  H
  H856     1.0000 0.21700  0.33800  0.96500  Biso   1.000  H
  H857     1.0000 0.18200  0.29600  0.97400  Biso   1.000  H
  H858     1.0000 0.17000  0.34700  0.99200  Biso   1.000  H
  H859     1.0000 0.09300  0.34900  0.94300  Biso   1.000  H
  H860     1.0000 0.17100  0.33700  0.95700  Biso   1.000  H
  H861     1.0000 0.18000  0.31700  0.90700  Biso   1.000  H
  H862     1.0000 0.05900  0.28200  0.92400  Biso   1.000  H
  H863     1.0000 0.10000  0.27500  0.96000  Biso   1.000  H
  H864     1.0000 0.10700  0.26200  0.90700  Biso   1.000  H
  H865     1.0000 0.13000  0.41500  0.74300  Biso   1.000  H
  H866     1.0000 0.07500  0.43500  0.68400  Biso   1.000  H
  H867     1.0000 0.99600  0.44900  0.70000  Biso   1.000  H
  H868     1.0000 0.97300  0.44100  0.77000  Biso   1.000  H
  H869     1.0000 0.01800  0.42200  0.83100  Biso   1.000  H
  H870     1.0000 0.11300  0.42500  0.74400  Biso   1.000  H
  H871     1.0000 0.05000  0.44100  0.68800  Biso   1.000  H
  H872     1.0000 0.97600  0.45100  0.71200  Biso   1.000  H
  H873     1.0000 0.96100  0.43400  0.79200  Biso   1.000  H
  H874     1.0000 0.02400  0.41400  0.84700  Biso   1.000  H
  Ni39     1.0000 0.86890  0.90270  0.64900  Biso   1.000  Ni
  O153     1.0000 0.83840  0.85930  0.69530  Biso   1.000  O
  O154     1.0000 0.87960  0.79300  0.69730  Biso   1.000  O
  C647     1.0000 0.84800  0.82020  0.71270  Biso   1.000  C
  C648     1.0000 0.81940  0.80580  0.75350  Biso   1.000  C
  C649     1.0000 0.83160  0.76630  0.78010  Biso   1.000  C
  O155     1.0000 0.82730  0.88520  0.59180  Biso   1.000  O
  O156     1.0000 0.90860  0.84620  0.62400  Biso   1.000  O
  C650     1.0000 0.83790  0.83980  0.57560  Biso   1.000  C
  C651     1.0000 0.89170  0.82940  0.58030  Biso   1.000  C
  C652     1.0000 0.81520  0.82930  0.53270  Biso   1.000  C
  C653     1.0000 0.90760  0.78320  0.57130  Biso   1.000  C
  N77      1.0000 0.91520  0.91690  0.70440  Biso   1.000  N
  C654     1.0000 0.90180  0.92040  0.74830  Biso   1.000  C
  C655     1.0000 0.93570  0.93230  0.78430  Biso   1.000  C
  C656     1.0000 0.98200  0.94010  0.77570  Biso   1.000  C
  C657     1.0000 0.99440  0.93580  0.73570  Biso   1.000  C
  C658     1.0000 0.96800  0.92490  0.69900  Biso   1.000  C
  N78      1.0000 0.93300  0.91820  0.70200  Biso   1.000  N
  C659     1.0000 0.91920  0.92610  0.74660  Biso   1.000  C
  C660     1.0000 0.95730  0.93700  0.77940  Biso   1.000  C
  C661     1.0000 0.99950  0.94180  0.76710  Biso   1.000  C
  C662     1.0000 0.00750  0.93230  0.71900  Biso   1.000  C
  C663     1.0000 0.97010  0.92010  0.68540  Biso   1.000  C
  H875     1.0000 0.86000  0.75200  0.77000  Biso   1.000  H
  H876     1.0000 0.82300  0.81900  0.59800  Biso   1.000  H
  H877     1.0000 0.85300  0.82800  0.54600  Biso   1.000  H
  H878     1.0000 0.84200  0.80500  0.59400  Biso   1.000  H
  H879     1.0000 0.78300  0.83800  0.53500  Biso   1.000  H
  H880     1.0000 0.81800  0.79600  0.52600  Biso   1.000  H
  H881     1.0000 0.83000  0.84700  0.50800  Biso   1.000  H
  H882     1.0000 0.90700  0.84900  0.55700  Biso   1.000  H
  H883     1.0000 0.82900  0.83700  0.54300  Biso   1.000  H
  H884     1.0000 0.82000  0.81700  0.59300  Biso   1.000  H
  H885     1.0000 0.94100  0.78200  0.57600  Biso   1.000  H
  H886     1.0000 0.90000  0.77500  0.54000  Biso   1.000  H
  H887     1.0000 0.89300  0.76200  0.59300  Biso   1.000  H
  H888     1.0000 0.87000  0.91500  0.75700  Biso   1.000  H
  H889     1.0000 0.92500  0.93500  0.81600  Biso   1.000  H
  H890     1.0000 0.00400  0.94900  0.80000  Biso   1.000  H
  H891     1.0000 0.02700  0.94100  0.73000  Biso   1.000  H
  H892     1.0000 0.98200  0.92200  0.66900  Biso   1.000  H
  H893     1.0000 0.88700  0.92500  0.75600  Biso   1.000  H
  H894     1.0000 0.95000  0.94100  0.81200  Biso   1.000  H
  H895     1.0000 0.02400  0.95100  0.78800  Biso   1.000  H
  H896     1.0000 0.03900  0.93400  0.70800  Biso   1.000  H
  H897     1.0000 0.97600  0.91400  0.65300  Biso   1.000  H
  Ni40     1.0000 0.63110  0.09730  0.14900  Biso   1.000  Ni
  O157     1.0000 0.66160  0.14070  0.19530  Biso   1.000  O
  O158     1.0000 0.62040  0.20700  0.19730  Biso   1.000  O
  C664     1.0000 0.65200  0.17980  0.21270  Biso   1.000  C
  C665     1.0000 0.68060  0.19420  0.25350  Biso   1.000  C
  C666     1.0000 0.66840  0.23370  0.28010  Biso   1.000  C
  O159     1.0000 0.67270  0.11480  0.09180  Biso   1.000  O
  O160     1.0000 0.59140  0.15380  0.12400  Biso   1.000  O
  C667     1.0000 0.66210  0.16020  0.07560  Biso   1.000  C
  C668     1.0000 0.60830  0.17060  0.08030  Biso   1.000  C
  C669     1.0000 0.68480  0.17070  0.03270  Biso   1.000  C
  C670     1.0000 0.59240  0.21680  0.07130  Biso   1.000  C
  N79      1.0000 0.58480  0.08310  0.20440  Biso   1.000  N
  C671     1.0000 0.59820  0.07960  0.24830  Biso   1.000  C
  C672     1.0000 0.56430  0.06770  0.28430  Biso   1.000  C
  C673     1.0000 0.51800  0.05990  0.27570  Biso   1.000  C
  C674     1.0000 0.50560  0.06420  0.23570  Biso   1.000  C
  C675     1.0000 0.53200  0.07510  0.19900  Biso   1.000  C
  N80      1.0000 0.56700  0.08180  0.20200  Biso   1.000  N
  C676     1.0000 0.58080  0.07390  0.24660  Biso   1.000  C
  C677     1.0000 0.54270  0.06300  0.27940  Biso   1.000  C
  C678     1.0000 0.50050  0.05820  0.26710  Biso   1.000  C
  C679     1.0000 0.49250  0.06770  0.21900  Biso   1.000  C
  C680     1.0000 0.52990  0.07990  0.18540  Biso   1.000  C
  H898     1.0000 0.64000  0.24800  0.27000  Biso   1.000  H
  H899     1.0000 0.67700  0.18100  0.09800  Biso   1.000  H
  H900     1.0000 0.64700  0.17200  0.04600  Biso   1.000  H
  H901     1.0000 0.65800  0.19500  0.09400  Biso   1.000  H
  H902     1.0000 0.71700  0.16200  0.03500  Biso   1.000  H
  H903     1.0000 0.68200  0.20400  0.02600  Biso   1.000  H
  H904     1.0000 0.67000  0.15300  0.00800  Biso   1.000  H
  H905     1.0000 0.59300  0.15100  0.05700  Biso   1.000  H
  H906     1.0000 0.67100  0.16300  0.04300  Biso   1.000  H
  H907     1.0000 0.68000  0.18300  0.09300  Biso   1.000  H
  H908     1.0000 0.55900  0.21800  0.07600  Biso   1.000  H
  H909     1.0000 0.60000  0.22500  0.04000  Biso   1.000  H
  H910     1.0000 0.60700  0.23800  0.09300  Biso   1.000  H
  H911     1.0000 0.63000  0.08500  0.25700  Biso   1.000  H
  H912     1.0000 0.57500  0.06500  0.31600  Biso   1.000  H
  H913     1.0000 0.49600  0.05100  0.30000  Biso   1.000  H
  H914     1.0000 0.47300  0.05900  0.23000  Biso   1.000  H
  H915     1.0000 0.51800  0.07800  0.16900  Biso   1.000  H
  H916     1.0000 0.61300  0.07500  0.25600  Biso   1.000  H
  H917     1.0000 0.55000  0.05900  0.31200  Biso   1.000  H
  H918     1.0000 0.47600  0.04900  0.28800  Biso   1.000  H
  H919     1.0000 0.46100  0.06600  0.20800  Biso   1.000  H
  H920     1.0000 0.52400  0.08600  0.15300  Biso   1.000  H
  Ni41     1.0000 0.09730  0.14900  0.63110  Biso   1.000  Ni
  O161     1.0000 0.14070  0.19530  0.66160  Biso   1.000  O
  O162     1.0000 0.20700  0.19730  0.62040  Biso   1.000  O
  C681     1.0000 0.17980  0.21270  0.65200  Biso   1.000  C
  C682     1.0000 0.19420  0.25350  0.68060  Biso   1.000  C
  C683     1.0000 0.23370  0.28010  0.66840  Biso   1.000  C
  O163     1.0000 0.11480  0.09180  0.67270  Biso   1.000  O
  O164     1.0000 0.15380  0.12400  0.59140  Biso   1.000  O
  C684     1.0000 0.16020  0.07560  0.66210  Biso   1.000  C
  C685     1.0000 0.17060  0.08030  0.60830  Biso   1.000  C
  C686     1.0000 0.17070  0.03270  0.68480  Biso   1.000  C
  C687     1.0000 0.21680  0.07130  0.59240  Biso   1.000  C
  N81      1.0000 0.08310  0.20440  0.58480  Biso   1.000  N
  C688     1.0000 0.07960  0.24830  0.59820  Biso   1.000  C
  C689     1.0000 0.06770  0.28430  0.56430  Biso   1.000  C
  C690     1.0000 0.05990  0.27570  0.51800  Biso   1.000  C
  C691     1.0000 0.06420  0.23570  0.50560  Biso   1.000  C
  C692     1.0000 0.07510  0.19900  0.53200  Biso   1.000  C
  N82      1.0000 0.08180  0.20200  0.56700  Biso   1.000  N
  C693     1.0000 0.07390  0.24660  0.58080  Biso   1.000  C
  C694     1.0000 0.06300  0.27940  0.54270  Biso   1.000  C
  C695     1.0000 0.05820  0.26710  0.50050  Biso   1.000  C
  C696     1.0000 0.06770  0.21900  0.49250  Biso   1.000  C
  C697     1.0000 0.07990  0.18540  0.52990  Biso   1.000  C
  H921     1.0000 0.24800  0.27000  0.64000  Biso   1.000  H
  H922     1.0000 0.18100  0.09800  0.67700  Biso   1.000  H
  H923     1.0000 0.17200  0.04600  0.64700  Biso   1.000  H
  H924     1.0000 0.19500  0.09400  0.65800  Biso   1.000  H
  H925     1.0000 0.16200  0.03500  0.71700  Biso   1.000  H
  H926     1.0000 0.20400  0.02600  0.68200  Biso   1.000  H
  H927     1.0000 0.15300  0.00800  0.67000  Biso   1.000  H
  H928     1.0000 0.15100  0.05700  0.59300  Biso   1.000  H
  H929     1.0000 0.16300  0.04300  0.67100  Biso   1.000  H
  H930     1.0000 0.18300  0.09300  0.68000  Biso   1.000  H
  H931     1.0000 0.21800  0.07600  0.55900  Biso   1.000  H
  H932     1.0000 0.22500  0.04000  0.60000  Biso   1.000  H
  H933     1.0000 0.23800  0.09300  0.60700  Biso   1.000  H
  H934     1.0000 0.08500  0.25700  0.63000  Biso   1.000  H
  H935     1.0000 0.06500  0.31600  0.57500  Biso   1.000  H
  H936     1.0000 0.05100  0.30000  0.49600  Biso   1.000  H
  H937     1.0000 0.05900  0.23000  0.47300  Biso   1.000  H
  H938     1.0000 0.07800  0.16900  0.51800  Biso   1.000  H
  H939     1.0000 0.07500  0.25600  0.61300  Biso   1.000  H
  H940     1.0000 0.05900  0.31200  0.55000  Biso   1.000  H
  H941     1.0000 0.04900  0.28800  0.47600  Biso   1.000  H
  H942     1.0000 0.06600  0.20800  0.46100  Biso   1.000  H
  H943     1.0000 0.08600  0.15300  0.52400  Biso   1.000  H
  Ni42     1.0000 0.90270  0.64900  0.86890  Biso   1.000  Ni
  O165     1.0000 0.85930  0.69530  0.83840  Biso   1.000  O
  O166     1.0000 0.79300  0.69730  0.87960  Biso   1.000  O
  C698     1.0000 0.82020  0.71270  0.84800  Biso   1.000  C
  C699     1.0000 0.80580  0.75350  0.81940  Biso   1.000  C
  C700     1.0000 0.76630  0.78010  0.83160  Biso   1.000  C
  O167     1.0000 0.88520  0.59180  0.82730  Biso   1.000  O
  O168     1.0000 0.84620  0.62400  0.90860  Biso   1.000  O
  C701     1.0000 0.83980  0.57560  0.83790  Biso   1.000  C
  C702     1.0000 0.82940  0.58030  0.89170  Biso   1.000  C
  C703     1.0000 0.82930  0.53270  0.81520  Biso   1.000  C
  C704     1.0000 0.78320  0.57130  0.90760  Biso   1.000  C
  N83      1.0000 0.91690  0.70440  0.91520  Biso   1.000  N
  C705     1.0000 0.92040  0.74830  0.90180  Biso   1.000  C
  C706     1.0000 0.93230  0.78430  0.93570  Biso   1.000  C
  C707     1.0000 0.94010  0.77570  0.98200  Biso   1.000  C
  C708     1.0000 0.93580  0.73570  0.99440  Biso   1.000  C
  C709     1.0000 0.92490  0.69900  0.96800  Biso   1.000  C
  N84      1.0000 0.91820  0.70200  0.93300  Biso   1.000  N
  C710     1.0000 0.92610  0.74660  0.91920  Biso   1.000  C
  C711     1.0000 0.93700  0.77940  0.95730  Biso   1.000  C
  C712     1.0000 0.94180  0.76710  0.99950  Biso   1.000  C
  C713     1.0000 0.93230  0.71900  0.00750  Biso   1.000  C
  C714     1.0000 0.92010  0.68540  0.97010  Biso   1.000  C
  H944     1.0000 0.75200  0.77000  0.86000  Biso   1.000  H
  H945     1.0000 0.81900  0.59800  0.82300  Biso   1.000  H
  H946     1.0000 0.82800  0.54600  0.85300  Biso   1.000  H
  H947     1.0000 0.80500  0.59400  0.84200  Biso   1.000  H
  H948     1.0000 0.83800  0.53500  0.78300  Biso   1.000  H
  H949     1.0000 0.79600  0.52600  0.81800  Biso   1.000  H
  H950     1.0000 0.84700  0.50800  0.83000  Biso   1.000  H
  H951     1.0000 0.84900  0.55700  0.90700  Biso   1.000  H
  H952     1.0000 0.83700  0.54300  0.82900  Biso   1.000  H
  H953     1.0000 0.81700  0.59300  0.82000  Biso   1.000  H
  H954     1.0000 0.78200  0.57600  0.94100  Biso   1.000  H
  H955     1.0000 0.77500  0.54000  0.90000  Biso   1.000  H
  H956     1.0000 0.76200  0.59300  0.89300  Biso   1.000  H
  H957     1.0000 0.91500  0.75700  0.87000  Biso   1.000  H
  H958     1.0000 0.93500  0.81600  0.92500  Biso   1.000  H
  H959     1.0000 0.94900  0.80000  0.00400  Biso   1.000  H
  H960     1.0000 0.94100  0.73000  0.02700  Biso   1.000  H
  H961     1.0000 0.92200  0.66900  0.98200  Biso   1.000  H
  H962     1.0000 0.92500  0.75600  0.88700  Biso   1.000  H
  H963     1.0000 0.94100  0.81200  0.95000  Biso   1.000  H
  H964     1.0000 0.95100  0.78800  0.02400  Biso   1.000  H
  H965     1.0000 0.93400  0.70800  0.03900  Biso   1.000  H
  H966     1.0000 0.91400  0.65300  0.97600  Biso   1.000  H
  Ni43     1.0000 0.40270  0.85100  0.13110  Biso   1.000  Ni
  O169     1.0000 0.35930  0.80470  0.16160  Biso   1.000  O
  O170     1.0000 0.29300  0.80270  0.12040  Biso   1.000  O
  C715     1.0000 0.32020  0.78730  0.15200  Biso   1.000  C
  C716     1.0000 0.30580  0.74650  0.18060  Biso   1.000  C
  C717     1.0000 0.26630  0.71990  0.16840  Biso   1.000  C
  O171     1.0000 0.38520  0.90820  0.17270  Biso   1.000  O
  O172     1.0000 0.34620  0.87600  0.09140  Biso   1.000  O
  C718     1.0000 0.33980  0.92440  0.16210  Biso   1.000  C
  C719     1.0000 0.32940  0.91970  0.10830  Biso   1.000  C
  C720     1.0000 0.32930  0.96730  0.18480  Biso   1.000  C
  C721     1.0000 0.28320  0.92870  0.09240  Biso   1.000  C
  N85      1.0000 0.41690  0.79560  0.08480  Biso   1.000  N
  C722     1.0000 0.42040  0.75170  0.09820  Biso   1.000  C
  C723     1.0000 0.43230  0.71570  0.06430  Biso   1.000  C
  C724     1.0000 0.44010  0.72430  0.01800  Biso   1.000  C
  C725     1.0000 0.43580  0.76430  0.00560  Biso   1.000  C
  C726     1.0000 0.42490  0.80100  0.03200  Biso   1.000  C
  N86      1.0000 0.41820  0.79800  0.06700  Biso   1.000  N
  C727     1.0000 0.42610  0.75340  0.08080  Biso   1.000  C
  C728     1.0000 0.43700  0.72060  0.04270  Biso   1.000  C
  C729     1.0000 0.44180  0.73290  0.00050  Biso   1.000  C
  C730     1.0000 0.43230  0.78100  0.99250  Biso   1.000  C
  C731     1.0000 0.42010  0.81460  0.02990  Biso   1.000  C
  H967     1.0000 0.25200  0.73000  0.14000  Biso   1.000  H
  H968     1.0000 0.31900  0.90200  0.17700  Biso   1.000  H
  H969     1.0000 0.32800  0.95400  0.14700  Biso   1.000  H
  H970     1.0000 0.30500  0.90600  0.15800  Biso   1.000  H
  H971     1.0000 0.33800  0.96500  0.21700  Biso   1.000  H
  H972     1.0000 0.29600  0.97400  0.18200  Biso   1.000  H
  H973     1.0000 0.34700  0.99200  0.17000  Biso   1.000  H
  H974     1.0000 0.34900  0.94300  0.09300  Biso   1.000  H
  H975     1.0000 0.33700  0.95700  0.17100  Biso   1.000  H
  H976     1.0000 0.31700  0.90700  0.18000  Biso   1.000  H
  H977     1.0000 0.28200  0.92400  0.05900  Biso   1.000  H
  H978     1.0000 0.27500  0.96000  0.10000  Biso   1.000  H
  H979     1.0000 0.26200  0.90700  0.10700  Biso   1.000  H
  H980     1.0000 0.41500  0.74300  0.13000  Biso   1.000  H
  H981     1.0000 0.43500  0.68400  0.07500  Biso   1.000  H
  H982     1.0000 0.44900  0.70000  0.99600  Biso   1.000  H
  H983     1.0000 0.44100  0.77000  0.97300  Biso   1.000  H
  H984     1.0000 0.42200  0.83100  0.01800  Biso   1.000  H
  H985     1.0000 0.42500  0.74400  0.11300  Biso   1.000  H
  H986     1.0000 0.44100  0.68800  0.05000  Biso   1.000  H
  H987     1.0000 0.45100  0.71200  0.97600  Biso   1.000  H
  H988     1.0000 0.43400  0.79200  0.96100  Biso   1.000  H
  H989     1.0000 0.41400  0.84700  0.02400  Biso   1.000  H
  Ni44     1.0000 0.59730  0.35100  0.36890  Biso   1.000  Ni
  O173     1.0000 0.64070  0.30470  0.33840  Biso   1.000  O
  O174     1.0000 0.70700  0.30270  0.37960  Biso   1.000  O
  C732     1.0000 0.67980  0.28730  0.34800  Biso   1.000  C
  C733     1.0000 0.69420  0.24650  0.31940  Biso   1.000  C
  C734     1.0000 0.73370  0.21990  0.33160  Biso   1.000  C
  O175     1.0000 0.61480  0.40820  0.32730  Biso   1.000  O
  O176     1.0000 0.65380  0.37600  0.40860  Biso   1.000  O
  C735     1.0000 0.66020  0.42440  0.33790  Biso   1.000  C
  C736     1.0000 0.67060  0.41970  0.39170  Biso   1.000  C
  C737     1.0000 0.67070  0.46730  0.31520  Biso   1.000  C
  C738     1.0000 0.71680  0.42870  0.40760  Biso   1.000  C
  N87      1.0000 0.58310  0.29560  0.41520  Biso   1.000  N
  C739     1.0000 0.57960  0.25170  0.40180  Biso   1.000  C
  C740     1.0000 0.56770  0.21570  0.43570  Biso   1.000  C
  C741     1.0000 0.55990  0.22430  0.48200  Biso   1.000  C
  C742     1.0000 0.56420  0.26430  0.49440  Biso   1.000  C
  C743     1.0000 0.57510  0.30100  0.46800  Biso   1.000  C
  N88      1.0000 0.58180  0.29800  0.43300  Biso   1.000  N
  C744     1.0000 0.57390  0.25340  0.41920  Biso   1.000  C
  C745     1.0000 0.56300  0.22060  0.45730  Biso   1.000  C
  C746     1.0000 0.55820  0.23290  0.49950  Biso   1.000  C
  C747     1.0000 0.56770  0.28100  0.50750  Biso   1.000  C
  C748     1.0000 0.57990  0.31460  0.47010  Biso   1.000  C
  H990     1.0000 0.74800  0.23000  0.36000  Biso   1.000  H
  H991     1.0000 0.68100  0.40200  0.32300  Biso   1.000  H
  H992     1.0000 0.67200  0.45400  0.35300  Biso   1.000  H
  H993     1.0000 0.69500  0.40600  0.34200  Biso   1.000  H
  H994     1.0000 0.66200  0.46500  0.28300  Biso   1.000  H
  H995     1.0000 0.70400  0.47400  0.31800  Biso   1.000  H
  H996     1.0000 0.65300  0.49200  0.33000  Biso   1.000  H
  H997     1.0000 0.65100  0.44300  0.40700  Biso   1.000  H
  H998     1.0000 0.66300  0.45700  0.32900  Biso   1.000  H
  H999     1.0000 0.68300  0.40700  0.32000  Biso   1.000  H
  H1000    1.0000 0.71800  0.42400  0.44100  Biso   1.000  H
  H1001    1.0000 0.72500  0.46000  0.40000  Biso   1.000  H
  H1002    1.0000 0.73800  0.40700  0.39300  Biso   1.000  H
  H1003    1.0000 0.58500  0.24300  0.37000  Biso   1.000  H
  H1004    1.0000 0.56500  0.18400  0.42500  Biso   1.000  H
  H1005    1.0000 0.55100  0.20000  0.50400  Biso   1.000  H
  H1006    1.0000 0.55900  0.27000  0.52700  Biso   1.000  H
  H1007    1.0000 0.57800  0.33100  0.48200  Biso   1.000  H
  H1008    1.0000 0.57500  0.24400  0.38700  Biso   1.000  H
  H1009    1.0000 0.55900  0.18800  0.45000  Biso   1.000  H
  H1010    1.0000 0.54900  0.21200  0.52400  Biso   1.000  H
  H1011    1.0000 0.56600  0.29200  0.53900  Biso   1.000  H
  H1012    1.0000 0.58600  0.34700  0.47600  Biso   1.000  H
  Ni45     1.0000 0.64900  0.86890  0.90270  Biso   1.000  Ni
  O177     1.0000 0.69530  0.83840  0.85930  Biso   1.000  O
  O178     1.0000 0.69730  0.87960  0.79300  Biso   1.000  O
  C749     1.0000 0.71270  0.84800  0.82020  Biso   1.000  C
  C750     1.0000 0.75350  0.81940  0.80580  Biso   1.000  C
  C751     1.0000 0.78010  0.83160  0.76630  Biso   1.000  C
  O179     1.0000 0.59180  0.82730  0.88520  Biso   1.000  O
  O180     1.0000 0.62400  0.90860  0.84620  Biso   1.000  O
  C752     1.0000 0.57560  0.83790  0.83980  Biso   1.000  C
  C753     1.0000 0.58030  0.89170  0.82940  Biso   1.000  C
  C754     1.0000 0.53270  0.81520  0.82930  Biso   1.000  C
  C755     1.0000 0.57130  0.90760  0.78320  Biso   1.000  C
  N89      1.0000 0.70440  0.91520  0.91690  Biso   1.000  N
  C756     1.0000 0.74830  0.90180  0.92040  Biso   1.000  C
  C757     1.0000 0.78430  0.93570  0.93230  Biso   1.000  C
  C758     1.0000 0.77570  0.98200  0.94010  Biso   1.000  C
  C759     1.0000 0.73570  0.99440  0.93580  Biso   1.000  C
  C760     1.0000 0.69900  0.96800  0.92490  Biso   1.000  C
  N90      1.0000 0.70200  0.93300  0.91820  Biso   1.000  N
  C761     1.0000 0.74660  0.91920  0.92610  Biso   1.000  C
  C762     1.0000 0.77940  0.95730  0.93700  Biso   1.000  C
  C763     1.0000 0.76710  0.99950  0.94180  Biso   1.000  C
  C764     1.0000 0.71900  0.00750  0.93230  Biso   1.000  C
  C765     1.0000 0.68540  0.97010  0.92010  Biso   1.000  C
  H1013    1.0000 0.77000  0.86000  0.75200  Biso   1.000  H
  H1014    1.0000 0.59800  0.82300  0.81900  Biso   1.000  H
  H1015    1.0000 0.54600  0.85300  0.82800  Biso   1.000  H
  H1016    1.0000 0.59400  0.84200  0.80500  Biso   1.000  H
  H1017    1.0000 0.53500  0.78300  0.83800  Biso   1.000  H
  H1018    1.0000 0.52600  0.81800  0.79600  Biso   1.000  H
  H1019    1.0000 0.50800  0.83000  0.84700  Biso   1.000  H
  H1020    1.0000 0.55700  0.90700  0.84900  Biso   1.000  H
  H1021    1.0000 0.54300  0.82900  0.83700  Biso   1.000  H
  H1022    1.0000 0.59300  0.82000  0.81700  Biso   1.000  H
  H1023    1.0000 0.57600  0.94100  0.78200  Biso   1.000  H
  H1024    1.0000 0.54000  0.90000  0.77500  Biso   1.000  H
  H1025    1.0000 0.59300  0.89300  0.76200  Biso   1.000  H
  H1026    1.0000 0.75700  0.87000  0.91500  Biso   1.000  H
  H1027    1.0000 0.81600  0.92500  0.93500  Biso   1.000  H
  H1028    1.0000 0.80000  0.00400  0.94900  Biso   1.000  H
  H1029    1.0000 0.73000  0.02700  0.94100  Biso   1.000  H
  H1030    1.0000 0.66900  0.98200  0.92200  Biso   1.000  H
  H1031    1.0000 0.75600  0.88700  0.92500  Biso   1.000  H
  H1032    1.0000 0.81200  0.95000  0.94100  Biso   1.000  H
  H1033    1.0000 0.78800  0.02400  0.95100  Biso   1.000  H
  H1034    1.0000 0.70800  0.03900  0.93400  Biso   1.000  H
  H1035    1.0000 0.65300  0.97600  0.91400  Biso   1.000  H
  Ni46     1.0000 0.14900  0.63110  0.09730  Biso   1.000  Ni
  O181     1.0000 0.19530  0.66160  0.14070  Biso   1.000  O
  O182     1.0000 0.19730  0.62040  0.20700  Biso   1.000  O
  C766     1.0000 0.21270  0.65200  0.17980  Biso   1.000  C
  C767     1.0000 0.25350  0.68060  0.19420  Biso   1.000  C
  C768     1.0000 0.28010  0.66840  0.23370  Biso   1.000  C
  O183     1.0000 0.09180  0.67270  0.11480  Biso   1.000  O
  O184     1.0000 0.12400  0.59140  0.15380  Biso   1.000  O
  C769     1.0000 0.07560  0.66210  0.16020  Biso   1.000  C
  C770     1.0000 0.08030  0.60830  0.17060  Biso   1.000  C
  C771     1.0000 0.03270  0.68480  0.17070  Biso   1.000  C
  C772     1.0000 0.07130  0.59240  0.21680  Biso   1.000  C
  N91      1.0000 0.20440  0.58480  0.08310  Biso   1.000  N
  C773     1.0000 0.24830  0.59820  0.07960  Biso   1.000  C
  C774     1.0000 0.28430  0.56430  0.06770  Biso   1.000  C
  C775     1.0000 0.27570  0.51800  0.05990  Biso   1.000  C
  C776     1.0000 0.23570  0.50560  0.06420  Biso   1.000  C
  C777     1.0000 0.19900  0.53200  0.07510  Biso   1.000  C
  N92      1.0000 0.20200  0.56700  0.08180  Biso   1.000  N
  C778     1.0000 0.24660  0.58080  0.07390  Biso   1.000  C
  C779     1.0000 0.27940  0.54270  0.06300  Biso   1.000  C
  C780     1.0000 0.26710  0.50050  0.05820  Biso   1.000  C
  C781     1.0000 0.21900  0.49250  0.06770  Biso   1.000  C
  C782     1.0000 0.18540  0.52990  0.07990  Biso   1.000  C
  H1036    1.0000 0.27000  0.64000  0.24800  Biso   1.000  H
  H1037    1.0000 0.09800  0.67700  0.18100  Biso   1.000  H
  H1038    1.0000 0.04600  0.64700  0.17200  Biso   1.000  H
  H1039    1.0000 0.09400  0.65800  0.19500  Biso   1.000  H
  H1040    1.0000 0.03500  0.71700  0.16200  Biso   1.000  H
  H1041    1.0000 0.02600  0.68200  0.20400  Biso   1.000  H
  H1042    1.0000 0.00800  0.67000  0.15300  Biso   1.000  H
  H1043    1.0000 0.05700  0.59300  0.15100  Biso   1.000  H
  H1044    1.0000 0.04300  0.67100  0.16300  Biso   1.000  H
  H1045    1.0000 0.09300  0.68000  0.18300  Biso   1.000  H
  H1046    1.0000 0.07600  0.55900  0.21800  Biso   1.000  H
  H1047    1.0000 0.04000  0.60000  0.22500  Biso   1.000  H
  H1048    1.0000 0.09300  0.60700  0.23800  Biso   1.000  H
  H1049    1.0000 0.25700  0.63000  0.08500  Biso   1.000  H
  H1050    1.0000 0.31600  0.57500  0.06500  Biso   1.000  H
  H1051    1.0000 0.30000  0.49600  0.05100  Biso   1.000  H
  H1052    1.0000 0.23000  0.47300  0.05900  Biso   1.000  H
  H1053    1.0000 0.16900  0.51800  0.07800  Biso   1.000  H
  H1054    1.0000 0.25600  0.61300  0.07500  Biso   1.000  H
  H1055    1.0000 0.31200  0.55000  0.05900  Biso   1.000  H
  H1056    1.0000 0.28800  0.47600  0.04900  Biso   1.000  H
  H1057    1.0000 0.20800  0.46100  0.06600  Biso   1.000  H
  H1058    1.0000 0.15300  0.52400  0.08600  Biso   1.000  H
  Ni47     1.0000 0.35100  0.36890  0.59730  Biso   1.000  Ni
  O185     1.0000 0.30470  0.33840  0.64070  Biso   1.000  O
  O186     1.0000 0.30270  0.37960  0.70700  Biso   1.000  O
  C783     1.0000 0.28730  0.34800  0.67980  Biso   1.000  C
  C784     1.0000 0.24650  0.31940  0.69420  Biso   1.000  C
  C785     1.0000 0.21990  0.33160  0.73370  Biso   1.000  C
  O187     1.0000 0.40820  0.32730  0.61480  Biso   1.000  O
  O188     1.0000 0.37600  0.40860  0.65380  Biso   1.000  O
  C786     1.0000 0.42440  0.33790  0.66020  Biso   1.000  C
  C787     1.0000 0.41970  0.39170  0.67060  Biso   1.000  C
  C788     1.0000 0.46730  0.31520  0.67070  Biso   1.000  C
  C789     1.0000 0.42870  0.40760  0.71680  Biso   1.000  C
  N93      1.0000 0.29560  0.41520  0.58310  Biso   1.000  N
  C790     1.0000 0.25170  0.40180  0.57960  Biso   1.000  C
  C791     1.0000 0.21570  0.43570  0.56770  Biso   1.000  C
  C792     1.0000 0.22430  0.48200  0.55990  Biso   1.000  C
  C793     1.0000 0.26430  0.49440  0.56420  Biso   1.000  C
  C794     1.0000 0.30100  0.46800  0.57510  Biso   1.000  C
  N94      1.0000 0.29800  0.43300  0.58180  Biso   1.000  N
  C795     1.0000 0.25340  0.41920  0.57390  Biso   1.000  C
  C796     1.0000 0.22060  0.45730  0.56300  Biso   1.000  C
  C797     1.0000 0.23290  0.49950  0.55820  Biso   1.000  C
  C798     1.0000 0.28100  0.50750  0.56770  Biso   1.000  C
  C799     1.0000 0.31460  0.47010  0.57990  Biso   1.000  C
  H1059    1.0000 0.23000  0.36000  0.74800  Biso   1.000  H
  H1060    1.0000 0.40200  0.32300  0.68100  Biso   1.000  H
  H1061    1.0000 0.45400  0.35300  0.67200  Biso   1.000  H
  H1062    1.0000 0.40600  0.34200  0.69500  Biso   1.000  H
  H1063    1.0000 0.46500  0.28300  0.66200  Biso   1.000  H
  H1064    1.0000 0.47400  0.31800  0.70400  Biso   1.000  H
  H1065    1.0000 0.49200  0.33000  0.65300  Biso   1.000  H
  H1066    1.0000 0.44300  0.40700  0.65100  Biso   1.000  H
  H1067    1.0000 0.45700  0.32900  0.66300  Biso   1.000  H
  H1068    1.0000 0.40700  0.32000  0.68300  Biso   1.000  H
  H1069    1.0000 0.42400  0.44100  0.71800  Biso   1.000  H
  H1070    1.0000 0.46000  0.40000  0.72500  Biso   1.000  H
  H1071    1.0000 0.40700  0.39300  0.73800  Biso   1.000  H
  H1072    1.0000 0.24300  0.37000  0.58500  Biso   1.000  H
  H1073    1.0000 0.18400  0.42500  0.56500  Biso   1.000  H
  H1074    1.0000 0.20000  0.50400  0.55100  Biso   1.000  H
  H1075    1.0000 0.27000  0.52700  0.55900  Biso   1.000  H
  H1076    1.0000 0.33100  0.48200  0.57800  Biso   1.000  H
  H1077    1.0000 0.24400  0.38700  0.57500  Biso   1.000  H
  H1078    1.0000 0.18800  0.45000  0.55900  Biso   1.000  H
  H1079    1.0000 0.21200  0.52400  0.54900  Biso   1.000  H
  H1080    1.0000 0.29200  0.53900  0.56600  Biso   1.000  H
  H1081    1.0000 0.34700  0.47600  0.58600  Biso   1.000  H
  Ni48     1.0000 0.85100  0.13110  0.40270  Biso   1.000  Ni
  O189     1.0000 0.80470  0.16160  0.35930  Biso   1.000  O
  O190     1.0000 0.80270  0.12040  0.29300  Biso   1.000  O
  C800     1.0000 0.78730  0.15200  0.32020  Biso   1.000  C
  C801     1.0000 0.74650  0.18060  0.30580  Biso   1.000  C
  C802     1.0000 0.71990  0.16840  0.26630  Biso   1.000  C
  O191     1.0000 0.90820  0.17270  0.38520  Biso   1.000  O
  O192     1.0000 0.87600  0.09140  0.34620  Biso   1.000  O
  C803     1.0000 0.92440  0.16210  0.33980  Biso   1.000  C
  C804     1.0000 0.91970  0.10830  0.32940  Biso   1.000  C
  C805     1.0000 0.96730  0.18480  0.32930  Biso   1.000  C
  C806     1.0000 0.92870  0.09240  0.28320  Biso   1.000  C
  N95      1.0000 0.79560  0.08480  0.41690  Biso   1.000  N
  C807     1.0000 0.75170  0.09820  0.42040  Biso   1.000  C
  C808     1.0000 0.71570  0.06430  0.43230  Biso   1.000  C
  C809     1.0000 0.72430  0.01800  0.44010  Biso   1.000  C
  C810     1.0000 0.76430  0.00560  0.43580  Biso   1.000  C
  C811     1.0000 0.80100  0.03200  0.42490  Biso   1.000  C
  N96      1.0000 0.79800  0.06700  0.41820  Biso   1.000  N
  C812     1.0000 0.75340  0.08080  0.42610  Biso   1.000  C
  C813     1.0000 0.72060  0.04270  0.43700  Biso   1.000  C
  C814     1.0000 0.73290  0.00050  0.44180  Biso   1.000  C
  C815     1.0000 0.78100  0.99250  0.43230  Biso   1.000  C
  C816     1.0000 0.81460  0.02990  0.42010  Biso   1.000  C
  H1082    1.0000 0.73000  0.14000  0.25200  Biso   1.000  H
  H1083    1.0000 0.90200  0.17700  0.31900  Biso   1.000  H
  H1084    1.0000 0.95400  0.14700  0.32800  Biso   1.000  H
  H1085    1.0000 0.90600  0.15800  0.30500  Biso   1.000  H
  H1086    1.0000 0.96500  0.21700  0.33800  Biso   1.000  H
  H1087    1.0000 0.97400  0.18200  0.29600  Biso   1.000  H
  H1088    1.0000 0.99200  0.17000  0.34700  Biso   1.000  H
  H1089    1.0000 0.94300  0.09300  0.34900  Biso   1.000  H
  H1090    1.0000 0.95700  0.17100  0.33700  Biso   1.000  H
  H1091    1.0000 0.90700  0.18000  0.31700  Biso   1.000  H
  H1092    1.0000 0.92400  0.05900  0.28200  Biso   1.000  H
  H1093    1.0000 0.96000  0.10000  0.27500  Biso   1.000  H
  H1094    1.0000 0.90700  0.10700  0.26200  Biso   1.000  H
  H1095    1.0000 0.74300  0.13000  0.41500  Biso   1.000  H
  H1096    1.0000 0.68400  0.07500  0.43500  Biso   1.000  H
  H1097    1.0000 0.70000  0.99600  0.44900  Biso   1.000  H
  H1098    1.0000 0.77000  0.97300  0.44100  Biso   1.000  H
  H1099    1.0000 0.83100  0.01800  0.42200  Biso   1.000  H
  H1100    1.0000 0.74400  0.11300  0.42500  Biso   1.000  H
  H1101    1.0000 0.68800  0.05000  0.44100  Biso   1.000  H
  H1102    1.0000 0.71200  0.97600  0.45100  Biso   1.000  H
  H1103    1.0000 0.79200  0.96100  0.43400  Biso   1.000  H
  H1104    1.0000 0.84700  0.02400  0.41400  Biso   1.000  H
