data_image0
_cell_length_a       30.88
_cell_length_b       30.88
_cell_length_c       33.781
_cell_angle_alpha    90
_cell_angle_beta     90
_cell_angle_gamma    90

_symmetry_space_group_name_H-M    "P 1"
_symmetry_int_tables_number       1

loop_
  _symmetry_equiv_pos_as_xyz
  'x, y, z'

loop_
  _atom_site_label
  _atom_site_occupancy
  _atom_site_fract_x
  _atom_site_fract_y
  _atom_site_fract_z
  _atom_site_thermal_displace_type
  _atom_site_B_iso_or_equiv
  _atom_site_type_symbol
  Zn1      1.0000 0.29172  0.15594  0.21571  Biso   1.000  Zn
  Zn2      1.0000 0.47942  0.18601  0.22450  Biso   1.000  Zn
  Zn3      1.0000 0.38369  0.24752  0.08733  Biso   1.000  Zn
  N1       1.0000 0.34730  0.16940  0.24400  Biso   1.000  N
  N2       1.0000 0.42050  0.17870  0.25040  Biso   1.000  N
  C1       1.0000 0.38990  0.16460  0.22660  Biso   1.000  C
  C2       1.0000 0.35810  0.19040  0.28020  Biso   1.000  C
  C3       1.0000 0.32740  0.20570  0.31230  Biso   1.000  C
  C4       1.0000 0.42100  0.21570  0.31920  Biso   1.000  C
  C5       1.0000 0.40350  0.19670  0.28860  Biso   1.000  C
  N3       1.0000 0.47130  0.22070  0.17420  Biso   1.000  N
  N4       1.0000 0.43420  0.24630  0.12360  Biso   1.000  N
  C6       1.0000 0.44010  0.21420  0.14900  Biso   1.000  C
  C7       1.0000 0.48870  0.26100  0.16730  Biso   1.000  C
  C8       1.0000 0.52070  0.28570  0.18340  Biso   1.000  C
  C9       1.0000 0.52690  0.33230  0.16900  Biso   1.000  C
  C10      1.0000 0.49900  0.35500  0.13800  Biso   1.000  C
  C11      1.0000 0.47640  0.32620  0.12030  Biso   1.000  C
  C12      1.0000 0.46610  0.28380  0.13450  Biso   1.000  C
  C13      1.0000 0.56000  0.35880  0.18730  Biso   1.000  C
  C14      1.0000 0.51640  0.39830  0.12140  Biso   1.000  C
  N5       1.0000 0.34140  0.20430  0.11180  Biso   1.000  N
  N6       1.0000 0.30510  0.17060  0.15930  Biso   1.000  N
  C15      1.0000 0.32940  0.20570  0.14940  Biso   1.000  C
  C16      1.0000 0.33870  0.16000  0.09580  Biso   1.000  C
  C17      1.0000 0.34780  0.14430  0.06000  Biso   1.000  C
  C18      1.0000 0.33200  0.09900  0.04900  Biso   1.000  C
  C19      1.0000 0.30980  0.08040  0.08490  Biso   1.000  C
  C20      1.0000 0.29550  0.09830  0.12050  Biso   1.000  C
  C21      1.0000 0.31240  0.13910  0.12680  Biso   1.000  C
  C22      1.0000 0.29980  0.17430  0.09160  Biso   1.000  C
  C23      1.0000 0.28470  0.16970  0.05310  Biso   1.000  C
  C24      1.0000 0.24700  0.14580  0.04570  Biso   1.000  C
  C25      1.0000 0.22530  0.12640  0.07700  Biso   1.000  C
  C26      1.0000 0.24040  0.13100  0.11500  Biso   1.000  C
  C27      1.0000 0.27900  0.16600  0.13000  Biso   1.000  C
  N7       1.0000 0.24100  0.18850  0.23520  Biso   1.000  N
  C28      1.0000 0.21770  0.18180  0.27290  Biso   1.000  C
  C29      1.0000 0.22310  0.15730  0.30580  Biso   1.000  C
  C30      1.0000 0.19810  0.16410  0.33630  Biso   1.000  C
  C31      1.0000 0.20480  0.13760  0.37200  Biso   1.000  C
  N8       1.0000 0.40480  0.23130  0.03300  Biso   1.000  N
  C32      1.0000 0.44000  0.20780  0.02350  Biso   1.000  C
  C33      1.0000 0.47200  0.19060  0.04100  Biso   1.000  C
  C34      1.0000 0.50050  0.16800  0.02200  Biso   1.000  C
  C35      1.0000 0.53700  0.14590  0.04330  Biso   1.000  C
  C36      1.0000 0.46400  0.23620  0.02900  Biso   1.000  C
  N9       1.0000 0.49770  0.12600  0.21350  Biso   1.000  N
  N10      1.0000 0.50370  0.05320  0.22070  Biso   1.000  N
  C37      1.0000 0.48510  0.08740  0.23150  Biso   1.000  C
  C38      1.0000 0.53020  0.11330  0.18880  Biso   1.000  C
  C39      1.0000 0.55630  0.13530  0.16240  Biso   1.000  C
  C40      1.0000 0.58570  0.11330  0.14200  Biso   1.000  C
  C41      1.0000 0.59000  0.06600  0.14420  Biso   1.000  C
  C42      1.0000 0.55920  0.04610  0.17420  Biso   1.000  C
  C43      1.0000 0.53180  0.06690  0.19370  Biso   1.000  C
  C44      1.0000 0.62360  0.04100  0.11980  Biso   1.000  C
  N11      1.0000 0.35260  0.29970  0.07190  Biso   1.000  N
  C45      1.0000 0.36620  0.33200  0.04500  Biso   1.000  C
  C46      1.0000 0.40330  0.33640  0.02090  Biso   1.000  C
  C47      1.0000 0.44800  0.38020  0.97240  Biso   1.000  C
  N12      1.0000 0.35840  0.30880  0.10680  Biso   1.000  N
  C48      1.0000 0.35240  0.31940  0.14610  Biso   1.000  C
  C49      1.0000 0.37170  0.31170  0.18640  Biso   1.000  C
  C50      1.0000 0.35440  0.31370  0.21820  Biso   1.000  C
  C51      1.0000 0.37350  0.30540  0.25600  Biso   1.000  C
  N13      1.0000 0.52680  0.20990  0.25880  Biso   1.000  N
  N14      1.0000 0.59370  0.22090  0.27640  Biso   1.000  N
  C52      1.0000 0.56620  0.19470  0.25950  Biso   1.000  C
  C53      1.0000 0.52730  0.25080  0.27400  Biso   1.000  C
  C54      1.0000 0.57000  0.25460  0.28660  Biso   1.000  C
  C55      1.0000 0.58700  0.29520  0.29520  Biso   1.000  C
  C56      1.0000 0.56140  0.33200  0.29120  Biso   1.000  C
  C57      1.0000 0.51870  0.32810  0.27860  Biso   1.000  C
  C58      1.0000 0.50170  0.28750  0.27000  Biso   1.000  C
  C59      1.0000 0.57200  0.38180  0.29910  Biso   1.000  C
  C60      1.0000 0.48980  0.37170  0.27400  Biso   1.000  C
  C61      1.0000 0.59200  0.29000  0.33050  Biso   1.000  C
  C62      1.0000 0.53100  0.32010  0.33060  Biso   1.000  C
  C63      1.0000 0.49010  0.28070  0.30410  Biso   1.000  C
  Zn4      1.0000 0.70828  0.84406  0.21571  Biso   1.000  Zn
  Zn5      1.0000 0.52058  0.81399  0.22450  Biso   1.000  Zn
  Zn6      1.0000 0.61631  0.75248  0.08733  Biso   1.000  Zn
  N15      1.0000 0.65270  0.83060  0.24400  Biso   1.000  N
  N16      1.0000 0.57950  0.82130  0.25040  Biso   1.000  N
  C64      1.0000 0.61010  0.83540  0.22660  Biso   1.000  C
  C65      1.0000 0.64190  0.80960  0.28020  Biso   1.000  C
  C66      1.0000 0.67260  0.79430  0.31230  Biso   1.000  C
  C67      1.0000 0.57900  0.78430  0.31920  Biso   1.000  C
  C68      1.0000 0.59650  0.80330  0.28860  Biso   1.000  C
  N17      1.0000 0.52870  0.77930  0.17420  Biso   1.000  N
  N18      1.0000 0.56580  0.75370  0.12360  Biso   1.000  N
  C69      1.0000 0.55990  0.78580  0.14900  Biso   1.000  C
  C70      1.0000 0.51130  0.73900  0.16730  Biso   1.000  C
  C71      1.0000 0.47930  0.71430  0.18340  Biso   1.000  C
  C72      1.0000 0.47310  0.66770  0.16900  Biso   1.000  C
  C73      1.0000 0.50100  0.64500  0.13800  Biso   1.000  C
  C74      1.0000 0.52360  0.67380  0.12030  Biso   1.000  C
  C75      1.0000 0.53390  0.71620  0.13450  Biso   1.000  C
  C76      1.0000 0.44000  0.64120  0.18730  Biso   1.000  C
  C77      1.0000 0.48360  0.60170  0.12140  Biso   1.000  C
  N19      1.0000 0.65860  0.79570  0.11180  Biso   1.000  N
  N20      1.0000 0.69490  0.82940  0.15930  Biso   1.000  N
  C78      1.0000 0.67060  0.79430  0.14940  Biso   1.000  C
  C79      1.0000 0.66130  0.84000  0.09580  Biso   1.000  C
  C80      1.0000 0.65220  0.85570  0.06000  Biso   1.000  C
  C81      1.0000 0.66800  0.90100  0.04900  Biso   1.000  C
  C82      1.0000 0.69020  0.91960  0.08490  Biso   1.000  C
  C83      1.0000 0.70450  0.90170  0.12050  Biso   1.000  C
  C84      1.0000 0.68760  0.86090  0.12680  Biso   1.000  C
  C85      1.0000 0.70020  0.82570  0.09160  Biso   1.000  C
  C86      1.0000 0.71530  0.83030  0.05310  Biso   1.000  C
  C87      1.0000 0.75300  0.85420  0.04570  Biso   1.000  C
  C88      1.0000 0.77470  0.87360  0.07700  Biso   1.000  C
  C89      1.0000 0.75960  0.86900  0.11500  Biso   1.000  C
  C90      1.0000 0.72100  0.83400  0.13000  Biso   1.000  C
  N21      1.0000 0.75900  0.81150  0.23520  Biso   1.000  N
  C91      1.0000 0.78230  0.81820  0.27290  Biso   1.000  C
  C92      1.0000 0.77690  0.84270  0.30580  Biso   1.000  C
  C93      1.0000 0.80190  0.83590  0.33630  Biso   1.000  C
  C94      1.0000 0.79520  0.86240  0.37200  Biso   1.000  C
  N22      1.0000 0.59520  0.76870  0.03300  Biso   1.000  N
  C95      1.0000 0.56000  0.79220  0.02350  Biso   1.000  C
  C96      1.0000 0.52800  0.80940  0.04100  Biso   1.000  C
  C97      1.0000 0.49950  0.83200  0.02200  Biso   1.000  C
  C98      1.0000 0.46300  0.85410  0.04330  Biso   1.000  C
  C99      1.0000 0.53600  0.76380  0.02900  Biso   1.000  C
  N23      1.0000 0.50230  0.87400  0.21350  Biso   1.000  N
  N24      1.0000 0.49630  0.94680  0.22070  Biso   1.000  N
  C100     1.0000 0.51490  0.91260  0.23150  Biso   1.000  C
  C101     1.0000 0.46980  0.88670  0.18880  Biso   1.000  C
  C102     1.0000 0.44370  0.86470  0.16240  Biso   1.000  C
  C103     1.0000 0.41430  0.88670  0.14200  Biso   1.000  C
  C104     1.0000 0.41000  0.93400  0.14420  Biso   1.000  C
  C105     1.0000 0.44080  0.95390  0.17420  Biso   1.000  C
  C106     1.0000 0.46820  0.93310  0.19370  Biso   1.000  C
  C107     1.0000 0.37640  0.95900  0.11980  Biso   1.000  C
  N25      1.0000 0.64740  0.70030  0.07190  Biso   1.000  N
  C108     1.0000 0.63380  0.66800  0.04500  Biso   1.000  C
  C109     1.0000 0.59670  0.66360  0.02090  Biso   1.000  C
  C110     1.0000 0.55200  0.61980  0.97240  Biso   1.000  C
  N26      1.0000 0.64160  0.69120  0.10680  Biso   1.000  N
  C111     1.0000 0.64760  0.68060  0.14610  Biso   1.000  C
  C112     1.0000 0.62830  0.68830  0.18640  Biso   1.000  C
  C113     1.0000 0.64560  0.68630  0.21820  Biso   1.000  C
  C114     1.0000 0.62650  0.69460  0.25600  Biso   1.000  C
  N27      1.0000 0.47320  0.79010  0.25880  Biso   1.000  N
  N28      1.0000 0.40630  0.77910  0.27640  Biso   1.000  N
  C115     1.0000 0.43380  0.80530  0.25950  Biso   1.000  C
  C116     1.0000 0.47270  0.74920  0.27400  Biso   1.000  C
  C117     1.0000 0.43000  0.74540  0.28660  Biso   1.000  C
  C118     1.0000 0.41300  0.70480  0.29520  Biso   1.000  C
  C119     1.0000 0.43860  0.66800  0.29120  Biso   1.000  C
  C120     1.0000 0.48130  0.67190  0.27860  Biso   1.000  C
  C121     1.0000 0.49830  0.71250  0.27000  Biso   1.000  C
  C122     1.0000 0.42800  0.61820  0.29910  Biso   1.000  C
  C123     1.0000 0.51020  0.62830  0.27400  Biso   1.000  C
  C124     1.0000 0.40800  0.71000  0.33050  Biso   1.000  C
  C125     1.0000 0.46900  0.67990  0.33060  Biso   1.000  C
  C126     1.0000 0.50990  0.71930  0.30410  Biso   1.000  C
  Zn7      1.0000 0.34406  0.79172  0.71571  Biso   1.000  Zn
  Zn8      1.0000 0.31399  0.97942  0.72450  Biso   1.000  Zn
  Zn9      1.0000 0.25248  0.88369  0.58733  Biso   1.000  Zn
  N29      1.0000 0.33060  0.84730  0.74400  Biso   1.000  N
  N30      1.0000 0.32130  0.92050  0.75040  Biso   1.000  N
  C127     1.0000 0.33540  0.88990  0.72660  Biso   1.000  C
  C128     1.0000 0.30960  0.85810  0.78020  Biso   1.000  C
  C129     1.0000 0.29430  0.82740  0.81230  Biso   1.000  C
  C130     1.0000 0.28430  0.92100  0.81920  Biso   1.000  C
  C131     1.0000 0.30330  0.90350  0.78860  Biso   1.000  C
  N31      1.0000 0.27930  0.97130  0.67420  Biso   1.000  N
  N32      1.0000 0.25370  0.93420  0.62360  Biso   1.000  N
  C132     1.0000 0.28580  0.94010  0.64900  Biso   1.000  C
  C133     1.0000 0.23900  0.98870  0.66730  Biso   1.000  C
  C134     1.0000 0.21430  0.02070  0.68340  Biso   1.000  C
  C135     1.0000 0.16770  0.02690  0.66900  Biso   1.000  C
  C136     1.0000 0.14500  0.99900  0.63800  Biso   1.000  C
  C137     1.0000 0.17380  0.97640  0.62030  Biso   1.000  C
  C138     1.0000 0.21620  0.96610  0.63450  Biso   1.000  C
  C139     1.0000 0.14120  0.06000  0.68730  Biso   1.000  C
  C140     1.0000 0.10170  0.01640  0.62140  Biso   1.000  C
  N33      1.0000 0.29570  0.84140  0.61180  Biso   1.000  N
  N34      1.0000 0.32940  0.80510  0.65930  Biso   1.000  N
  C141     1.0000 0.29430  0.82940  0.64940  Biso   1.000  C
  C142     1.0000 0.34000  0.83870  0.59580  Biso   1.000  C
  C143     1.0000 0.35570  0.84780  0.56000  Biso   1.000  C
  C144     1.0000 0.40100  0.83200  0.54900  Biso   1.000  C
  C145     1.0000 0.41960  0.80980  0.58490  Biso   1.000  C
  C146     1.0000 0.40170  0.79550  0.62050  Biso   1.000  C
  C147     1.0000 0.36090  0.81240  0.62680  Biso   1.000  C
  C148     1.0000 0.32570  0.79980  0.59160  Biso   1.000  C
  C149     1.0000 0.33030  0.78470  0.55310  Biso   1.000  C
  C150     1.0000 0.35420  0.74700  0.54570  Biso   1.000  C
  C151     1.0000 0.37360  0.72530  0.57700  Biso   1.000  C
  C152     1.0000 0.36900  0.74040  0.61500  Biso   1.000  C
  C153     1.0000 0.33400  0.77900  0.63000  Biso   1.000  C
  N35      1.0000 0.31150  0.74100  0.73520  Biso   1.000  N
  C154     1.0000 0.31820  0.71770  0.77290  Biso   1.000  C
  C155     1.0000 0.34270  0.72310  0.80580  Biso   1.000  C
  C156     1.0000 0.33590  0.69810  0.83630  Biso   1.000  C
  C157     1.0000 0.36240  0.70480  0.87200  Biso   1.000  C
  N36      1.0000 0.26870  0.90480  0.53300  Biso   1.000  N
  C158     1.0000 0.29220  0.94000  0.52350  Biso   1.000  C
  C159     1.0000 0.30940  0.97200  0.54100  Biso   1.000  C
  C160     1.0000 0.33200  0.00050  0.52200  Biso   1.000  C
  C161     1.0000 0.35410  0.03700  0.54330  Biso   1.000  C
  C162     1.0000 0.26380  0.96400  0.52900  Biso   1.000  C
  N37      1.0000 0.37400  0.99770  0.71350  Biso   1.000  N
  N38      1.0000 0.44680  0.00370  0.72070  Biso   1.000  N
  C163     1.0000 0.41260  0.98510  0.73150  Biso   1.000  C
  C164     1.0000 0.38670  0.03020  0.68880  Biso   1.000  C
  C165     1.0000 0.36470  0.05630  0.66240  Biso   1.000  C
  C166     1.0000 0.38670  0.08570  0.64200  Biso   1.000  C
  C167     1.0000 0.43400  0.09000  0.64420  Biso   1.000  C
  C168     1.0000 0.45390  0.05920  0.67420  Biso   1.000  C
  C169     1.0000 0.43310  0.03180  0.69370  Biso   1.000  C
  C170     1.0000 0.45900  0.12360  0.61980  Biso   1.000  C
  N39      1.0000 0.20030  0.85260  0.57190  Biso   1.000  N
  C171     1.0000 0.16800  0.86620  0.54500  Biso   1.000  C
  C172     1.0000 0.16360  0.90330  0.52090  Biso   1.000  C
  C173     1.0000 0.11980  0.94800  0.47240  Biso   1.000  C
  N40      1.0000 0.19120  0.85840  0.60680  Biso   1.000  N
  C174     1.0000 0.18060  0.85240  0.64610  Biso   1.000  C
  C175     1.0000 0.18830  0.87170  0.68640  Biso   1.000  C
  C176     1.0000 0.18630  0.85440  0.71820  Biso   1.000  C
  C177     1.0000 0.19460  0.87350  0.75600  Biso   1.000  C
  N41      1.0000 0.29010  0.02680  0.75880  Biso   1.000  N
  N42      1.0000 0.27910  0.09370  0.77640  Biso   1.000  N
  C178     1.0000 0.30530  0.06620  0.75950  Biso   1.000  C
  C179     1.0000 0.24920  0.02730  0.77400  Biso   1.000  C
  C180     1.0000 0.24540  0.07000  0.78660  Biso   1.000  C
  C181     1.0000 0.20480  0.08700  0.79520  Biso   1.000  C
  C182     1.0000 0.16800  0.06140  0.79120  Biso   1.000  C
  C183     1.0000 0.17190  0.01870  0.77860  Biso   1.000  C
  C184     1.0000 0.21250  0.00170  0.77000  Biso   1.000  C
  C185     1.0000 0.11820  0.07200  0.79910  Biso   1.000  C
  C186     1.0000 0.12830  0.98980  0.77400  Biso   1.000  C
  C187     1.0000 0.21000  0.09200  0.83050  Biso   1.000  C
  C188     1.0000 0.17990  0.03100  0.83060  Biso   1.000  C
  C189     1.0000 0.21930  0.99010  0.80410  Biso   1.000  C
  Zn10     1.0000 0.65594  0.20828  0.71571  Biso   1.000  Zn
  Zn11     1.0000 0.68601  0.02058  0.72450  Biso   1.000  Zn
  Zn12     1.0000 0.74752  0.11631  0.58733  Biso   1.000  Zn
  N43      1.0000 0.66940  0.15270  0.74400  Biso   1.000  N
  N44      1.0000 0.67870  0.07950  0.75040  Biso   1.000  N
  C190     1.0000 0.66460  0.11010  0.72660  Biso   1.000  C
  C191     1.0000 0.69040  0.14190  0.78020  Biso   1.000  C
  C192     1.0000 0.70570  0.17260  0.81230  Biso   1.000  C
  C193     1.0000 0.71570  0.07900  0.81920  Biso   1.000  C
  C194     1.0000 0.69670  0.09650  0.78860  Biso   1.000  C
  N45      1.0000 0.72070  0.02870  0.67420  Biso   1.000  N
  N46      1.0000 0.74630  0.06580  0.62360  Biso   1.000  N
  C195     1.0000 0.71420  0.05990  0.64900  Biso   1.000  C
  C196     1.0000 0.76100  0.01130  0.66730  Biso   1.000  C
  C197     1.0000 0.78570  0.97930  0.68340  Biso   1.000  C
  C198     1.0000 0.83230  0.97310  0.66900  Biso   1.000  C
  C199     1.0000 0.85500  0.00100  0.63800  Biso   1.000  C
  C200     1.0000 0.82620  0.02360  0.62030  Biso   1.000  C
  C201     1.0000 0.78380  0.03390  0.63450  Biso   1.000  C
  C202     1.0000 0.85880  0.94000  0.68730  Biso   1.000  C
  C203     1.0000 0.89830  0.98360  0.62140  Biso   1.000  C
  N47      1.0000 0.70430  0.15860  0.61180  Biso   1.000  N
  N48      1.0000 0.67060  0.19490  0.65930  Biso   1.000  N
  C204     1.0000 0.70570  0.17060  0.64940  Biso   1.000  C
  C205     1.0000 0.66000  0.16130  0.59580  Biso   1.000  C
  C206     1.0000 0.64430  0.15220  0.56000  Biso   1.000  C
  C207     1.0000 0.59900  0.16800  0.54900  Biso   1.000  C
  C208     1.0000 0.58040  0.19020  0.58490  Biso   1.000  C
  C209     1.0000 0.59830  0.20450  0.62050  Biso   1.000  C
  C210     1.0000 0.63910  0.18760  0.62680  Biso   1.000  C
  C211     1.0000 0.67430  0.20020  0.59160  Biso   1.000  C
  C212     1.0000 0.66970  0.21530  0.55310  Biso   1.000  C
  C213     1.0000 0.64580  0.25300  0.54570  Biso   1.000  C
  C214     1.0000 0.62640  0.27470  0.57700  Biso   1.000  C
  C215     1.0000 0.63100  0.25960  0.61500  Biso   1.000  C
  C216     1.0000 0.66600  0.22100  0.63000  Biso   1.000  C
  N49      1.0000 0.68850  0.25900  0.73520  Biso   1.000  N
  C217     1.0000 0.68180  0.28230  0.77290  Biso   1.000  C
  C218     1.0000 0.65730  0.27690  0.80580  Biso   1.000  C
  C219     1.0000 0.66410  0.30190  0.83630  Biso   1.000  C
  C220     1.0000 0.63760  0.29520  0.87200  Biso   1.000  C
  N50      1.0000 0.73130  0.09520  0.53300  Biso   1.000  N
  C221     1.0000 0.70780  0.06000  0.52350  Biso   1.000  C
  C222     1.0000 0.69060  0.02800  0.54100  Biso   1.000  C
  C223     1.0000 0.66800  0.99950  0.52200  Biso   1.000  C
  C224     1.0000 0.64590  0.96300  0.54330  Biso   1.000  C
  C225     1.0000 0.73620  0.03600  0.52900  Biso   1.000  C
  N51      1.0000 0.62600  0.00230  0.71350  Biso   1.000  N
  N52      1.0000 0.55320  0.99630  0.72070  Biso   1.000  N
  C226     1.0000 0.58740  0.01490  0.73150  Biso   1.000  C
  C227     1.0000 0.61330  0.96980  0.68880  Biso   1.000  C
  C228     1.0000 0.63530  0.94370  0.66240  Biso   1.000  C
  C229     1.0000 0.61330  0.91430  0.64200  Biso   1.000  C
  C230     1.0000 0.56600  0.91000  0.64420  Biso   1.000  C
  C231     1.0000 0.54610  0.94080  0.67420  Biso   1.000  C
  C232     1.0000 0.56690  0.96820  0.69370  Biso   1.000  C
  C233     1.0000 0.54100  0.87640  0.61980  Biso   1.000  C
  N53      1.0000 0.79970  0.14740  0.57190  Biso   1.000  N
  C234     1.0000 0.83200  0.13380  0.54500  Biso   1.000  C
  C235     1.0000 0.83640  0.09670  0.52090  Biso   1.000  C
  C236     1.0000 0.88020  0.05200  0.47240  Biso   1.000  C
  N54      1.0000 0.80880  0.14160  0.60680  Biso   1.000  N
  C237     1.0000 0.81940  0.14760  0.64610  Biso   1.000  C
  C238     1.0000 0.81170  0.12830  0.68640  Biso   1.000  C
  C239     1.0000 0.81370  0.14560  0.71820  Biso   1.000  C
  C240     1.0000 0.80540  0.12650  0.75600  Biso   1.000  C
  N55      1.0000 0.70990  0.97320  0.75880  Biso   1.000  N
  N56      1.0000 0.72090  0.90630  0.77640  Biso   1.000  N
  C241     1.0000 0.69470  0.93380  0.75950  Biso   1.000  C
  C242     1.0000 0.75080  0.97270  0.77400  Biso   1.000  C
  C243     1.0000 0.75460  0.93000  0.78660  Biso   1.000  C
  C244     1.0000 0.79520  0.91300  0.79520  Biso   1.000  C
  C245     1.0000 0.83200  0.93860  0.79120  Biso   1.000  C
  C246     1.0000 0.82810  0.98130  0.77860  Biso   1.000  C
  C247     1.0000 0.78750  0.99830  0.77000  Biso   1.000  C
  C248     1.0000 0.88180  0.92800  0.79910  Biso   1.000  C
  C249     1.0000 0.87170  0.01020  0.77400  Biso   1.000  C
  C250     1.0000 0.79000  0.90800  0.83050  Biso   1.000  C
  C251     1.0000 0.82010  0.96900  0.83060  Biso   1.000  C
  C252     1.0000 0.78070  0.00990  0.80410  Biso   1.000  C
  Zn13     1.0000 0.20828  0.65594  0.28429  Biso   1.000  Zn
  Zn14     1.0000 0.02058  0.68601  0.27550  Biso   1.000  Zn
  Zn15     1.0000 0.11631  0.74752  0.41267  Biso   1.000  Zn
  N57      1.0000 0.15270  0.66940  0.25600  Biso   1.000  N
  N58      1.0000 0.07950  0.67870  0.24960  Biso   1.000  N
  C253     1.0000 0.11010  0.66460  0.27340  Biso   1.000  C
  C254     1.0000 0.14190  0.69040  0.21980  Biso   1.000  C
  C255     1.0000 0.17260  0.70570  0.18770  Biso   1.000  C
  C256     1.0000 0.07900  0.71570  0.18080  Biso   1.000  C
  C257     1.0000 0.09650  0.69670  0.21140  Biso   1.000  C
  N59      1.0000 0.02870  0.72070  0.32580  Biso   1.000  N
  N60      1.0000 0.06580  0.74630  0.37640  Biso   1.000  N
  C258     1.0000 0.05990  0.71420  0.35100  Biso   1.000  C
  C259     1.0000 0.01130  0.76100  0.33270  Biso   1.000  C
  C260     1.0000 0.97930  0.78570  0.31660  Biso   1.000  C
  C261     1.0000 0.97310  0.83230  0.33100  Biso   1.000  C
  C262     1.0000 0.00100  0.85500  0.36200  Biso   1.000  C
  C263     1.0000 0.02360  0.82620  0.37970  Biso   1.000  C
  C264     1.0000 0.03390  0.78380  0.36550  Biso   1.000  C
  C265     1.0000 0.94000  0.85880  0.31270  Biso   1.000  C
  C266     1.0000 0.98360  0.89830  0.37860  Biso   1.000  C
  N61      1.0000 0.15860  0.70430  0.38820  Biso   1.000  N
  N62      1.0000 0.19490  0.67060  0.34070  Biso   1.000  N
  C267     1.0000 0.17060  0.70570  0.35060  Biso   1.000  C
  C268     1.0000 0.16130  0.66000  0.40420  Biso   1.000  C
  C269     1.0000 0.15220  0.64430  0.44000  Biso   1.000  C
  C270     1.0000 0.16800  0.59900  0.45100  Biso   1.000  C
  C271     1.0000 0.19020  0.58040  0.41510  Biso   1.000  C
  C272     1.0000 0.20450  0.59830  0.37950  Biso   1.000  C
  C273     1.0000 0.18760  0.63910  0.37320  Biso   1.000  C
  C274     1.0000 0.20020  0.67430  0.40840  Biso   1.000  C
  C275     1.0000 0.21530  0.66970  0.44690  Biso   1.000  C
  C276     1.0000 0.25300  0.64580  0.45430  Biso   1.000  C
  C277     1.0000 0.27470  0.62640  0.42300  Biso   1.000  C
  C278     1.0000 0.25960  0.63100  0.38500  Biso   1.000  C
  C279     1.0000 0.22100  0.66600  0.37000  Biso   1.000  C
  N63      1.0000 0.25900  0.68850  0.26480  Biso   1.000  N
  C280     1.0000 0.28230  0.68180  0.22710  Biso   1.000  C
  C281     1.0000 0.27690  0.65730  0.19420  Biso   1.000  C
  C282     1.0000 0.30190  0.66410  0.16370  Biso   1.000  C
  C283     1.0000 0.29520  0.63760  0.12800  Biso   1.000  C
  N64      1.0000 0.09520  0.73130  0.46700  Biso   1.000  N
  C284     1.0000 0.06000  0.70780  0.47650  Biso   1.000  C
  C285     1.0000 0.02800  0.69060  0.45900  Biso   1.000  C
  C286     1.0000 0.99950  0.66800  0.47800  Biso   1.000  C
  C287     1.0000 0.96300  0.64590  0.45670  Biso   1.000  C
  C288     1.0000 0.03600  0.73620  0.47100  Biso   1.000  C
  N65      1.0000 0.00230  0.62600  0.28650  Biso   1.000  N
  N66      1.0000 0.99630  0.55320  0.27930  Biso   1.000  N
  C289     1.0000 0.01490  0.58740  0.26850  Biso   1.000  C
  C290     1.0000 0.96980  0.61330  0.31120  Biso   1.000  C
  C291     1.0000 0.94370  0.63530  0.33760  Biso   1.000  C
  C292     1.0000 0.91430  0.61330  0.35800  Biso   1.000  C
  C293     1.0000 0.91000  0.56600  0.35580  Biso   1.000  C
  C294     1.0000 0.94080  0.54610  0.32580  Biso   1.000  C
  C295     1.0000 0.96820  0.56690  0.30630  Biso   1.000  C
  C296     1.0000 0.87640  0.54100  0.38020  Biso   1.000  C
  N67      1.0000 0.14740  0.79970  0.42810  Biso   1.000  N
  C297     1.0000 0.13380  0.83200  0.45500  Biso   1.000  C
  C298     1.0000 0.09670  0.83640  0.47910  Biso   1.000  C
  C299     1.0000 0.05200  0.88020  0.52760  Biso   1.000  C
  N68      1.0000 0.14160  0.80880  0.39320  Biso   1.000  N
  C300     1.0000 0.14760  0.81940  0.35390  Biso   1.000  C
  C301     1.0000 0.12830  0.81170  0.31360  Biso   1.000  C
  C302     1.0000 0.14560  0.81370  0.28180  Biso   1.000  C
  C303     1.0000 0.12650  0.80540  0.24400  Biso   1.000  C
  N69      1.0000 0.97320  0.70990  0.24120  Biso   1.000  N
  N70      1.0000 0.90630  0.72090  0.22360  Biso   1.000  N
  C304     1.0000 0.93380  0.69470  0.24050  Biso   1.000  C
  C305     1.0000 0.97270  0.75080  0.22600  Biso   1.000  C
  C306     1.0000 0.93000  0.75460  0.21340  Biso   1.000  C
  C307     1.0000 0.91300  0.79520  0.20480  Biso   1.000  C
  C308     1.0000 0.93860  0.83200  0.20880  Biso   1.000  C
  C309     1.0000 0.98130  0.82810  0.22140  Biso   1.000  C
  C310     1.0000 0.99830  0.78750  0.23000  Biso   1.000  C
  C311     1.0000 0.92800  0.88180  0.20090  Biso   1.000  C
  C312     1.0000 0.01020  0.87170  0.22600  Biso   1.000  C
  C313     1.0000 0.90800  0.79000  0.16950  Biso   1.000  C
  C314     1.0000 0.96900  0.82010  0.16940  Biso   1.000  C
  C315     1.0000 0.00990  0.78070  0.19590  Biso   1.000  C
  Zn16     1.0000 0.79172  0.34406  0.28429  Biso   1.000  Zn
  Zn17     1.0000 0.97942  0.31399  0.27550  Biso   1.000  Zn
  Zn18     1.0000 0.88369  0.25248  0.41267  Biso   1.000  Zn
  N71      1.0000 0.84730  0.33060  0.25600  Biso   1.000  N
  N72      1.0000 0.92050  0.32130  0.24960  Biso   1.000  N
  C316     1.0000 0.88990  0.33540  0.27340  Biso   1.000  C
  C317     1.0000 0.85810  0.30960  0.21980  Biso   1.000  C
  C318     1.0000 0.82740  0.29430  0.18770  Biso   1.000  C
  C319     1.0000 0.92100  0.28430  0.18080  Biso   1.000  C
  C320     1.0000 0.90350  0.30330  0.21140  Biso   1.000  C
  N73      1.0000 0.97130  0.27930  0.32580  Biso   1.000  N
  N74      1.0000 0.93420  0.25370  0.37640  Biso   1.000  N
  C321     1.0000 0.94010  0.28580  0.35100  Biso   1.000  C
  C322     1.0000 0.98870  0.23900  0.33270  Biso   1.000  C
  C323     1.0000 0.02070  0.21430  0.31660  Biso   1.000  C
  C324     1.0000 0.02690  0.16770  0.33100  Biso   1.000  C
  C325     1.0000 0.99900  0.14500  0.36200  Biso   1.000  C
  C326     1.0000 0.97640  0.17380  0.37970  Biso   1.000  C
  C327     1.0000 0.96610  0.21620  0.36550  Biso   1.000  C
  C328     1.0000 0.06000  0.14120  0.31270  Biso   1.000  C
  C329     1.0000 0.01640  0.10170  0.37860  Biso   1.000  C
  N75      1.0000 0.84140  0.29570  0.38820  Biso   1.000  N
  N76      1.0000 0.80510  0.32940  0.34070  Biso   1.000  N
  C330     1.0000 0.82940  0.29430  0.35060  Biso   1.000  C
  C331     1.0000 0.83870  0.34000  0.40420  Biso   1.000  C
  C332     1.0000 0.84780  0.35570  0.44000  Biso   1.000  C
  C333     1.0000 0.83200  0.40100  0.45100  Biso   1.000  C
  C334     1.0000 0.80980  0.41960  0.41510  Biso   1.000  C
  C335     1.0000 0.79550  0.40170  0.37950  Biso   1.000  C
  C336     1.0000 0.81240  0.36090  0.37320  Biso   1.000  C
  C337     1.0000 0.79980  0.32570  0.40840  Biso   1.000  C
  C338     1.0000 0.78470  0.33030  0.44690  Biso   1.000  C
  C339     1.0000 0.74700  0.35420  0.45430  Biso   1.000  C
  C340     1.0000 0.72530  0.37360  0.42300  Biso   1.000  C
  C341     1.0000 0.74040  0.36900  0.38500  Biso   1.000  C
  C342     1.0000 0.77900  0.33400  0.37000  Biso   1.000  C
  N77      1.0000 0.74100  0.31150  0.26480  Biso   1.000  N
  C343     1.0000 0.71770  0.31820  0.22710  Biso   1.000  C
  C344     1.0000 0.72310  0.34270  0.19420  Biso   1.000  C
  C345     1.0000 0.69810  0.33590  0.16370  Biso   1.000  C
  C346     1.0000 0.70480  0.36240  0.12800  Biso   1.000  C
  N78      1.0000 0.90480  0.26870  0.46700  Biso   1.000  N
  C347     1.0000 0.94000  0.29220  0.47650  Biso   1.000  C
  C348     1.0000 0.97200  0.30940  0.45900  Biso   1.000  C
  C349     1.0000 0.00050  0.33200  0.47800  Biso   1.000  C
  C350     1.0000 0.03700  0.35410  0.45670  Biso   1.000  C
  C351     1.0000 0.96400  0.26380  0.47100  Biso   1.000  C
  N79      1.0000 0.99770  0.37400  0.28650  Biso   1.000  N
  N80      1.0000 0.00370  0.44680  0.27930  Biso   1.000  N
  C352     1.0000 0.98510  0.41260  0.26850  Biso   1.000  C
  C353     1.0000 0.03020  0.38670  0.31120  Biso   1.000  C
  C354     1.0000 0.05630  0.36470  0.33760  Biso   1.000  C
  C355     1.0000 0.08570  0.38670  0.35800  Biso   1.000  C
  C356     1.0000 0.09000  0.43400  0.35580  Biso   1.000  C
  C357     1.0000 0.05920  0.45390  0.32580  Biso   1.000  C
  C358     1.0000 0.03180  0.43310  0.30630  Biso   1.000  C
  C359     1.0000 0.12360  0.45900  0.38020  Biso   1.000  C
  N81      1.0000 0.85260  0.20030  0.42810  Biso   1.000  N
  C360     1.0000 0.86620  0.16800  0.45500  Biso   1.000  C
  C361     1.0000 0.90330  0.16360  0.47910  Biso   1.000  C
  C362     1.0000 0.94800  0.11980  0.52760  Biso   1.000  C
  N82      1.0000 0.85840  0.19120  0.39320  Biso   1.000  N
  C363     1.0000 0.85240  0.18060  0.35390  Biso   1.000  C
  C364     1.0000 0.87170  0.18830  0.31360  Biso   1.000  C
  C365     1.0000 0.85440  0.18630  0.28180  Biso   1.000  C
  C366     1.0000 0.87350  0.19460  0.24400  Biso   1.000  C
  N83      1.0000 0.02680  0.29010  0.24120  Biso   1.000  N
  N84      1.0000 0.09370  0.27910  0.22360  Biso   1.000  N
  C367     1.0000 0.06620  0.30530  0.24050  Biso   1.000  C
  C368     1.0000 0.02730  0.24920  0.22600  Biso   1.000  C
  C369     1.0000 0.07000  0.24540  0.21340  Biso   1.000  C
  C370     1.0000 0.08700  0.20480  0.20480  Biso   1.000  C
  C371     1.0000 0.06140  0.16800  0.20880  Biso   1.000  C
  C372     1.0000 0.01870  0.17190  0.22140  Biso   1.000  C
  C373     1.0000 0.00170  0.21250  0.23000  Biso   1.000  C
  C374     1.0000 0.07200  0.11820  0.20090  Biso   1.000  C
  C375     1.0000 0.98980  0.12830  0.22600  Biso   1.000  C
  C376     1.0000 0.09200  0.21000  0.16950  Biso   1.000  C
  C377     1.0000 0.03100  0.17990  0.16940  Biso   1.000  C
  C378     1.0000 0.99010  0.21930  0.19590  Biso   1.000  C
  Zn19     1.0000 0.15594  0.29172  0.78429  Biso   1.000  Zn
  Zn20     1.0000 0.18601  0.47942  0.77550  Biso   1.000  Zn
  Zn21     1.0000 0.24752  0.38369  0.91267  Biso   1.000  Zn
  N85      1.0000 0.16940  0.34730  0.75600  Biso   1.000  N
  N86      1.0000 0.17870  0.42050  0.74960  Biso   1.000  N
  C379     1.0000 0.16460  0.38990  0.77340  Biso   1.000  C
  C380     1.0000 0.19040  0.35810  0.71980  Biso   1.000  C
  C381     1.0000 0.20570  0.32740  0.68770  Biso   1.000  C
  C382     1.0000 0.21570  0.42100  0.68080  Biso   1.000  C
  C383     1.0000 0.19670  0.40350  0.71140  Biso   1.000  C
  N87      1.0000 0.22070  0.47130  0.82580  Biso   1.000  N
  N88      1.0000 0.24630  0.43420  0.87640  Biso   1.000  N
  C384     1.0000 0.21420  0.44010  0.85100  Biso   1.000  C
  C385     1.0000 0.26100  0.48870  0.83270  Biso   1.000  C
  C386     1.0000 0.28570  0.52070  0.81660  Biso   1.000  C
  C387     1.0000 0.33230  0.52690  0.83100  Biso   1.000  C
  C388     1.0000 0.35500  0.49900  0.86200  Biso   1.000  C
  C389     1.0000 0.32620  0.47640  0.87970  Biso   1.000  C
  C390     1.0000 0.28380  0.46610  0.86550  Biso   1.000  C
  C391     1.0000 0.35880  0.56000  0.81270  Biso   1.000  C
  C392     1.0000 0.39830  0.51640  0.87860  Biso   1.000  C
  N89      1.0000 0.20430  0.34140  0.88820  Biso   1.000  N
  N90      1.0000 0.17060  0.30510  0.84070  Biso   1.000  N
  C393     1.0000 0.20570  0.32940  0.85060  Biso   1.000  C
  C394     1.0000 0.16000  0.33870  0.90420  Biso   1.000  C
  C395     1.0000 0.14430  0.34780  0.94000  Biso   1.000  C
  C396     1.0000 0.09900  0.33200  0.95100  Biso   1.000  C
  C397     1.0000 0.08040  0.30980  0.91510  Biso   1.000  C
  C398     1.0000 0.09830  0.29550  0.87950  Biso   1.000  C
  C399     1.0000 0.13910  0.31240  0.87320  Biso   1.000  C
  C400     1.0000 0.17430  0.29980  0.90840  Biso   1.000  C
  C401     1.0000 0.16970  0.28470  0.94690  Biso   1.000  C
  C402     1.0000 0.14580  0.24700  0.95430  Biso   1.000  C
  C403     1.0000 0.12640  0.22530  0.92300  Biso   1.000  C
  C404     1.0000 0.13100  0.24040  0.88500  Biso   1.000  C
  C405     1.0000 0.16600  0.27900  0.87000  Biso   1.000  C
  N91      1.0000 0.18850  0.24100  0.76480  Biso   1.000  N
  C406     1.0000 0.18180  0.21770  0.72710  Biso   1.000  C
  C407     1.0000 0.15730  0.22310  0.69420  Biso   1.000  C
  C408     1.0000 0.16410  0.19810  0.66370  Biso   1.000  C
  C409     1.0000 0.13760  0.20480  0.62800  Biso   1.000  C
  N92      1.0000 0.23130  0.40480  0.96700  Biso   1.000  N
  C410     1.0000 0.20780  0.44000  0.97650  Biso   1.000  C
  C411     1.0000 0.19060  0.47200  0.95900  Biso   1.000  C
  C412     1.0000 0.16800  0.50050  0.97800  Biso   1.000  C
  C413     1.0000 0.14590  0.53700  0.95670  Biso   1.000  C
  C414     1.0000 0.23620  0.46400  0.97100  Biso   1.000  C
  N93      1.0000 0.12600  0.49770  0.78650  Biso   1.000  N
  N94      1.0000 0.05320  0.50370  0.77930  Biso   1.000  N
  C415     1.0000 0.08740  0.48510  0.76850  Biso   1.000  C
  C416     1.0000 0.11330  0.53020  0.81120  Biso   1.000  C
  C417     1.0000 0.13530  0.55630  0.83760  Biso   1.000  C
  C418     1.0000 0.11330  0.58570  0.85800  Biso   1.000  C
  C419     1.0000 0.06600  0.59000  0.85580  Biso   1.000  C
  C420     1.0000 0.04610  0.55920  0.82580  Biso   1.000  C
  C421     1.0000 0.06690  0.53180  0.80630  Biso   1.000  C
  C422     1.0000 0.04100  0.62360  0.88020  Biso   1.000  C
  N95      1.0000 0.29970  0.35260  0.92810  Biso   1.000  N
  C423     1.0000 0.33200  0.36620  0.95500  Biso   1.000  C
  C424     1.0000 0.33640  0.40330  0.97910  Biso   1.000  C
  C425     1.0000 0.38020  0.44800  0.02760  Biso   1.000  C
  N96      1.0000 0.30880  0.35840  0.89320  Biso   1.000  N
  C426     1.0000 0.31940  0.35240  0.85390  Biso   1.000  C
  C427     1.0000 0.31170  0.37170  0.81360  Biso   1.000  C
  C428     1.0000 0.31370  0.35440  0.78180  Biso   1.000  C
  C429     1.0000 0.30540  0.37350  0.74400  Biso   1.000  C
  N97      1.0000 0.20990  0.52680  0.74120  Biso   1.000  N
  N98      1.0000 0.22090  0.59370  0.72360  Biso   1.000  N
  C430     1.0000 0.19470  0.56620  0.74050  Biso   1.000  C
  C431     1.0000 0.25080  0.52730  0.72600  Biso   1.000  C
  C432     1.0000 0.25460  0.57000  0.71340  Biso   1.000  C
  C433     1.0000 0.29520  0.58700  0.70480  Biso   1.000  C
  C434     1.0000 0.33200  0.56140  0.70880  Biso   1.000  C
  C435     1.0000 0.32810  0.51870  0.72140  Biso   1.000  C
  C436     1.0000 0.28750  0.50170  0.73000  Biso   1.000  C
  C437     1.0000 0.38180  0.57200  0.70090  Biso   1.000  C
  C438     1.0000 0.37170  0.48980  0.72600  Biso   1.000  C
  C439     1.0000 0.29000  0.59200  0.66950  Biso   1.000  C
  C440     1.0000 0.32010  0.53100  0.66940  Biso   1.000  C
  C441     1.0000 0.28070  0.49010  0.69590  Biso   1.000  C
  Zn22     1.0000 0.84406  0.70828  0.78429  Biso   1.000  Zn
  Zn23     1.0000 0.81399  0.52058  0.77550  Biso   1.000  Zn
  Zn24     1.0000 0.75248  0.61631  0.91267  Biso   1.000  Zn
  N99      1.0000 0.83060  0.65270  0.75600  Biso   1.000  N
  N100     1.0000 0.82130  0.57950  0.74960  Biso   1.000  N
  C442     1.0000 0.83540  0.61010  0.77340  Biso   1.000  C
  C443     1.0000 0.80960  0.64190  0.71980  Biso   1.000  C
  C444     1.0000 0.79430  0.67260  0.68770  Biso   1.000  C
  C445     1.0000 0.78430  0.57900  0.68080  Biso   1.000  C
  C446     1.0000 0.80330  0.59650  0.71140  Biso   1.000  C
  N101     1.0000 0.77930  0.52870  0.82580  Biso   1.000  N
  N102     1.0000 0.75370  0.56580  0.87640  Biso   1.000  N
  C447     1.0000 0.78580  0.55990  0.85100  Biso   1.000  C
  C448     1.0000 0.73900  0.51130  0.83270  Biso   1.000  C
  C449     1.0000 0.71430  0.47930  0.81660  Biso   1.000  C
  C450     1.0000 0.66770  0.47310  0.83100  Biso   1.000  C
  C451     1.0000 0.64500  0.50100  0.86200  Biso   1.000  C
  C452     1.0000 0.67380  0.52360  0.87970  Biso   1.000  C
  C453     1.0000 0.71620  0.53390  0.86550  Biso   1.000  C
  C454     1.0000 0.64120  0.44000  0.81270  Biso   1.000  C
  C455     1.0000 0.60170  0.48360  0.87860  Biso   1.000  C
  N103     1.0000 0.79570  0.65860  0.88820  Biso   1.000  N
  N104     1.0000 0.82940  0.69490  0.84070  Biso   1.000  N
  C456     1.0000 0.79430  0.67060  0.85060  Biso   1.000  C
  C457     1.0000 0.84000  0.66130  0.90420  Biso   1.000  C
  C458     1.0000 0.85570  0.65220  0.94000  Biso   1.000  C
  C459     1.0000 0.90100  0.66800  0.95100  Biso   1.000  C
  C460     1.0000 0.91960  0.69020  0.91510  Biso   1.000  C
  C461     1.0000 0.90170  0.70450  0.87950  Biso   1.000  C
  C462     1.0000 0.86090  0.68760  0.87320  Biso   1.000  C
  C463     1.0000 0.82570  0.70020  0.90840  Biso   1.000  C
  C464     1.0000 0.83030  0.71530  0.94690  Biso   1.000  C
  C465     1.0000 0.85420  0.75300  0.95430  Biso   1.000  C
  C466     1.0000 0.87360  0.77470  0.92300  Biso   1.000  C
  C467     1.0000 0.86900  0.75960  0.88500  Biso   1.000  C
  C468     1.0000 0.83400  0.72100  0.87000  Biso   1.000  C
  N105     1.0000 0.81150  0.75900  0.76480  Biso   1.000  N
  C469     1.0000 0.81820  0.78230  0.72710  Biso   1.000  C
  C470     1.0000 0.84270  0.77690  0.69420  Biso   1.000  C
  C471     1.0000 0.83590  0.80190  0.66370  Biso   1.000  C
  C472     1.0000 0.86240  0.79520  0.62800  Biso   1.000  C
  N106     1.0000 0.76870  0.59520  0.96700  Biso   1.000  N
  C473     1.0000 0.79220  0.56000  0.97650  Biso   1.000  C
  C474     1.0000 0.80940  0.52800  0.95900  Biso   1.000  C
  C475     1.0000 0.83200  0.49950  0.97800  Biso   1.000  C
  C476     1.0000 0.85410  0.46300  0.95670  Biso   1.000  C
  C477     1.0000 0.76380  0.53600  0.97100  Biso   1.000  C
  N107     1.0000 0.87400  0.50230  0.78650  Biso   1.000  N
  N108     1.0000 0.94680  0.49630  0.77930  Biso   1.000  N
  C478     1.0000 0.91260  0.51490  0.76850  Biso   1.000  C
  C479     1.0000 0.88670  0.46980  0.81120  Biso   1.000  C
  C480     1.0000 0.86470  0.44370  0.83760  Biso   1.000  C
  C481     1.0000 0.88670  0.41430  0.85800  Biso   1.000  C
  C482     1.0000 0.93400  0.41000  0.85580  Biso   1.000  C
  C483     1.0000 0.95390  0.44080  0.82580  Biso   1.000  C
  C484     1.0000 0.93310  0.46820  0.80630  Biso   1.000  C
  C485     1.0000 0.95900  0.37640  0.88020  Biso   1.000  C
  N109     1.0000 0.70030  0.64740  0.92810  Biso   1.000  N
  C486     1.0000 0.66800  0.63380  0.95500  Biso   1.000  C
  C487     1.0000 0.66360  0.59670  0.97910  Biso   1.000  C
  C488     1.0000 0.61980  0.55200  0.02760  Biso   1.000  C
  N110     1.0000 0.69120  0.64160  0.89320  Biso   1.000  N
  C489     1.0000 0.68060  0.64760  0.85390  Biso   1.000  C
  C490     1.0000 0.68830  0.62830  0.81360  Biso   1.000  C
  C491     1.0000 0.68630  0.64560  0.78180  Biso   1.000  C
  C492     1.0000 0.69460  0.62650  0.74400  Biso   1.000  C
  N111     1.0000 0.79010  0.47320  0.74120  Biso   1.000  N
  N112     1.0000 0.77910  0.40630  0.72360  Biso   1.000  N
  C493     1.0000 0.80530  0.43380  0.74050  Biso   1.000  C
  C494     1.0000 0.74920  0.47270  0.72600  Biso   1.000  C
  C495     1.0000 0.74540  0.43000  0.71340  Biso   1.000  C
  C496     1.0000 0.70480  0.41300  0.70480  Biso   1.000  C
  C497     1.0000 0.66800  0.43860  0.70880  Biso   1.000  C
  C498     1.0000 0.67190  0.48130  0.72140  Biso   1.000  C
  C499     1.0000 0.71250  0.49830  0.73000  Biso   1.000  C
  C500     1.0000 0.61820  0.42800  0.70090  Biso   1.000  C
  C501     1.0000 0.62830  0.51020  0.72600  Biso   1.000  C
  C502     1.0000 0.71000  0.40800  0.66950  Biso   1.000  C
  C503     1.0000 0.67990  0.46900  0.66940  Biso   1.000  C
  C504     1.0000 0.71930  0.50990  0.69590  Biso   1.000  C
  Zn25     1.0000 0.70828  0.84406  0.78429  Biso   1.000  Zn
  Zn26     1.0000 0.52058  0.81399  0.77550  Biso   1.000  Zn
  Zn27     1.0000 0.61631  0.75248  0.91267  Biso   1.000  Zn
  N113     1.0000 0.65270  0.83060  0.75600  Biso   1.000  N
  N114     1.0000 0.57950  0.82130  0.74960  Biso   1.000  N
  C505     1.0000 0.61010  0.83540  0.77340  Biso   1.000  C
  C506     1.0000 0.64190  0.80960  0.71980  Biso   1.000  C
  C507     1.0000 0.67260  0.79430  0.68770  Biso   1.000  C
  C508     1.0000 0.57900  0.78430  0.68080  Biso   1.000  C
  C509     1.0000 0.59650  0.80330  0.71140  Biso   1.000  C
  N115     1.0000 0.52870  0.77930  0.82580  Biso   1.000  N
  N116     1.0000 0.56580  0.75370  0.87640  Biso   1.000  N
  C510     1.0000 0.55990  0.78580  0.85100  Biso   1.000  C
  C511     1.0000 0.51130  0.73900  0.83270  Biso   1.000  C
  C512     1.0000 0.47930  0.71430  0.81660  Biso   1.000  C
  C513     1.0000 0.47310  0.66770  0.83100  Biso   1.000  C
  C514     1.0000 0.50100  0.64500  0.86200  Biso   1.000  C
  C515     1.0000 0.52360  0.67380  0.87970  Biso   1.000  C
  C516     1.0000 0.53390  0.71620  0.86550  Biso   1.000  C
  C517     1.0000 0.44000  0.64120  0.81270  Biso   1.000  C
  C518     1.0000 0.48360  0.60170  0.87860  Biso   1.000  C
  N117     1.0000 0.65860  0.79570  0.88820  Biso   1.000  N
  N118     1.0000 0.69490  0.82940  0.84070  Biso   1.000  N
  C519     1.0000 0.67060  0.79430  0.85060  Biso   1.000  C
  C520     1.0000 0.66130  0.84000  0.90420  Biso   1.000  C
  C521     1.0000 0.65220  0.85570  0.94000  Biso   1.000  C
  C522     1.0000 0.66800  0.90100  0.95100  Biso   1.000  C
  C523     1.0000 0.69020  0.91960  0.91510  Biso   1.000  C
  C524     1.0000 0.70450  0.90170  0.87950  Biso   1.000  C
  C525     1.0000 0.68760  0.86090  0.87320  Biso   1.000  C
  C526     1.0000 0.70020  0.82570  0.90840  Biso   1.000  C
  C527     1.0000 0.71530  0.83030  0.94690  Biso   1.000  C
  C528     1.0000 0.75300  0.85420  0.95430  Biso   1.000  C
  C529     1.0000 0.77470  0.87360  0.92300  Biso   1.000  C
  C530     1.0000 0.75960  0.86900  0.88500  Biso   1.000  C
  C531     1.0000 0.72100  0.83400  0.87000  Biso   1.000  C
  N119     1.0000 0.75900  0.81150  0.76480  Biso   1.000  N
  C532     1.0000 0.78230  0.81820  0.72710  Biso   1.000  C
  C533     1.0000 0.77690  0.84270  0.69420  Biso   1.000  C
  C534     1.0000 0.80190  0.83590  0.66370  Biso   1.000  C
  C535     1.0000 0.79520  0.86240  0.62800  Biso   1.000  C
  N120     1.0000 0.59520  0.76870  0.96700  Biso   1.000  N
  C536     1.0000 0.56000  0.79220  0.97650  Biso   1.000  C
  C537     1.0000 0.52800  0.80940  0.95900  Biso   1.000  C
  C538     1.0000 0.49950  0.83200  0.97800  Biso   1.000  C
  C539     1.0000 0.46300  0.85410  0.95670  Biso   1.000  C
  C540     1.0000 0.53600  0.76380  0.97100  Biso   1.000  C
  N121     1.0000 0.50230  0.87400  0.78650  Biso   1.000  N
  N122     1.0000 0.49630  0.94680  0.77930  Biso   1.000  N
  C541     1.0000 0.51490  0.91260  0.76850  Biso   1.000  C
  C542     1.0000 0.46980  0.88670  0.81120  Biso   1.000  C
  C543     1.0000 0.44370  0.86470  0.83760  Biso   1.000  C
  C544     1.0000 0.41430  0.88670  0.85800  Biso   1.000  C
  C545     1.0000 0.41000  0.93400  0.85580  Biso   1.000  C
  C546     1.0000 0.44080  0.95390  0.82580  Biso   1.000  C
  C547     1.0000 0.46820  0.93310  0.80630  Biso   1.000  C
  C548     1.0000 0.37640  0.95900  0.88020  Biso   1.000  C
  N123     1.0000 0.64740  0.70030  0.92810  Biso   1.000  N
  C549     1.0000 0.63380  0.66800  0.95500  Biso   1.000  C
  C550     1.0000 0.59670  0.66360  0.97910  Biso   1.000  C
  C551     1.0000 0.55200  0.61980  0.02760  Biso   1.000  C
  N124     1.0000 0.64160  0.69120  0.89320  Biso   1.000  N
  C552     1.0000 0.64760  0.68060  0.85390  Biso   1.000  C
  C553     1.0000 0.62830  0.68830  0.81360  Biso   1.000  C
  C554     1.0000 0.64560  0.68630  0.78180  Biso   1.000  C
  C555     1.0000 0.62650  0.69460  0.74400  Biso   1.000  C
  N125     1.0000 0.47320  0.79010  0.74120  Biso   1.000  N
  N126     1.0000 0.40630  0.77910  0.72360  Biso   1.000  N
  C556     1.0000 0.43380  0.80530  0.74050  Biso   1.000  C
  C557     1.0000 0.47270  0.74920  0.72600  Biso   1.000  C
  C558     1.0000 0.43000  0.74540  0.71340  Biso   1.000  C
  C559     1.0000 0.41300  0.70480  0.70480  Biso   1.000  C
  C560     1.0000 0.43860  0.66800  0.70880  Biso   1.000  C
  C561     1.0000 0.48130  0.67190  0.72140  Biso   1.000  C
  C562     1.0000 0.49830  0.71250  0.73000  Biso   1.000  C
  C563     1.0000 0.42800  0.61820  0.70090  Biso   1.000  C
  C564     1.0000 0.51020  0.62830  0.72600  Biso   1.000  C
  C565     1.0000 0.40800  0.71000  0.66950  Biso   1.000  C
  C566     1.0000 0.46900  0.67990  0.66940  Biso   1.000  C
  C567     1.0000 0.50990  0.71930  0.69590  Biso   1.000  C
  Zn28     1.0000 0.29172  0.15594  0.78429  Biso   1.000  Zn
  Zn29     1.0000 0.47942  0.18601  0.77550  Biso   1.000  Zn
  Zn30     1.0000 0.38369  0.24752  0.91267  Biso   1.000  Zn
  N127     1.0000 0.34730  0.16940  0.75600  Biso   1.000  N
  N128     1.0000 0.42050  0.17870  0.74960  Biso   1.000  N
  C568     1.0000 0.38990  0.16460  0.77340  Biso   1.000  C
  C569     1.0000 0.35810  0.19040  0.71980  Biso   1.000  C
  C570     1.0000 0.32740  0.20570  0.68770  Biso   1.000  C
  C571     1.0000 0.42100  0.21570  0.68080  Biso   1.000  C
  C572     1.0000 0.40350  0.19670  0.71140  Biso   1.000  C
  N129     1.0000 0.47130  0.22070  0.82580  Biso   1.000  N
  N130     1.0000 0.43420  0.24630  0.87640  Biso   1.000  N
  C573     1.0000 0.44010  0.21420  0.85100  Biso   1.000  C
  C574     1.0000 0.48870  0.26100  0.83270  Biso   1.000  C
  C575     1.0000 0.52070  0.28570  0.81660  Biso   1.000  C
  C576     1.0000 0.52690  0.33230  0.83100  Biso   1.000  C
  C577     1.0000 0.49900  0.35500  0.86200  Biso   1.000  C
  C578     1.0000 0.47640  0.32620  0.87970  Biso   1.000  C
  C579     1.0000 0.46610  0.28380  0.86550  Biso   1.000  C
  C580     1.0000 0.56000  0.35880  0.81270  Biso   1.000  C
  C581     1.0000 0.51640  0.39830  0.87860  Biso   1.000  C
  N131     1.0000 0.34140  0.20430  0.88820  Biso   1.000  N
  N132     1.0000 0.30510  0.17060  0.84070  Biso   1.000  N
  C582     1.0000 0.32940  0.20570  0.85060  Biso   1.000  C
  C583     1.0000 0.33870  0.16000  0.90420  Biso   1.000  C
  C584     1.0000 0.34780  0.14430  0.94000  Biso   1.000  C
  C585     1.0000 0.33200  0.09900  0.95100  Biso   1.000  C
  C586     1.0000 0.30980  0.08040  0.91510  Biso   1.000  C
  C587     1.0000 0.29550  0.09830  0.87950  Biso   1.000  C
  C588     1.0000 0.31240  0.13910  0.87320  Biso   1.000  C
  C589     1.0000 0.29980  0.17430  0.90840  Biso   1.000  C
  C590     1.0000 0.28470  0.16970  0.94690  Biso   1.000  C
  C591     1.0000 0.24700  0.14580  0.95430  Biso   1.000  C
  C592     1.0000 0.22530  0.12640  0.92300  Biso   1.000  C
  C593     1.0000 0.24040  0.13100  0.88500  Biso   1.000  C
  C594     1.0000 0.27900  0.16600  0.87000  Biso   1.000  C
  N133     1.0000 0.24100  0.18850  0.76480  Biso   1.000  N
  C595     1.0000 0.21770  0.18180  0.72710  Biso   1.000  C
  C596     1.0000 0.22310  0.15730  0.69420  Biso   1.000  C
  C597     1.0000 0.19810  0.16410  0.66370  Biso   1.000  C
  C598     1.0000 0.20480  0.13760  0.62800  Biso   1.000  C
  N134     1.0000 0.40480  0.23130  0.96700  Biso   1.000  N
  C599     1.0000 0.44000  0.20780  0.97650  Biso   1.000  C
  C600     1.0000 0.47200  0.19060  0.95900  Biso   1.000  C
  C601     1.0000 0.50050  0.16800  0.97800  Biso   1.000  C
  C602     1.0000 0.53700  0.14590  0.95670  Biso   1.000  C
  C603     1.0000 0.46400  0.23620  0.97100  Biso   1.000  C
  N135     1.0000 0.49770  0.12600  0.78650  Biso   1.000  N
  N136     1.0000 0.50370  0.05320  0.77930  Biso   1.000  N
  C604     1.0000 0.48510  0.08740  0.76850  Biso   1.000  C
  C605     1.0000 0.53020  0.11330  0.81120  Biso   1.000  C
  C606     1.0000 0.55630  0.13530  0.83760  Biso   1.000  C
  C607     1.0000 0.58570  0.11330  0.85800  Biso   1.000  C
  C608     1.0000 0.59000  0.06600  0.85580  Biso   1.000  C
  C609     1.0000 0.55920  0.04610  0.82580  Biso   1.000  C
  C610     1.0000 0.53180  0.06690  0.80630  Biso   1.000  C
  C611     1.0000 0.62360  0.04100  0.88020  Biso   1.000  C
  N137     1.0000 0.35260  0.29970  0.92810  Biso   1.000  N
  C612     1.0000 0.36620  0.33200  0.95500  Biso   1.000  C
  C613     1.0000 0.40330  0.33640  0.97910  Biso   1.000  C
  C614     1.0000 0.44800  0.38020  0.02760  Biso   1.000  C
  N138     1.0000 0.35840  0.30880  0.89320  Biso   1.000  N
  C615     1.0000 0.35240  0.31940  0.85390  Biso   1.000  C
  C616     1.0000 0.37170  0.31170  0.81360  Biso   1.000  C
  C617     1.0000 0.35440  0.31370  0.78180  Biso   1.000  C
  C618     1.0000 0.37350  0.30540  0.74400  Biso   1.000  C
  N139     1.0000 0.52680  0.20990  0.74120  Biso   1.000  N
  N140     1.0000 0.59370  0.22090  0.72360  Biso   1.000  N
  C619     1.0000 0.56620  0.19470  0.74050  Biso   1.000  C
  C620     1.0000 0.52730  0.25080  0.72600  Biso   1.000  C
  C621     1.0000 0.57000  0.25460  0.71340  Biso   1.000  C
  C622     1.0000 0.58700  0.29520  0.70480  Biso   1.000  C
  C623     1.0000 0.56140  0.33200  0.70880  Biso   1.000  C
  C624     1.0000 0.51870  0.32810  0.72140  Biso   1.000  C
  C625     1.0000 0.50170  0.28750  0.73000  Biso   1.000  C
  C626     1.0000 0.57200  0.38180  0.70090  Biso   1.000  C
  C627     1.0000 0.48980  0.37170  0.72600  Biso   1.000  C
  C628     1.0000 0.59200  0.29000  0.66950  Biso   1.000  C
  C629     1.0000 0.53100  0.32010  0.66940  Biso   1.000  C
  C630     1.0000 0.49010  0.28070  0.69590  Biso   1.000  C
  Zn31     1.0000 0.65594  0.20828  0.28429  Biso   1.000  Zn
  Zn32     1.0000 0.68601  0.02058  0.27550  Biso   1.000  Zn
  Zn33     1.0000 0.74752  0.11631  0.41267  Biso   1.000  Zn
  N141     1.0000 0.66940  0.15270  0.25600  Biso   1.000  N
  N142     1.0000 0.67870  0.07950  0.24960  Biso   1.000  N
  C631     1.0000 0.66460  0.11010  0.27340  Biso   1.000  C
  C632     1.0000 0.69040  0.14190  0.21980  Biso   1.000  C
  C633     1.0000 0.70570  0.17260  0.18770  Biso   1.000  C
  C634     1.0000 0.71570  0.07900  0.18080  Biso   1.000  C
  C635     1.0000 0.69670  0.09650  0.21140  Biso   1.000  C
  N143     1.0000 0.72070  0.02870  0.32580  Biso   1.000  N
  N144     1.0000 0.74630  0.06580  0.37640  Biso   1.000  N
  C636     1.0000 0.71420  0.05990  0.35100  Biso   1.000  C
  C637     1.0000 0.76100  0.01130  0.33270  Biso   1.000  C
  C638     1.0000 0.78570  0.97930  0.31660  Biso   1.000  C
  C639     1.0000 0.83230  0.97310  0.33100  Biso   1.000  C
  C640     1.0000 0.85500  0.00100  0.36200  Biso   1.000  C
  C641     1.0000 0.82620  0.02360  0.37970  Biso   1.000  C
  C642     1.0000 0.78380  0.03390  0.36550  Biso   1.000  C
  C643     1.0000 0.85880  0.94000  0.31270  Biso   1.000  C
  C644     1.0000 0.89830  0.98360  0.37860  Biso   1.000  C
  N145     1.0000 0.70430  0.15860  0.38820  Biso   1.000  N
  N146     1.0000 0.67060  0.19490  0.34070  Biso   1.000  N
  C645     1.0000 0.70570  0.17060  0.35060  Biso   1.000  C
  C646     1.0000 0.66000  0.16130  0.40420  Biso   1.000  C
  C647     1.0000 0.64430  0.15220  0.44000  Biso   1.000  C
  C648     1.0000 0.59900  0.16800  0.45100  Biso   1.000  C
  C649     1.0000 0.58040  0.19020  0.41510  Biso   1.000  C
  C650     1.0000 0.59830  0.20450  0.37950  Biso   1.000  C
  C651     1.0000 0.63910  0.18760  0.37320  Biso   1.000  C
  C652     1.0000 0.67430  0.20020  0.40840  Biso   1.000  C
  C653     1.0000 0.66970  0.21530  0.44690  Biso   1.000  C
  C654     1.0000 0.64580  0.25300  0.45430  Biso   1.000  C
  C655     1.0000 0.62640  0.27470  0.42300  Biso   1.000  C
  C656     1.0000 0.63100  0.25960  0.38500  Biso   1.000  C
  C657     1.0000 0.66600  0.22100  0.37000  Biso   1.000  C
  N147     1.0000 0.68850  0.25900  0.26480  Biso   1.000  N
  C658     1.0000 0.68180  0.28230  0.22710  Biso   1.000  C
  C659     1.0000 0.65730  0.27690  0.19420  Biso   1.000  C
  C660     1.0000 0.66410  0.30190  0.16370  Biso   1.000  C
  C661     1.0000 0.63760  0.29520  0.12800  Biso   1.000  C
  N148     1.0000 0.73130  0.09520  0.46700  Biso   1.000  N
  C662     1.0000 0.70780  0.06000  0.47650  Biso   1.000  C
  C663     1.0000 0.69060  0.02800  0.45900  Biso   1.000  C
  C664     1.0000 0.66800  0.99950  0.47800  Biso   1.000  C
  C665     1.0000 0.64590  0.96300  0.45670  Biso   1.000  C
  C666     1.0000 0.73620  0.03600  0.47100  Biso   1.000  C
  N149     1.0000 0.62600  0.00230  0.28650  Biso   1.000  N
  N150     1.0000 0.55320  0.99630  0.27930  Biso   1.000  N
  C667     1.0000 0.58740  0.01490  0.26850  Biso   1.000  C
  C668     1.0000 0.61330  0.96980  0.31120  Biso   1.000  C
  C669     1.0000 0.63530  0.94370  0.33760  Biso   1.000  C
  C670     1.0000 0.61330  0.91430  0.35800  Biso   1.000  C
  C671     1.0000 0.56600  0.91000  0.35580  Biso   1.000  C
  C672     1.0000 0.54610  0.94080  0.32580  Biso   1.000  C
  C673     1.0000 0.56690  0.96820  0.30630  Biso   1.000  C
  C674     1.0000 0.54100  0.87640  0.38020  Biso   1.000  C
  N151     1.0000 0.79970  0.14740  0.42810  Biso   1.000  N
  C675     1.0000 0.83200  0.13380  0.45500  Biso   1.000  C
  C676     1.0000 0.83640  0.09670  0.47910  Biso   1.000  C
  C677     1.0000 0.88020  0.05200  0.52760  Biso   1.000  C
  N152     1.0000 0.80880  0.14160  0.39320  Biso   1.000  N
  C678     1.0000 0.81940  0.14760  0.35390  Biso   1.000  C
  C679     1.0000 0.81170  0.12830  0.31360  Biso   1.000  C
  C680     1.0000 0.81370  0.14560  0.28180  Biso   1.000  C
  C681     1.0000 0.80540  0.12650  0.24400  Biso   1.000  C
  N153     1.0000 0.70990  0.97320  0.24120  Biso   1.000  N
  N154     1.0000 0.72090  0.90630  0.22360  Biso   1.000  N
  C682     1.0000 0.69470  0.93380  0.24050  Biso   1.000  C
  C683     1.0000 0.75080  0.97270  0.22600  Biso   1.000  C
  C684     1.0000 0.75460  0.93000  0.21340  Biso   1.000  C
  C685     1.0000 0.79520  0.91300  0.20480  Biso   1.000  C
  C686     1.0000 0.83200  0.93860  0.20880  Biso   1.000  C
  C687     1.0000 0.82810  0.98130  0.22140  Biso   1.000  C
  C688     1.0000 0.78750  0.99830  0.23000  Biso   1.000  C
  C689     1.0000 0.88180  0.92800  0.20090  Biso   1.000  C
  C690     1.0000 0.87170  0.01020  0.22600  Biso   1.000  C
  C691     1.0000 0.79000  0.90800  0.16950  Biso   1.000  C
  C692     1.0000 0.82010  0.96900  0.16940  Biso   1.000  C
  C693     1.0000 0.78070  0.00990  0.19590  Biso   1.000  C
  Zn34     1.0000 0.34406  0.79172  0.28429  Biso   1.000  Zn
  Zn35     1.0000 0.31399  0.97942  0.27550  Biso   1.000  Zn
  Zn36     1.0000 0.25248  0.88369  0.41267  Biso   1.000  Zn
  N155     1.0000 0.33060  0.84730  0.25600  Biso   1.000  N
  N156     1.0000 0.32130  0.92050  0.24960  Biso   1.000  N
  C694     1.0000 0.33540  0.88990  0.27340  Biso   1.000  C
  C695     1.0000 0.30960  0.85810  0.21980  Biso   1.000  C
  C696     1.0000 0.29430  0.82740  0.18770  Biso   1.000  C
  C697     1.0000 0.28430  0.92100  0.18080  Biso   1.000  C
  C698     1.0000 0.30330  0.90350  0.21140  Biso   1.000  C
  N157     1.0000 0.27930  0.97130  0.32580  Biso   1.000  N
  N158     1.0000 0.25370  0.93420  0.37640  Biso   1.000  N
  C699     1.0000 0.28580  0.94010  0.35100  Biso   1.000  C
  C700     1.0000 0.23900  0.98870  0.33270  Biso   1.000  C
  C701     1.0000 0.21430  0.02070  0.31660  Biso   1.000  C
  C702     1.0000 0.16770  0.02690  0.33100  Biso   1.000  C
  C703     1.0000 0.14500  0.99900  0.36200  Biso   1.000  C
  C704     1.0000 0.17380  0.97640  0.37970  Biso   1.000  C
  C705     1.0000 0.21620  0.96610  0.36550  Biso   1.000  C
  C706     1.0000 0.14120  0.06000  0.31270  Biso   1.000  C
  C707     1.0000 0.10170  0.01640  0.37860  Biso   1.000  C
  N159     1.0000 0.29570  0.84140  0.38820  Biso   1.000  N
  N160     1.0000 0.32940  0.80510  0.34070  Biso   1.000  N
  C708     1.0000 0.29430  0.82940  0.35060  Biso   1.000  C
  C709     1.0000 0.34000  0.83870  0.40420  Biso   1.000  C
  C710     1.0000 0.35570  0.84780  0.44000  Biso   1.000  C
  C711     1.0000 0.40100  0.83200  0.45100  Biso   1.000  C
  C712     1.0000 0.41960  0.80980  0.41510  Biso   1.000  C
  C713     1.0000 0.40170  0.79550  0.37950  Biso   1.000  C
  C714     1.0000 0.36090  0.81240  0.37320  Biso   1.000  C
  C715     1.0000 0.32570  0.79980  0.40840  Biso   1.000  C
  C716     1.0000 0.33030  0.78470  0.44690  Biso   1.000  C
  C717     1.0000 0.35420  0.74700  0.45430  Biso   1.000  C
  C718     1.0000 0.37360  0.72530  0.42300  Biso   1.000  C
  C719     1.0000 0.36900  0.74040  0.38500  Biso   1.000  C
  C720     1.0000 0.33400  0.77900  0.37000  Biso   1.000  C
  N161     1.0000 0.31150  0.74100  0.26480  Biso   1.000  N
  C721     1.0000 0.31820  0.71770  0.22710  Biso   1.000  C
  C722     1.0000 0.34270  0.72310  0.19420  Biso   1.000  C
  C723     1.0000 0.33590  0.69810  0.16370  Biso   1.000  C
  C724     1.0000 0.36240  0.70480  0.12800  Biso   1.000  C
  N162     1.0000 0.26870  0.90480  0.46700  Biso   1.000  N
  C725     1.0000 0.29220  0.94000  0.47650  Biso   1.000  C
  C726     1.0000 0.30940  0.97200  0.45900  Biso   1.000  C
  C727     1.0000 0.33200  0.00050  0.47800  Biso   1.000  C
  C728     1.0000 0.35410  0.03700  0.45670  Biso   1.000  C
  C729     1.0000 0.26380  0.96400  0.47100  Biso   1.000  C
  N163     1.0000 0.37400  0.99770  0.28650  Biso   1.000  N
  N164     1.0000 0.44680  0.00370  0.27930  Biso   1.000  N
  C730     1.0000 0.41260  0.98510  0.26850  Biso   1.000  C
  C731     1.0000 0.38670  0.03020  0.31120  Biso   1.000  C
  C732     1.0000 0.36470  0.05630  0.33760  Biso   1.000  C
  C733     1.0000 0.38670  0.08570  0.35800  Biso   1.000  C
  C734     1.0000 0.43400  0.09000  0.35580  Biso   1.000  C
  C735     1.0000 0.45390  0.05920  0.32580  Biso   1.000  C
  C736     1.0000 0.43310  0.03180  0.30630  Biso   1.000  C
  C737     1.0000 0.45900  0.12360  0.38020  Biso   1.000  C
  N165     1.0000 0.20030  0.85260  0.42810  Biso   1.000  N
  C738     1.0000 0.16800  0.86620  0.45500  Biso   1.000  C
  C739     1.0000 0.16360  0.90330  0.47910  Biso   1.000  C
  C740     1.0000 0.11980  0.94800  0.52760  Biso   1.000  C
  N166     1.0000 0.19120  0.85840  0.39320  Biso   1.000  N
  C741     1.0000 0.18060  0.85240  0.35390  Biso   1.000  C
  C742     1.0000 0.18830  0.87170  0.31360  Biso   1.000  C
  C743     1.0000 0.18630  0.85440  0.28180  Biso   1.000  C
  C744     1.0000 0.19460  0.87350  0.24400  Biso   1.000  C
  N167     1.0000 0.29010  0.02680  0.24120  Biso   1.000  N
  N168     1.0000 0.27910  0.09370  0.22360  Biso   1.000  N
  C745     1.0000 0.30530  0.06620  0.24050  Biso   1.000  C
  C746     1.0000 0.24920  0.02730  0.22600  Biso   1.000  C
  C747     1.0000 0.24540  0.07000  0.21340  Biso   1.000  C
  C748     1.0000 0.20480  0.08700  0.20480  Biso   1.000  C
  C749     1.0000 0.16800  0.06140  0.20880  Biso   1.000  C
  C750     1.0000 0.17190  0.01870  0.22140  Biso   1.000  C
  C751     1.0000 0.21250  0.00170  0.23000  Biso   1.000  C
  C752     1.0000 0.11820  0.07200  0.20090  Biso   1.000  C
  C753     1.0000 0.12830  0.98980  0.22600  Biso   1.000  C
  C754     1.0000 0.21000  0.09200  0.16950  Biso   1.000  C
  C755     1.0000 0.17990  0.03100  0.16940  Biso   1.000  C
  C756     1.0000 0.21930  0.99010  0.19590  Biso   1.000  C
  Zn37     1.0000 0.79172  0.34406  0.71571  Biso   1.000  Zn
  Zn38     1.0000 0.97942  0.31399  0.72450  Biso   1.000  Zn
  Zn39     1.0000 0.88369  0.25248  0.58733  Biso   1.000  Zn
  N169     1.0000 0.84730  0.33060  0.74400  Biso   1.000  N
  N170     1.0000 0.92050  0.32130  0.75040  Biso   1.000  N
  C757     1.0000 0.88990  0.33540  0.72660  Biso   1.000  C
  C758     1.0000 0.85810  0.30960  0.78020  Biso   1.000  C
  C759     1.0000 0.82740  0.29430  0.81230  Biso   1.000  C
  C760     1.0000 0.92100  0.28430  0.81920  Biso   1.000  C
  C761     1.0000 0.90350  0.30330  0.78860  Biso   1.000  C
  N171     1.0000 0.97130  0.27930  0.67420  Biso   1.000  N
  N172     1.0000 0.93420  0.25370  0.62360  Biso   1.000  N
  C762     1.0000 0.94010  0.28580  0.64900  Biso   1.000  C
  C763     1.0000 0.98870  0.23900  0.66730  Biso   1.000  C
  C764     1.0000 0.02070  0.21430  0.68340  Biso   1.000  C
  C765     1.0000 0.02690  0.16770  0.66900  Biso   1.000  C
  C766     1.0000 0.99900  0.14500  0.63800  Biso   1.000  C
  C767     1.0000 0.97640  0.17380  0.62030  Biso   1.000  C
  C768     1.0000 0.96610  0.21620  0.63450  Biso   1.000  C
  C769     1.0000 0.06000  0.14120  0.68730  Biso   1.000  C
  C770     1.0000 0.01640  0.10170  0.62140  Biso   1.000  C
  N173     1.0000 0.84140  0.29570  0.61180  Biso   1.000  N
  N174     1.0000 0.80510  0.32940  0.65930  Biso   1.000  N
  C771     1.0000 0.82940  0.29430  0.64940  Biso   1.000  C
  C772     1.0000 0.83870  0.34000  0.59580  Biso   1.000  C
  C773     1.0000 0.84780  0.35570  0.56000  Biso   1.000  C
  C774     1.0000 0.83200  0.40100  0.54900  Biso   1.000  C
  C775     1.0000 0.80980  0.41960  0.58490  Biso   1.000  C
  C776     1.0000 0.79550  0.40170  0.62050  Biso   1.000  C
  C777     1.0000 0.81240  0.36090  0.62680  Biso   1.000  C
  C778     1.0000 0.79980  0.32570  0.59160  Biso   1.000  C
  C779     1.0000 0.78470  0.33030  0.55310  Biso   1.000  C
  C780     1.0000 0.74700  0.35420  0.54570  Biso   1.000  C
  C781     1.0000 0.72530  0.37360  0.57700  Biso   1.000  C
  C782     1.0000 0.74040  0.36900  0.61500  Biso   1.000  C
  C783     1.0000 0.77900  0.33400  0.63000  Biso   1.000  C
  N175     1.0000 0.74100  0.31150  0.73520  Biso   1.000  N
  C784     1.0000 0.71770  0.31820  0.77290  Biso   1.000  C
  C785     1.0000 0.72310  0.34270  0.80580  Biso   1.000  C
  C786     1.0000 0.69810  0.33590  0.83630  Biso   1.000  C
  C787     1.0000 0.70480  0.36240  0.87200  Biso   1.000  C
  N176     1.0000 0.90480  0.26870  0.53300  Biso   1.000  N
  C788     1.0000 0.94000  0.29220  0.52350  Biso   1.000  C
  C789     1.0000 0.97200  0.30940  0.54100  Biso   1.000  C
  C790     1.0000 0.00050  0.33200  0.52200  Biso   1.000  C
  C791     1.0000 0.03700  0.35410  0.54330  Biso   1.000  C
  C792     1.0000 0.96400  0.26380  0.52900  Biso   1.000  C
  N177     1.0000 0.99770  0.37400  0.71350  Biso   1.000  N
  N178     1.0000 0.00370  0.44680  0.72070  Biso   1.000  N
  C793     1.0000 0.98510  0.41260  0.73150  Biso   1.000  C
  C794     1.0000 0.03020  0.38670  0.68880  Biso   1.000  C
  C795     1.0000 0.05630  0.36470  0.66240  Biso   1.000  C
  C796     1.0000 0.08570  0.38670  0.64200  Biso   1.000  C
  C797     1.0000 0.09000  0.43400  0.64420  Biso   1.000  C
  C798     1.0000 0.05920  0.45390  0.67420  Biso   1.000  C
  C799     1.0000 0.03180  0.43310  0.69370  Biso   1.000  C
  C800     1.0000 0.12360  0.45900  0.61980  Biso   1.000  C
  N179     1.0000 0.85260  0.20030  0.57190  Biso   1.000  N
  C801     1.0000 0.86620  0.16800  0.54500  Biso   1.000  C
  C802     1.0000 0.90330  0.16360  0.52090  Biso   1.000  C
  C803     1.0000 0.94800  0.11980  0.47240  Biso   1.000  C
  N180     1.0000 0.85840  0.19120  0.60680  Biso   1.000  N
  C804     1.0000 0.85240  0.18060  0.64610  Biso   1.000  C
  C805     1.0000 0.87170  0.18830  0.68640  Biso   1.000  C
  C806     1.0000 0.85440  0.18630  0.71820  Biso   1.000  C
  C807     1.0000 0.87350  0.19460  0.75600  Biso   1.000  C
  N181     1.0000 0.02680  0.29010  0.75880  Biso   1.000  N
  N182     1.0000 0.09370  0.27910  0.77640  Biso   1.000  N
  C808     1.0000 0.06620  0.30530  0.75950  Biso   1.000  C
  C809     1.0000 0.02730  0.24920  0.77400  Biso   1.000  C
  C810     1.0000 0.07000  0.24540  0.78660  Biso   1.000  C
  C811     1.0000 0.08700  0.20480  0.79520  Biso   1.000  C
  C812     1.0000 0.06140  0.16800  0.79120  Biso   1.000  C
  C813     1.0000 0.01870  0.17190  0.77860  Biso   1.000  C
  C814     1.0000 0.00170  0.21250  0.77000  Biso   1.000  C
  C815     1.0000 0.07200  0.11820  0.79910  Biso   1.000  C
  C816     1.0000 0.98980  0.12830  0.77400  Biso   1.000  C
  C817     1.0000 0.09200  0.21000  0.83050  Biso   1.000  C
  C818     1.0000 0.03100  0.17990  0.83060  Biso   1.000  C
  C819     1.0000 0.99010  0.21930  0.80410  Biso   1.000  C
  Zn40     1.0000 0.20828  0.65594  0.71571  Biso   1.000  Zn
  Zn41     1.0000 0.02058  0.68601  0.72450  Biso   1.000  Zn
  Zn42     1.0000 0.11631  0.74752  0.58733  Biso   1.000  Zn
  N183     1.0000 0.15270  0.66940  0.74400  Biso   1.000  N
  N184     1.0000 0.07950  0.67870  0.75040  Biso   1.000  N
  C820     1.0000 0.11010  0.66460  0.72660  Biso   1.000  C
  C821     1.0000 0.14190  0.69040  0.78020  Biso   1.000  C
  C822     1.0000 0.17260  0.70570  0.81230  Biso   1.000  C
  C823     1.0000 0.07900  0.71570  0.81920  Biso   1.000  C
  C824     1.0000 0.09650  0.69670  0.78860  Biso   1.000  C
  N185     1.0000 0.02870  0.72070  0.67420  Biso   1.000  N
  N186     1.0000 0.06580  0.74630  0.62360  Biso   1.000  N
  C825     1.0000 0.05990  0.71420  0.64900  Biso   1.000  C
  C826     1.0000 0.01130  0.76100  0.66730  Biso   1.000  C
  C827     1.0000 0.97930  0.78570  0.68340  Biso   1.000  C
  C828     1.0000 0.97310  0.83230  0.66900  Biso   1.000  C
  C829     1.0000 0.00100  0.85500  0.63800  Biso   1.000  C
  C830     1.0000 0.02360  0.82620  0.62030  Biso   1.000  C
  C831     1.0000 0.03390  0.78380  0.63450  Biso   1.000  C
  C832     1.0000 0.94000  0.85880  0.68730  Biso   1.000  C
  C833     1.0000 0.98360  0.89830  0.62140  Biso   1.000  C
  N187     1.0000 0.15860  0.70430  0.61180  Biso   1.000  N
  N188     1.0000 0.19490  0.67060  0.65930  Biso   1.000  N
  C834     1.0000 0.17060  0.70570  0.64940  Biso   1.000  C
  C835     1.0000 0.16130  0.66000  0.59580  Biso   1.000  C
  C836     1.0000 0.15220  0.64430  0.56000  Biso   1.000  C
  C837     1.0000 0.16800  0.59900  0.54900  Biso   1.000  C
  C838     1.0000 0.19020  0.58040  0.58490  Biso   1.000  C
  C839     1.0000 0.20450  0.59830  0.62050  Biso   1.000  C
  C840     1.0000 0.18760  0.63910  0.62680  Biso   1.000  C
  C841     1.0000 0.20020  0.67430  0.59160  Biso   1.000  C
  C842     1.0000 0.21530  0.66970  0.55310  Biso   1.000  C
  C843     1.0000 0.25300  0.64580  0.54570  Biso   1.000  C
  C844     1.0000 0.27470  0.62640  0.57700  Biso   1.000  C
  C845     1.0000 0.25960  0.63100  0.61500  Biso   1.000  C
  C846     1.0000 0.22100  0.66600  0.63000  Biso   1.000  C
  N189     1.0000 0.25900  0.68850  0.73520  Biso   1.000  N
  C847     1.0000 0.28230  0.68180  0.77290  Biso   1.000  C
  C848     1.0000 0.27690  0.65730  0.80580  Biso   1.000  C
  C849     1.0000 0.30190  0.66410  0.83630  Biso   1.000  C
  C850     1.0000 0.29520  0.63760  0.87200  Biso   1.000  C
  N190     1.0000 0.09520  0.73130  0.53300  Biso   1.000  N
  C851     1.0000 0.06000  0.70780  0.52350  Biso   1.000  C
  C852     1.0000 0.02800  0.69060  0.54100  Biso   1.000  C
  C853     1.0000 0.99950  0.66800  0.52200  Biso   1.000  C
  C854     1.0000 0.96300  0.64590  0.54330  Biso   1.000  C
  C855     1.0000 0.03600  0.73620  0.52900  Biso   1.000  C
  N191     1.0000 0.00230  0.62600  0.71350  Biso   1.000  N
  N192     1.0000 0.99630  0.55320  0.72070  Biso   1.000  N
  C856     1.0000 0.01490  0.58740  0.73150  Biso   1.000  C
  C857     1.0000 0.96980  0.61330  0.68880  Biso   1.000  C
  C858     1.0000 0.94370  0.63530  0.66240  Biso   1.000  C
  C859     1.0000 0.91430  0.61330  0.64200  Biso   1.000  C
  C860     1.0000 0.91000  0.56600  0.64420  Biso   1.000  C
  C861     1.0000 0.94080  0.54610  0.67420  Biso   1.000  C
  C862     1.0000 0.96820  0.56690  0.69370  Biso   1.000  C
  C863     1.0000 0.87640  0.54100  0.61980  Biso   1.000  C
  N193     1.0000 0.14740  0.79970  0.57190  Biso   1.000  N
  C864     1.0000 0.13380  0.83200  0.54500  Biso   1.000  C
  C865     1.0000 0.09670  0.83640  0.52090  Biso   1.000  C
  C866     1.0000 0.05200  0.88020  0.47240  Biso   1.000  C
  N194     1.0000 0.14160  0.80880  0.60680  Biso   1.000  N
  C867     1.0000 0.14760  0.81940  0.64610  Biso   1.000  C
  C868     1.0000 0.12830  0.81170  0.68640  Biso   1.000  C
  C869     1.0000 0.14560  0.81370  0.71820  Biso   1.000  C
  C870     1.0000 0.12650  0.80540  0.75600  Biso   1.000  C
  N195     1.0000 0.97320  0.70990  0.75880  Biso   1.000  N
  N196     1.0000 0.90630  0.72090  0.77640  Biso   1.000  N
  C871     1.0000 0.93380  0.69470  0.75950  Biso   1.000  C
  C872     1.0000 0.97270  0.75080  0.77400  Biso   1.000  C
  C873     1.0000 0.93000  0.75460  0.78660  Biso   1.000  C
  C874     1.0000 0.91300  0.79520  0.79520  Biso   1.000  C
  C875     1.0000 0.93860  0.83200  0.79120  Biso   1.000  C
  C876     1.0000 0.98130  0.82810  0.77860  Biso   1.000  C
  C877     1.0000 0.99830  0.78750  0.77000  Biso   1.000  C
  C878     1.0000 0.92800  0.88180  0.79910  Biso   1.000  C
  C879     1.0000 0.01020  0.87170  0.77400  Biso   1.000  C
  C880     1.0000 0.90800  0.79000  0.83050  Biso   1.000  C
  C881     1.0000 0.96900  0.82010  0.83060  Biso   1.000  C
  C882     1.0000 0.00990  0.78070  0.80410  Biso   1.000  C
  Zn43     1.0000 0.84406  0.70828  0.21571  Biso   1.000  Zn
  Zn44     1.0000 0.81399  0.52058  0.22450  Biso   1.000  Zn
  Zn45     1.0000 0.75248  0.61631  0.08733  Biso   1.000  Zn
  N197     1.0000 0.83060  0.65270  0.24400  Biso   1.000  N
  N198     1.0000 0.82130  0.57950  0.25040  Biso   1.000  N
  C883     1.0000 0.83540  0.61010  0.22660  Biso   1.000  C
  C884     1.0000 0.80960  0.64190  0.28020  Biso   1.000  C
  C885     1.0000 0.79430  0.67260  0.31230  Biso   1.000  C
  C886     1.0000 0.78430  0.57900  0.31920  Biso   1.000  C
  C887     1.0000 0.80330  0.59650  0.28860  Biso   1.000  C
  N199     1.0000 0.77930  0.52870  0.17420  Biso   1.000  N
  N200     1.0000 0.75370  0.56580  0.12360  Biso   1.000  N
  C888     1.0000 0.78580  0.55990  0.14900  Biso   1.000  C
  C889     1.0000 0.73900  0.51130  0.16730  Biso   1.000  C
  C890     1.0000 0.71430  0.47930  0.18340  Biso   1.000  C
  C891     1.0000 0.66770  0.47310  0.16900  Biso   1.000  C
  C892     1.0000 0.64500  0.50100  0.13800  Biso   1.000  C
  C893     1.0000 0.67380  0.52360  0.12030  Biso   1.000  C
  C894     1.0000 0.71620  0.53390  0.13450  Biso   1.000  C
  C895     1.0000 0.64120  0.44000  0.18730  Biso   1.000  C
  C896     1.0000 0.60170  0.48360  0.12140  Biso   1.000  C
  N201     1.0000 0.79570  0.65860  0.11180  Biso   1.000  N
  N202     1.0000 0.82940  0.69490  0.15930  Biso   1.000  N
  C897     1.0000 0.79430  0.67060  0.14940  Biso   1.000  C
  C898     1.0000 0.84000  0.66130  0.09580  Biso   1.000  C
  C899     1.0000 0.85570  0.65220  0.06000  Biso   1.000  C
  C900     1.0000 0.90100  0.66800  0.04900  Biso   1.000  C
  C901     1.0000 0.91960  0.69020  0.08490  Biso   1.000  C
  C902     1.0000 0.90170  0.70450  0.12050  Biso   1.000  C
  C903     1.0000 0.86090  0.68760  0.12680  Biso   1.000  C
  C904     1.0000 0.82570  0.70020  0.09160  Biso   1.000  C
  C905     1.0000 0.83030  0.71530  0.05310  Biso   1.000  C
  C906     1.0000 0.85420  0.75300  0.04570  Biso   1.000  C
  C907     1.0000 0.87360  0.77470  0.07700  Biso   1.000  C
  C908     1.0000 0.86900  0.75960  0.11500  Biso   1.000  C
  C909     1.0000 0.83400  0.72100  0.13000  Biso   1.000  C
  N203     1.0000 0.81150  0.75900  0.23520  Biso   1.000  N
  C910     1.0000 0.81820  0.78230  0.27290  Biso   1.000  C
  C911     1.0000 0.84270  0.77690  0.30580  Biso   1.000  C
  C912     1.0000 0.83590  0.80190  0.33630  Biso   1.000  C
  C913     1.0000 0.86240  0.79520  0.37200  Biso   1.000  C
  N204     1.0000 0.76870  0.59520  0.03300  Biso   1.000  N
  C914     1.0000 0.79220  0.56000  0.02350  Biso   1.000  C
  C915     1.0000 0.80940  0.52800  0.04100  Biso   1.000  C
  C916     1.0000 0.83200  0.49950  0.02200  Biso   1.000  C
  C917     1.0000 0.85410  0.46300  0.04330  Biso   1.000  C
  C918     1.0000 0.76380  0.53600  0.02900  Biso   1.000  C
  N205     1.0000 0.87400  0.50230  0.21350  Biso   1.000  N
  N206     1.0000 0.94680  0.49630  0.22070  Biso   1.000  N
  C919     1.0000 0.91260  0.51490  0.23150  Biso   1.000  C
  C920     1.0000 0.88670  0.46980  0.18880  Biso   1.000  C
  C921     1.0000 0.86470  0.44370  0.16240  Biso   1.000  C
  C922     1.0000 0.88670  0.41430  0.14200  Biso   1.000  C
  C923     1.0000 0.93400  0.41000  0.14420  Biso   1.000  C
  C924     1.0000 0.95390  0.44080  0.17420  Biso   1.000  C
  C925     1.0000 0.93310  0.46820  0.19370  Biso   1.000  C
  C926     1.0000 0.95900  0.37640  0.11980  Biso   1.000  C
  N207     1.0000 0.70030  0.64740  0.07190  Biso   1.000  N
  C927     1.0000 0.66800  0.63380  0.04500  Biso   1.000  C
  C928     1.0000 0.66360  0.59670  0.02090  Biso   1.000  C
  C929     1.0000 0.61980  0.55200  0.97240  Biso   1.000  C
  N208     1.0000 0.69120  0.64160  0.10680  Biso   1.000  N
  C930     1.0000 0.68060  0.64760  0.14610  Biso   1.000  C
  C931     1.0000 0.68830  0.62830  0.18640  Biso   1.000  C
  C932     1.0000 0.68630  0.64560  0.21820  Biso   1.000  C
  C933     1.0000 0.69460  0.62650  0.25600  Biso   1.000  C
  N209     1.0000 0.79010  0.47320  0.25880  Biso   1.000  N
  N210     1.0000 0.77910  0.40630  0.27640  Biso   1.000  N
  C934     1.0000 0.80530  0.43380  0.25950  Biso   1.000  C
  C935     1.0000 0.74920  0.47270  0.27400  Biso   1.000  C
  C936     1.0000 0.74540  0.43000  0.28660  Biso   1.000  C
  C937     1.0000 0.70480  0.41300  0.29520  Biso   1.000  C
  C938     1.0000 0.66800  0.43860  0.29120  Biso   1.000  C
  C939     1.0000 0.67190  0.48130  0.27860  Biso   1.000  C
  C940     1.0000 0.71250  0.49830  0.27000  Biso   1.000  C
  C941     1.0000 0.61820  0.42800  0.29910  Biso   1.000  C
  C942     1.0000 0.62830  0.51020  0.27400  Biso   1.000  C
  C943     1.0000 0.71000  0.40800  0.33050  Biso   1.000  C
  C944     1.0000 0.67990  0.46900  0.33060  Biso   1.000  C
  C945     1.0000 0.71930  0.50990  0.30410  Biso   1.000  C
  Zn46     1.0000 0.15594  0.29172  0.21571  Biso   1.000  Zn
  Zn47     1.0000 0.18601  0.47942  0.22450  Biso   1.000  Zn
  Zn48     1.0000 0.24752  0.38369  0.08733  Biso   1.000  Zn
  N211     1.0000 0.16940  0.34730  0.24400  Biso   1.000  N
  N212     1.0000 0.17870  0.42050  0.25040  Biso   1.000  N
  C946     1.0000 0.16460  0.38990  0.22660  Biso   1.000  C
  C947     1.0000 0.19040  0.35810  0.28020  Biso   1.000  C
  C948     1.0000 0.20570  0.32740  0.31230  Biso   1.000  C
  C949     1.0000 0.21570  0.42100  0.31920  Biso   1.000  C
  C950     1.0000 0.19670  0.40350  0.28860  Biso   1.000  C
  N213     1.0000 0.22070  0.47130  0.17420  Biso   1.000  N
  N214     1.0000 0.24630  0.43420  0.12360  Biso   1.000  N
  C951     1.0000 0.21420  0.44010  0.14900  Biso   1.000  C
  C952     1.0000 0.26100  0.48870  0.16730  Biso   1.000  C
  C953     1.0000 0.28570  0.52070  0.18340  Biso   1.000  C
  C954     1.0000 0.33230  0.52690  0.16900  Biso   1.000  C
  C955     1.0000 0.35500  0.49900  0.13800  Biso   1.000  C
  C956     1.0000 0.32620  0.47640  0.12030  Biso   1.000  C
  C957     1.0000 0.28380  0.46610  0.13450  Biso   1.000  C
  C958     1.0000 0.35880  0.56000  0.18730  Biso   1.000  C
  C959     1.0000 0.39830  0.51640  0.12140  Biso   1.000  C
  N215     1.0000 0.20430  0.34140  0.11180  Biso   1.000  N
  N216     1.0000 0.17060  0.30510  0.15930  Biso   1.000  N
  C960     1.0000 0.20570  0.32940  0.14940  Biso   1.000  C
  C961     1.0000 0.16000  0.33870  0.09580  Biso   1.000  C
  C962     1.0000 0.14430  0.34780  0.06000  Biso   1.000  C
  C963     1.0000 0.09900  0.33200  0.04900  Biso   1.000  C
  C964     1.0000 0.08040  0.30980  0.08490  Biso   1.000  C
  C965     1.0000 0.09830  0.29550  0.12050  Biso   1.000  C
  C966     1.0000 0.13910  0.31240  0.12680  Biso   1.000  C
  C967     1.0000 0.17430  0.29980  0.09160  Biso   1.000  C
  C968     1.0000 0.16970  0.28470  0.05310  Biso   1.000  C
  C969     1.0000 0.14580  0.24700  0.04570  Biso   1.000  C
  C970     1.0000 0.12640  0.22530  0.07700  Biso   1.000  C
  C971     1.0000 0.13100  0.24040  0.11500  Biso   1.000  C
  C972     1.0000 0.16600  0.27900  0.13000  Biso   1.000  C
  N217     1.0000 0.18850  0.24100  0.23520  Biso   1.000  N
  C973     1.0000 0.18180  0.21770  0.27290  Biso   1.000  C
  C974     1.0000 0.15730  0.22310  0.30580  Biso   1.000  C
  C975     1.0000 0.16410  0.19810  0.33630  Biso   1.000  C
  C976     1.0000 0.13760  0.20480  0.37200  Biso   1.000  C
  N218     1.0000 0.23130  0.40480  0.03300  Biso   1.000  N
  C977     1.0000 0.20780  0.44000  0.02350  Biso   1.000  C
  C978     1.0000 0.19060  0.47200  0.04100  Biso   1.000  C
  C979     1.0000 0.16800  0.50050  0.02200  Biso   1.000  C
  C980     1.0000 0.14590  0.53700  0.04330  Biso   1.000  C
  C981     1.0000 0.23620  0.46400  0.02900  Biso   1.000  C
  N219     1.0000 0.12600  0.49770  0.21350  Biso   1.000  N
  N220     1.0000 0.05320  0.50370  0.22070  Biso   1.000  N
  C982     1.0000 0.08740  0.48510  0.23150  Biso   1.000  C
  C983     1.0000 0.11330  0.53020  0.18880  Biso   1.000  C
  C984     1.0000 0.13530  0.55630  0.16240  Biso   1.000  C
  C985     1.0000 0.11330  0.58570  0.14200  Biso   1.000  C
  C986     1.0000 0.06600  0.59000  0.14420  Biso   1.000  C
  C987     1.0000 0.04610  0.55920  0.17420  Biso   1.000  C
  C988     1.0000 0.06690  0.53180  0.19370  Biso   1.000  C
  C989     1.0000 0.04100  0.62360  0.11980  Biso   1.000  C
  N221     1.0000 0.29970  0.35260  0.07190  Biso   1.000  N
  C990     1.0000 0.33200  0.36620  0.04500  Biso   1.000  C
  C991     1.0000 0.33640  0.40330  0.02090  Biso   1.000  C
  C992     1.0000 0.38020  0.44800  0.97240  Biso   1.000  C
  N222     1.0000 0.30880  0.35840  0.10680  Biso   1.000  N
  C993     1.0000 0.31940  0.35240  0.14610  Biso   1.000  C
  C994     1.0000 0.31170  0.37170  0.18640  Biso   1.000  C
  C995     1.0000 0.31370  0.35440  0.21820  Biso   1.000  C
  C996     1.0000 0.30540  0.37350  0.25600  Biso   1.000  C
  N223     1.0000 0.20990  0.52680  0.25880  Biso   1.000  N
  N224     1.0000 0.22090  0.59370  0.27640  Biso   1.000  N
  C997     1.0000 0.19470  0.56620  0.25950  Biso   1.000  C
  C998     1.0000 0.25080  0.52730  0.27400  Biso   1.000  C
  C999     1.0000 0.25460  0.57000  0.28660  Biso   1.000  C
  C1000    1.0000 0.29520  0.58700  0.29520  Biso   1.000  C
  C1001    1.0000 0.33200  0.56140  0.29120  Biso   1.000  C
  C1002    1.0000 0.32810  0.51870  0.27860  Biso   1.000  C
  C1003    1.0000 0.28750  0.50170  0.27000  Biso   1.000  C
  C1004    1.0000 0.38180  0.57200  0.29910  Biso   1.000  C
  C1005    1.0000 0.37170  0.48980  0.27400  Biso   1.000  C
  C1006    1.0000 0.29000  0.59200  0.33050  Biso   1.000  C
  C1007    1.0000 0.32010  0.53100  0.33060  Biso   1.000  C
  C1008    1.0000 0.28070  0.49010  0.30410  Biso   1.000  C
  Zn49     1.0000 0.50000  0.00000  0.25000  Biso   1.000  Zn
  Zn50     1.0000 0.50000  0.00000  0.75000  Biso   1.000  Zn
  Zn51     1.0000 0.00000  0.50000  0.25000  Biso   1.000  Zn
  Zn52     1.0000 0.00000  0.50000  0.75000  Biso   1.000  Zn
  C1009    1.0000 0.23980  0.13490  0.00000  Biso   1.000  C
  C1010    1.0000 0.38160  0.23860  0.00000  Biso   1.000  C
  C1011    1.0000 0.40780  0.37530  0.00000  Biso   1.000  C
  C1012    1.0000 0.76020  0.86510  0.00000  Biso   1.000  C
  C1013    1.0000 0.61840  0.76140  0.00000  Biso   1.000  C
  C1014    1.0000 0.59220  0.62470  0.00000  Biso   1.000  C
  C1015    1.0000 0.36510  0.73980  0.50000  Biso   1.000  C
  C1016    1.0000 0.26140  0.88160  0.50000  Biso   1.000  C
  C1017    1.0000 0.12470  0.90780  0.50000  Biso   1.000  C
  C1018    1.0000 0.63490  0.26020  0.50000  Biso   1.000  C
  C1019    1.0000 0.73860  0.11840  0.50000  Biso   1.000  C
  C1020    1.0000 0.87530  0.09220  0.50000  Biso   1.000  C
  C1021    1.0000 0.26020  0.63490  0.50000  Biso   1.000  C
  C1022    1.0000 0.11840  0.73860  0.50000  Biso   1.000  C
  C1023    1.0000 0.09220  0.87530  0.50000  Biso   1.000  C
  C1024    1.0000 0.73980  0.36510  0.50000  Biso   1.000  C
  C1025    1.0000 0.88160  0.26140  0.50000  Biso   1.000  C
  C1026    1.0000 0.90780  0.12470  0.50000  Biso   1.000  C
  C1027    1.0000 0.13490  0.23980  0.00000  Biso   1.000  C
  C1028    1.0000 0.23860  0.38160  0.00000  Biso   1.000  C
  C1029    1.0000 0.37530  0.40780  0.00000  Biso   1.000  C
  C1030    1.0000 0.86510  0.76020  0.00000  Biso   1.000  C
  C1031    1.0000 0.76140  0.61840  0.00000  Biso   1.000  C
  C1032    1.0000 0.62470  0.59220  0.00000  Biso   1.000  C
  C1033    1.0000 0.22350  0.22350  0.21560  Biso   1.000  C
  C1034    1.0000 0.31260  0.31260  0.08740  Biso   1.000  C
  C1035    1.0000 0.33170  0.33170  0.08650  Biso   1.000  C
  C1036    1.0000 0.77650  0.77650  0.21560  Biso   1.000  C
  C1037    1.0000 0.68740  0.68740  0.08740  Biso   1.000  C
  C1038    1.0000 0.66830  0.66830  0.08650  Biso   1.000  C
  C1039    1.0000 0.27650  0.72350  0.71560  Biso   1.000  C
  C1040    1.0000 0.18740  0.81260  0.58740  Biso   1.000  C
  C1041    1.0000 0.16830  0.83170  0.58650  Biso   1.000  C
  C1042    1.0000 0.72350  0.27650  0.71560  Biso   1.000  C
  C1043    1.0000 0.81260  0.18740  0.58740  Biso   1.000  C
  C1044    1.0000 0.83170  0.16830  0.58650  Biso   1.000  C
  C1045    1.0000 0.27650  0.72350  0.28440  Biso   1.000  C
  C1046    1.0000 0.18740  0.81260  0.41260  Biso   1.000  C
  C1047    1.0000 0.16830  0.83170  0.41350  Biso   1.000  C
  C1048    1.0000 0.72350  0.27650  0.28440  Biso   1.000  C
  C1049    1.0000 0.81260  0.18740  0.41260  Biso   1.000  C
  C1050    1.0000 0.83170  0.16830  0.41350  Biso   1.000  C
  C1051    1.0000 0.22350  0.22350  0.78440  Biso   1.000  C
  C1052    1.0000 0.31260  0.31260  0.91260  Biso   1.000  C
  C1053    1.0000 0.33170  0.33170  0.91350  Biso   1.000  C
  C1054    1.0000 0.77650  0.77650  0.78440  Biso   1.000  C
  C1055    1.0000 0.68740  0.68740  0.91260  Biso   1.000  C
  C1056    1.0000 0.66830  0.66830  0.91350  Biso   1.000  C
