data_image0
_cell_length_a       27.652
_cell_length_b       27.652
_cell_length_c       20.028
_cell_angle_alpha    90
_cell_angle_beta     90
_cell_angle_gamma    120

_symmetry_space_group_name_H-M    "P 1"
_symmetry_int_tables_number       1

loop_
  _symmetry_equiv_pos_as_xyz
  'x, y, z'

loop_
  _atom_site_label
  _atom_site_occupancy
  _atom_site_fract_x
  _atom_site_fract_y
  _atom_site_fract_z
  _atom_site_thermal_displace_type
  _atom_site_B_iso_or_equiv
  _atom_site_type_symbol
  O1       1.0000 0.23460  0.95040  0.44670  Biso   1.000  O
  O2       1.0000 0.41200  0.99870  0.61670  Biso   1.000  O
  O3       1.0000 0.28780  0.94210  0.57770  Biso   1.000  O
  O4       1.0000 0.34701  0.95045  0.45780  Biso   1.000  O
  O5       1.0000 0.21750  0.98200  0.39010  Biso   1.000  O
  O6       1.0000 0.64370  0.18860  0.40380  Biso   1.000  O
  O7       1.0000 0.57350  0.21640  0.43200  Biso   1.000  O
  O8       1.0000 0.55570  0.14800  0.35440  Biso   1.000  O
  O9       1.0000 0.07160  0.83920  0.14110  Biso   1.000  O
  C1       1.0000 0.17100  0.91360  0.28650  Biso   1.000  C
  H1       1.0000 0.19760  0.94500  0.26390  Biso   1.000  H
  C2       1.0000 0.50790  0.10360  0.50250  Biso   1.000  C
  H2       1.0000 0.48640  0.11870  0.48790  Biso   1.000  H
  C3       1.0000 0.42750  0.03470  0.57110  Biso   1.000  C
  C4       1.0000 0.48700  0.06070  0.54910  Biso   1.000  C
  C5       1.0000 0.17680  0.90920  0.35420  Biso   1.000  C
  C6       1.0000 0.23820  0.94550  0.38040  Biso   1.000  C
  H3       1.0000 0.27560  0.91090  0.56160  Biso   1.000  H
  O10      1.0000 0.71730  0.68180  0.65710  Biso   1.000  O
  O11      1.0000 0.90127  0.28373  0.78003  Biso   1.000  O
  O12      1.0000 0.07867  0.33203  0.95003  Biso   1.000  O
  O13      1.0000 0.95447  0.27543  0.91103  Biso   1.000  O
  O14      1.0000 0.01368  0.28378  0.79113  Biso   1.000  O
  O15      1.0000 0.88417  0.31533  0.72343  Biso   1.000  O
  O16      1.0000 0.31037  0.52193  0.73713  Biso   1.000  O
  O17      1.0000 0.24017  0.54973  0.76533  Biso   1.000  O
  O18      1.0000 0.22237  0.48133  0.68773  Biso   1.000  O
  O19      1.0000 0.73827  0.17253  0.47443  Biso   1.000  O
  C7       1.0000 0.83767  0.24693  0.61983  Biso   1.000  C
  H4       1.0000 0.86427  0.27833  0.59723  Biso   1.000  H
  C8       1.0000 0.17457  0.43693  0.83583  Biso   1.000  C
  H5       1.0000 0.15307  0.45203  0.82123  Biso   1.000  H
  C9       1.0000 0.09417  0.36803  0.90443  Biso   1.000  C
  C10      1.0000 0.15367  0.39403  0.88243  Biso   1.000  C
  C11      1.0000 0.84347  0.24253  0.68753  Biso   1.000  C
  C12      1.0000 0.90487  0.27883  0.71373  Biso   1.000  C
  H6       1.0000 0.94227  0.24423  0.89493  Biso   1.000  H
  O20      1.0000 0.38397  0.01513  0.99043  Biso   1.000  O
  O21      1.0000 0.56793  0.61707  0.11337  Biso   1.000  O
  O22      1.0000 0.74533  0.66537  0.28337  Biso   1.000  O
  O23      1.0000 0.62113  0.60877  0.24437  Biso   1.000  O
  O24      1.0000 0.68034  0.61712  0.12447  Biso   1.000  O
  O25      1.0000 0.55083  0.64867  0.05677  Biso   1.000  O
  O26      1.0000 0.97703  0.85527  0.07047  Biso   1.000  O
  O27      1.0000 0.90683  0.88307  0.09867  Biso   1.000  O
  O28      1.0000 0.88903  0.81467  0.02107  Biso   1.000  O
  O29      1.0000 0.40493  0.50587  0.80777  Biso   1.000  O
  C13      1.0000 0.50433  0.58027  0.95317  Biso   1.000  C
  H7       1.0000 0.53093  0.61167  0.93057  Biso   1.000  H
  C14      1.0000 0.84123  0.77027  0.16917  Biso   1.000  C
  H8       1.0000 0.81973  0.78537  0.15457  Biso   1.000  H
  C15      1.0000 0.76083  0.70137  0.23777  Biso   1.000  C
  C16      1.0000 0.82033  0.72737  0.21577  Biso   1.000  C
  C17      1.0000 0.51013  0.57587  0.02087  Biso   1.000  C
  C18      1.0000 0.57153  0.61217  0.04707  Biso   1.000  C
  H9       1.0000 0.60893  0.57757  0.22827  Biso   1.000  H
  O30      1.0000 0.05063  0.34847  0.32377  Biso   1.000  O
  O31      1.0000 0.04960  0.28420  0.44670  Biso   1.000  O
  O32      1.0000 0.00130  0.41330  0.61670  Biso   1.000  O
  O33      1.0000 0.05790  0.34570  0.57770  Biso   1.000  O
  O34      1.0000 0.04955  0.39656  0.45780  Biso   1.000  O
  O35      1.0000 0.01800  0.23550  0.39010  Biso   1.000  O
  O36      1.0000 0.81140  0.45510  0.40380  Biso   1.000  O
  O37      1.0000 0.78360  0.35710  0.43200  Biso   1.000  O
  O38      1.0000 0.85200  0.40770  0.35440  Biso   1.000  O
  O39      1.0000 0.16080  0.23240  0.14110  Biso   1.000  O
  C19      1.0000 0.08640  0.25740  0.28650  Biso   1.000  C
  H10      1.0000 0.05500  0.25260  0.26390  Biso   1.000  H
  C20      1.0000 0.89640  0.40430  0.50250  Biso   1.000  C
  H11      1.0000 0.88130  0.36770  0.48790  Biso   1.000  H
  C21      1.0000 0.96530  0.39280  0.57110  Biso   1.000  C
  C22      1.0000 0.93930  0.42630  0.54910  Biso   1.000  C
  C23      1.0000 0.09080  0.26760  0.35420  Biso   1.000  C
  C24      1.0000 0.05450  0.29270  0.38040  Biso   1.000  C
  H12      1.0000 0.08910  0.36470  0.56160  Biso   1.000  H
  O40      1.0000 0.31820  0.03550  0.65710  Biso   1.000  O
  O41      1.0000 0.71627  0.61753  0.78003  Biso   1.000  O
  O42      1.0000 0.66797  0.74663  0.95003  Biso   1.000  O
  O43      1.0000 0.72457  0.67903  0.91103  Biso   1.000  O
  O44      1.0000 0.71622  0.72989  0.79113  Biso   1.000  O
  O45      1.0000 0.68467  0.56883  0.72343  Biso   1.000  O
  O46      1.0000 0.47807  0.78843  0.73713  Biso   1.000  O
  O47      1.0000 0.45027  0.69043  0.76533  Biso   1.000  O
  O48      1.0000 0.51867  0.74103  0.68773  Biso   1.000  O
  O49      1.0000 0.82747  0.56573  0.47443  Biso   1.000  O
  C25      1.0000 0.75307  0.59073  0.61983  Biso   1.000  C
  H13      1.0000 0.72167  0.58593  0.59723  Biso   1.000  H
  C26      1.0000 0.56307  0.73763  0.83583  Biso   1.000  C
  H14      1.0000 0.54797  0.70103  0.82123  Biso   1.000  H
  C27      1.0000 0.63197  0.72613  0.90443  Biso   1.000  C
  C28      1.0000 0.60597  0.75963  0.88243  Biso   1.000  C
  C29      1.0000 0.75747  0.60093  0.68753  Biso   1.000  C
  C30      1.0000 0.72117  0.62603  0.71373  Biso   1.000  C
  H15      1.0000 0.75577  0.69803  0.89493  Biso   1.000  H
  O50      1.0000 0.98487  0.36883  0.99043  Biso   1.000  O
  O51      1.0000 0.38293  0.95087  0.11337  Biso   1.000  O
  O52      1.0000 0.33463  0.07997  0.28337  Biso   1.000  O
  O53      1.0000 0.39123  0.01237  0.24437  Biso   1.000  O
  O54      1.0000 0.38288  0.06323  0.12447  Biso   1.000  O
  O55      1.0000 0.35133  0.90217  0.05677  Biso   1.000  O
  O56      1.0000 0.14473  0.12177  0.07047  Biso   1.000  O
  O57      1.0000 0.11693  0.02377  0.09867  Biso   1.000  O
  O58      1.0000 0.18533  0.07437  0.02107  Biso   1.000  O
  O59      1.0000 0.49413  0.89907  0.80777  Biso   1.000  O
  C31      1.0000 0.41973  0.92407  0.95317  Biso   1.000  C
  H16      1.0000 0.38833  0.91927  0.93057  Biso   1.000  H
  C32      1.0000 0.22973  0.07097  0.16917  Biso   1.000  C
  H17      1.0000 0.21463  0.03437  0.15457  Biso   1.000  H
  C33      1.0000 0.29863  0.05947  0.23777  Biso   1.000  C
  C34      1.0000 0.27263  0.09297  0.21577  Biso   1.000  C
  C35      1.0000 0.42413  0.93427  0.02087  Biso   1.000  C
  C36      1.0000 0.38783  0.95937  0.04707  Biso   1.000  C
  H18      1.0000 0.42243  0.03137  0.22827  Biso   1.000  H
  O60      1.0000 0.65153  0.70217  0.32377  Biso   1.000  O
  O61      1.0000 0.71580  0.76540  0.44670  Biso   1.000  O
  O62      1.0000 0.58670  0.58800  0.61670  Biso   1.000  O
  O63      1.0000 0.65430  0.71220  0.57770  Biso   1.000  O
  O64      1.0000 0.60344  0.65299  0.45780  Biso   1.000  O
  O65      1.0000 0.76450  0.78250  0.39010  Biso   1.000  O
  O66      1.0000 0.54490  0.35630  0.40380  Biso   1.000  O
  O67      1.0000 0.64290  0.42650  0.43200  Biso   1.000  O
  O68      1.0000 0.59230  0.44430  0.35440  Biso   1.000  O
  O69      1.0000 0.76760  0.92840  0.14110  Biso   1.000  O
  C37      1.0000 0.74260  0.82900  0.28650  Biso   1.000  C
  H19      1.0000 0.74740  0.80240  0.26390  Biso   1.000  H
  C38      1.0000 0.59570  0.49210  0.50250  Biso   1.000  C
  H20      1.0000 0.63230  0.51360  0.48790  Biso   1.000  H
  C39      1.0000 0.60720  0.57250  0.57110  Biso   1.000  C
  C40      1.0000 0.57370  0.51300  0.54910  Biso   1.000  C
  C41      1.0000 0.73240  0.82320  0.35420  Biso   1.000  C
  C42      1.0000 0.70730  0.76180  0.38040  Biso   1.000  C
  H21      1.0000 0.63530  0.72440  0.56160  Biso   1.000  H
  O70      1.0000 0.96450  0.28270  0.65710  Biso   1.000  O
  O71      1.0000 0.38247  0.09873  0.78003  Biso   1.000  O
  O72      1.0000 0.25337  0.92133  0.95003  Biso   1.000  O
  O73      1.0000 0.32097  0.04553  0.91103  Biso   1.000  O
  O74      1.0000 0.27011  0.98632  0.79113  Biso   1.000  O
  O75      1.0000 0.43117  0.11583  0.72343  Biso   1.000  O
  O76      1.0000 0.21157  0.68963  0.73713  Biso   1.000  O
  O77      1.0000 0.30957  0.75983  0.76533  Biso   1.000  O
  O78      1.0000 0.25897  0.77763  0.68773  Biso   1.000  O
  O79      1.0000 0.43427  0.26173  0.47443  Biso   1.000  O
  C43      1.0000 0.40927  0.16233  0.61983  Biso   1.000  C
  H22      1.0000 0.41407  0.13573  0.59723  Biso   1.000  H
  C44      1.0000 0.26237  0.82543  0.83583  Biso   1.000  C
  H23      1.0000 0.29897  0.84693  0.82123  Biso   1.000  H
  C45      1.0000 0.27387  0.90583  0.90443  Biso   1.000  C
  C46      1.0000 0.24037  0.84633  0.88243  Biso   1.000  C
  C47      1.0000 0.39907  0.15653  0.68753  Biso   1.000  C
  C48      1.0000 0.37397  0.09513  0.71373  Biso   1.000  C
  H24      1.0000 0.30197  0.05773  0.89493  Biso   1.000  H
  O80      1.0000 0.63117  0.61603  0.99043  Biso   1.000  O
  O81      1.0000 0.04913  0.43207  0.11337  Biso   1.000  O
  O82      1.0000 0.92003  0.25467  0.28337  Biso   1.000  O
  O83      1.0000 0.98763  0.37887  0.24437  Biso   1.000  O
  O84      1.0000 0.93677  0.31966  0.12447  Biso   1.000  O
  O85      1.0000 0.09783  0.44917  0.05677  Biso   1.000  O
  O86      1.0000 0.87823  0.02297  0.07047  Biso   1.000  O
  O87      1.0000 0.97623  0.09317  0.09867  Biso   1.000  O
  O88      1.0000 0.92563  0.11097  0.02107  Biso   1.000  O
  O89      1.0000 0.10093  0.59507  0.80777  Biso   1.000  O
  C49      1.0000 0.07593  0.49567  0.95317  Biso   1.000  C
  H25      1.0000 0.08073  0.46907  0.93057  Biso   1.000  H
  C50      1.0000 0.92903  0.15877  0.16917  Biso   1.000  C
  H26      1.0000 0.96563  0.18027  0.15457  Biso   1.000  H
  C51      1.0000 0.94053  0.23917  0.23777  Biso   1.000  C
  C52      1.0000 0.90703  0.17967  0.21577  Biso   1.000  C
  C53      1.0000 0.06573  0.48987  0.02087  Biso   1.000  C
  C54      1.0000 0.04063  0.42847  0.04707  Biso   1.000  C
  H27      1.0000 0.96863  0.39107  0.22827  Biso   1.000  H
  O90      1.0000 0.29783  0.94937  0.32377  Biso   1.000  O
  O91      1.0000 0.95040  0.23460  0.55330  Biso   1.000  O
  O92      1.0000 0.99870  0.41200  0.38330  Biso   1.000  O
  O93      1.0000 0.94210  0.28780  0.42230  Biso   1.000  O
  O94      1.0000 0.95045  0.34701  0.54220  Biso   1.000  O
  O95      1.0000 0.98200  0.21750  0.60990  Biso   1.000  O
  O96      1.0000 0.18860  0.64370  0.59620  Biso   1.000  O
  O97      1.0000 0.21640  0.57350  0.56800  Biso   1.000  O
  O98      1.0000 0.14800  0.55570  0.64560  Biso   1.000  O
  O99      1.0000 0.83920  0.07160  0.85890  Biso   1.000  O
  C55      1.0000 0.91360  0.17100  0.71350  Biso   1.000  C
  H28      1.0000 0.94500  0.19760  0.73610  Biso   1.000  H
  C56      1.0000 0.10360  0.50790  0.49750  Biso   1.000  C
  H29      1.0000 0.11870  0.48640  0.51210  Biso   1.000  H
  C57      1.0000 0.03470  0.42750  0.42890  Biso   1.000  C
  C58      1.0000 0.06070  0.48700  0.45090  Biso   1.000  C
  C59      1.0000 0.90920  0.17680  0.64580  Biso   1.000  C
  C60      1.0000 0.94550  0.23820  0.61960  Biso   1.000  C
  H30      1.0000 0.91090  0.27560  0.43840  Biso   1.000  H
  O100     1.0000 0.68180  0.71730  0.34290  Biso   1.000  O
  O101     1.0000 0.61707  0.56793  0.88663  Biso   1.000  O
  O102     1.0000 0.66537  0.74533  0.71663  Biso   1.000  O
  O103     1.0000 0.60877  0.62113  0.75563  Biso   1.000  O
  O104     1.0000 0.61712  0.68034  0.87553  Biso   1.000  O
  O105     1.0000 0.64867  0.55083  0.94323  Biso   1.000  O
  O106     1.0000 0.85527  0.97703  0.92953  Biso   1.000  O
  O107     1.0000 0.88307  0.90683  0.90133  Biso   1.000  O
  O108     1.0000 0.81467  0.88903  0.97893  Biso   1.000  O
  O109     1.0000 0.50587  0.40493  0.19223  Biso   1.000  O
  C61      1.0000 0.58027  0.50433  0.04683  Biso   1.000  C
  H31      1.0000 0.61167  0.53093  0.06943  Biso   1.000  H
  C62      1.0000 0.77027  0.84123  0.83083  Biso   1.000  C
  H32      1.0000 0.78537  0.81973  0.84543  Biso   1.000  H
  C63      1.0000 0.70137  0.76083  0.76223  Biso   1.000  C
  C64      1.0000 0.72737  0.82033  0.78423  Biso   1.000  C
  C65      1.0000 0.57587  0.51013  0.97913  Biso   1.000  C
  C66      1.0000 0.61217  0.57153  0.95293  Biso   1.000  C
  H33      1.0000 0.57757  0.60893  0.77173  Biso   1.000  H
  O110     1.0000 0.34847  0.05063  0.67623  Biso   1.000  O
  O111     1.0000 0.28373  0.90127  0.21997  Biso   1.000  O
  O112     1.0000 0.33203  0.07867  0.04997  Biso   1.000  O
  O113     1.0000 0.27543  0.95447  0.08897  Biso   1.000  O
  O114     1.0000 0.28378  0.01368  0.20887  Biso   1.000  O
  O115     1.0000 0.31533  0.88417  0.27657  Biso   1.000  O
  O116     1.0000 0.52193  0.31037  0.26287  Biso   1.000  O
  O117     1.0000 0.54973  0.24017  0.23467  Biso   1.000  O
  O118     1.0000 0.48133  0.22237  0.31227  Biso   1.000  O
  O119     1.0000 0.17253  0.73827  0.52557  Biso   1.000  O
  C67      1.0000 0.24693  0.83767  0.38017  Biso   1.000  C
  H34      1.0000 0.27833  0.86427  0.40277  Biso   1.000  H
  C68      1.0000 0.43693  0.17457  0.16417  Biso   1.000  C
  H35      1.0000 0.45203  0.15307  0.17877  Biso   1.000  H
  C69      1.0000 0.36803  0.09417  0.09557  Biso   1.000  C
  C70      1.0000 0.39403  0.15367  0.11757  Biso   1.000  C
  C71      1.0000 0.24253  0.84347  0.31247  Biso   1.000  C
  C72      1.0000 0.27883  0.90487  0.28627  Biso   1.000  C
  H36      1.0000 0.24423  0.94227  0.10507  Biso   1.000  H
  O120     1.0000 0.01513  0.38397  0.00957  Biso   1.000  O
  O121     1.0000 0.28420  0.04960  0.55330  Biso   1.000  O
  O122     1.0000 0.41330  0.00130  0.38330  Biso   1.000  O
  O123     1.0000 0.34570  0.05790  0.42230  Biso   1.000  O
  O124     1.0000 0.39656  0.04955  0.54220  Biso   1.000  O
  O125     1.0000 0.23550  0.01800  0.60990  Biso   1.000  O
  O126     1.0000 0.45510  0.81140  0.59620  Biso   1.000  O
  O127     1.0000 0.35710  0.78360  0.56800  Biso   1.000  O
  O128     1.0000 0.40770  0.85200  0.64560  Biso   1.000  O
  O129     1.0000 0.23240  0.16080  0.85890  Biso   1.000  O
  C73      1.0000 0.25740  0.08640  0.71350  Biso   1.000  C
  H37      1.0000 0.25260  0.05500  0.73610  Biso   1.000  H
  C74      1.0000 0.40430  0.89640  0.49750  Biso   1.000  C
  H38      1.0000 0.36770  0.88130  0.51210  Biso   1.000  H
  C75      1.0000 0.39280  0.96530  0.42890  Biso   1.000  C
  C76      1.0000 0.42630  0.93930  0.45090  Biso   1.000  C
  C77      1.0000 0.26760  0.09080  0.64580  Biso   1.000  C
  C78      1.0000 0.29270  0.05450  0.61960  Biso   1.000  C
  H39      1.0000 0.36470  0.08910  0.43840  Biso   1.000  H
  O130     1.0000 0.03550  0.31820  0.34290  Biso   1.000  O
  O131     1.0000 0.95087  0.38293  0.88663  Biso   1.000  O
  O132     1.0000 0.07997  0.33463  0.71663  Biso   1.000  O
  O133     1.0000 0.01237  0.39123  0.75563  Biso   1.000  O
  O134     1.0000 0.06323  0.38288  0.87553  Biso   1.000  O
  O135     1.0000 0.90217  0.35133  0.94323  Biso   1.000  O
  O136     1.0000 0.12177  0.14473  0.92953  Biso   1.000  O
  O137     1.0000 0.02377  0.11693  0.90133  Biso   1.000  O
  O138     1.0000 0.07437  0.18533  0.97893  Biso   1.000  O
  O139     1.0000 0.89907  0.49413  0.19223  Biso   1.000  O
  C79      1.0000 0.92407  0.41973  0.04683  Biso   1.000  C
  H40      1.0000 0.91927  0.38833  0.06943  Biso   1.000  H
  C80      1.0000 0.07097  0.22973  0.83083  Biso   1.000  C
  H41      1.0000 0.03437  0.21463  0.84543  Biso   1.000  H
  C81      1.0000 0.05947  0.29863  0.76223  Biso   1.000  C
  C82      1.0000 0.09297  0.27263  0.78423  Biso   1.000  C
  C83      1.0000 0.93427  0.42413  0.97913  Biso   1.000  C
  C84      1.0000 0.95937  0.38783  0.95293  Biso   1.000  C
  H42      1.0000 0.03137  0.42243  0.77173  Biso   1.000  H
  O140     1.0000 0.70217  0.65153  0.67623  Biso   1.000  O
  O141     1.0000 0.61753  0.71627  0.21997  Biso   1.000  O
  O142     1.0000 0.74663  0.66797  0.04997  Biso   1.000  O
  O143     1.0000 0.67903  0.72457  0.08897  Biso   1.000  O
  O144     1.0000 0.72989  0.71622  0.20887  Biso   1.000  O
  O145     1.0000 0.56883  0.68467  0.27657  Biso   1.000  O
  O146     1.0000 0.78843  0.47807  0.26287  Biso   1.000  O
  O147     1.0000 0.69043  0.45027  0.23467  Biso   1.000  O
  O148     1.0000 0.74103  0.51867  0.31227  Biso   1.000  O
  O149     1.0000 0.56573  0.82747  0.52557  Biso   1.000  O
  C85      1.0000 0.59073  0.75307  0.38017  Biso   1.000  C
  H43      1.0000 0.58593  0.72167  0.40277  Biso   1.000  H
  C86      1.0000 0.73763  0.56307  0.16417  Biso   1.000  C
  H44      1.0000 0.70103  0.54797  0.17877  Biso   1.000  H
  C87      1.0000 0.72613  0.63197  0.09557  Biso   1.000  C
  C88      1.0000 0.75963  0.60597  0.11757  Biso   1.000  C
  C89      1.0000 0.60093  0.75747  0.31247  Biso   1.000  C
  C90      1.0000 0.62603  0.72117  0.28627  Biso   1.000  C
  H45      1.0000 0.69803  0.75577  0.10507  Biso   1.000  H
  O150     1.0000 0.36883  0.98487  0.00957  Biso   1.000  O
  O151     1.0000 0.76540  0.71580  0.55330  Biso   1.000  O
  O152     1.0000 0.58800  0.58670  0.38330  Biso   1.000  O
  O153     1.0000 0.71220  0.65430  0.42230  Biso   1.000  O
  O154     1.0000 0.65299  0.60344  0.54220  Biso   1.000  O
  O155     1.0000 0.78250  0.76450  0.60990  Biso   1.000  O
  O156     1.0000 0.35630  0.54490  0.59620  Biso   1.000  O
  O157     1.0000 0.42650  0.64290  0.56800  Biso   1.000  O
  O158     1.0000 0.44430  0.59230  0.64560  Biso   1.000  O
  O159     1.0000 0.92840  0.76760  0.85890  Biso   1.000  O
  C91      1.0000 0.82900  0.74260  0.71350  Biso   1.000  C
  H46      1.0000 0.80240  0.74740  0.73610  Biso   1.000  H
  C92      1.0000 0.49210  0.59570  0.49750  Biso   1.000  C
  H47      1.0000 0.51360  0.63230  0.51210  Biso   1.000  H
  C93      1.0000 0.57250  0.60720  0.42890  Biso   1.000  C
  C94      1.0000 0.51300  0.57370  0.45090  Biso   1.000  C
  C95      1.0000 0.82320  0.73240  0.64580  Biso   1.000  C
  C96      1.0000 0.76180  0.70730  0.61960  Biso   1.000  C
  H48      1.0000 0.72440  0.63530  0.43840  Biso   1.000  H
  O160     1.0000 0.28270  0.96450  0.34290  Biso   1.000  O
  O161     1.0000 0.43207  0.04913  0.88663  Biso   1.000  O
  O162     1.0000 0.25467  0.92003  0.71663  Biso   1.000  O
  O163     1.0000 0.37887  0.98763  0.75563  Biso   1.000  O
  O164     1.0000 0.31966  0.93677  0.87553  Biso   1.000  O
  O165     1.0000 0.44917  0.09783  0.94323  Biso   1.000  O
  O166     1.0000 0.02297  0.87823  0.92953  Biso   1.000  O
  O167     1.0000 0.09317  0.97623  0.90133  Biso   1.000  O
  O168     1.0000 0.11097  0.92563  0.97893  Biso   1.000  O
  O169     1.0000 0.59507  0.10093  0.19223  Biso   1.000  O
  C97      1.0000 0.49567  0.07593  0.04683  Biso   1.000  C
  H49      1.0000 0.46907  0.08073  0.06943  Biso   1.000  H
  C98      1.0000 0.15877  0.92903  0.83083  Biso   1.000  C
  H50      1.0000 0.18027  0.96563  0.84543  Biso   1.000  H
  C99      1.0000 0.23917  0.94053  0.76223  Biso   1.000  C
  C100     1.0000 0.17967  0.90703  0.78423  Biso   1.000  C
  C101     1.0000 0.48987  0.06573  0.97913  Biso   1.000  C
  C102     1.0000 0.42847  0.04063  0.95293  Biso   1.000  C
  H51      1.0000 0.39107  0.96863  0.77173  Biso   1.000  H
  O170     1.0000 0.94937  0.29783  0.67623  Biso   1.000  O
  O171     1.0000 0.09873  0.38247  0.21997  Biso   1.000  O
  O172     1.0000 0.92133  0.25337  0.04997  Biso   1.000  O
  O173     1.0000 0.04553  0.32097  0.08897  Biso   1.000  O
  O174     1.0000 0.98632  0.27011  0.20887  Biso   1.000  O
  O175     1.0000 0.11583  0.43117  0.27657  Biso   1.000  O
  O176     1.0000 0.68963  0.21157  0.26287  Biso   1.000  O
  O177     1.0000 0.75983  0.30957  0.23467  Biso   1.000  O
  O178     1.0000 0.77763  0.25897  0.31227  Biso   1.000  O
  O179     1.0000 0.26173  0.43427  0.52557  Biso   1.000  O
  C103     1.0000 0.16233  0.40927  0.38017  Biso   1.000  C
  H52      1.0000 0.13573  0.41407  0.40277  Biso   1.000  H
  C104     1.0000 0.82543  0.26237  0.16417  Biso   1.000  C
  H53      1.0000 0.84693  0.29897  0.17877  Biso   1.000  H
  C105     1.0000 0.90583  0.27387  0.09557  Biso   1.000  C
  C106     1.0000 0.84633  0.24037  0.11757  Biso   1.000  C
  C107     1.0000 0.15653  0.39907  0.31247  Biso   1.000  C
  C108     1.0000 0.09513  0.37397  0.28627  Biso   1.000  C
  H54      1.0000 0.05773  0.30197  0.10507  Biso   1.000  H
  O180     1.0000 0.61603  0.63117  0.00957  Biso   1.000  O
  O181     1.0000 0.76540  0.04960  0.55330  Biso   1.000  O
  O182     1.0000 0.58800  0.00130  0.38330  Biso   1.000  O
  O183     1.0000 0.71220  0.05790  0.42230  Biso   1.000  O
  O184     1.0000 0.65299  0.04955  0.54220  Biso   1.000  O
  O185     1.0000 0.78250  0.01800  0.60990  Biso   1.000  O
  O186     1.0000 0.35630  0.81140  0.59620  Biso   1.000  O
  O187     1.0000 0.42650  0.78360  0.56800  Biso   1.000  O
  O188     1.0000 0.44430  0.85200  0.64560  Biso   1.000  O
  O189     1.0000 0.92840  0.16080  0.85890  Biso   1.000  O
  C109     1.0000 0.82900  0.08640  0.71350  Biso   1.000  C
  H55      1.0000 0.80240  0.05500  0.73610  Biso   1.000  H
  C110     1.0000 0.49210  0.89640  0.49750  Biso   1.000  C
  H56      1.0000 0.51360  0.88130  0.51210  Biso   1.000  H
  C111     1.0000 0.57250  0.96530  0.42890  Biso   1.000  C
  C112     1.0000 0.51300  0.93930  0.45090  Biso   1.000  C
  C113     1.0000 0.82320  0.09080  0.64580  Biso   1.000  C
  C114     1.0000 0.76180  0.05450  0.61960  Biso   1.000  C
  H57      1.0000 0.72440  0.08910  0.43840  Biso   1.000  H
  O190     1.0000 0.28270  0.31820  0.34290  Biso   1.000  O
  O191     1.0000 0.43207  0.38293  0.88663  Biso   1.000  O
  O192     1.0000 0.25467  0.33463  0.71663  Biso   1.000  O
  O193     1.0000 0.37887  0.39123  0.75563  Biso   1.000  O
  O194     1.0000 0.31966  0.38288  0.87553  Biso   1.000  O
  O195     1.0000 0.44917  0.35133  0.94323  Biso   1.000  O
  O196     1.0000 0.02297  0.14473  0.92953  Biso   1.000  O
  O197     1.0000 0.09317  0.11693  0.90133  Biso   1.000  O
  O198     1.0000 0.11097  0.18533  0.97893  Biso   1.000  O
  O199     1.0000 0.59507  0.49413  0.19223  Biso   1.000  O
  C115     1.0000 0.49567  0.41973  0.04683  Biso   1.000  C
  H58      1.0000 0.46907  0.38833  0.06943  Biso   1.000  H
  C116     1.0000 0.15877  0.22973  0.83083  Biso   1.000  C
  H59      1.0000 0.18027  0.21463  0.84543  Biso   1.000  H
  C117     1.0000 0.23917  0.29863  0.76223  Biso   1.000  C
  C118     1.0000 0.17967  0.27263  0.78423  Biso   1.000  C
  C119     1.0000 0.48987  0.42413  0.97913  Biso   1.000  C
  C120     1.0000 0.42847  0.38783  0.95293  Biso   1.000  C
  H60      1.0000 0.39107  0.42243  0.77173  Biso   1.000  H
  O200     1.0000 0.94937  0.65153  0.67623  Biso   1.000  O
  O201     1.0000 0.09873  0.71627  0.21997  Biso   1.000  O
  O202     1.0000 0.92133  0.66797  0.04997  Biso   1.000  O
  O203     1.0000 0.04553  0.72457  0.08897  Biso   1.000  O
  O204     1.0000 0.98632  0.71622  0.20887  Biso   1.000  O
  O205     1.0000 0.11583  0.68467  0.27657  Biso   1.000  O
  O206     1.0000 0.68963  0.47807  0.26287  Biso   1.000  O
  O207     1.0000 0.75983  0.45027  0.23467  Biso   1.000  O
  O208     1.0000 0.77763  0.51867  0.31227  Biso   1.000  O
  O209     1.0000 0.26173  0.82747  0.52557  Biso   1.000  O
  C121     1.0000 0.16233  0.75307  0.38017  Biso   1.000  C
  H61      1.0000 0.13573  0.72167  0.40277  Biso   1.000  H
  C122     1.0000 0.82543  0.56307  0.16417  Biso   1.000  C
  H62      1.0000 0.84693  0.54797  0.17877  Biso   1.000  H
  C123     1.0000 0.90583  0.63197  0.09557  Biso   1.000  C
  C124     1.0000 0.84633  0.60597  0.11757  Biso   1.000  C
  C125     1.0000 0.15653  0.75747  0.31247  Biso   1.000  C
  C126     1.0000 0.09513  0.72117  0.28627  Biso   1.000  C
  H63      1.0000 0.05773  0.75577  0.10507  Biso   1.000  H
  O210     1.0000 0.61603  0.98487  0.00957  Biso   1.000  O
  O211     1.0000 0.95040  0.71580  0.55330  Biso   1.000  O
  O212     1.0000 0.99870  0.58670  0.38330  Biso   1.000  O
  O213     1.0000 0.94210  0.65430  0.42230  Biso   1.000  O
  O214     1.0000 0.95045  0.60344  0.54220  Biso   1.000  O
  O215     1.0000 0.98200  0.76450  0.60990  Biso   1.000  O
  O216     1.0000 0.18860  0.54490  0.59620  Biso   1.000  O
  O217     1.0000 0.21640  0.64290  0.56800  Biso   1.000  O
  O218     1.0000 0.14800  0.59230  0.64560  Biso   1.000  O
  O219     1.0000 0.83920  0.76760  0.85890  Biso   1.000  O
  C127     1.0000 0.91360  0.74260  0.71350  Biso   1.000  C
  H64      1.0000 0.94500  0.74740  0.73610  Biso   1.000  H
  C128     1.0000 0.10360  0.59570  0.49750  Biso   1.000  C
  H65      1.0000 0.11870  0.63230  0.51210  Biso   1.000  H
  C129     1.0000 0.03470  0.60720  0.42890  Biso   1.000  C
  C130     1.0000 0.06070  0.57370  0.45090  Biso   1.000  C
  C131     1.0000 0.90920  0.73240  0.64580  Biso   1.000  C
  C132     1.0000 0.94550  0.70730  0.61960  Biso   1.000  C
  H66      1.0000 0.91090  0.63530  0.43840  Biso   1.000  H
  O220     1.0000 0.68180  0.96450  0.34290  Biso   1.000  O
  O221     1.0000 0.61707  0.04913  0.88663  Biso   1.000  O
  O222     1.0000 0.66537  0.92003  0.71663  Biso   1.000  O
  O223     1.0000 0.60877  0.98763  0.75563  Biso   1.000  O
  O224     1.0000 0.61712  0.93677  0.87553  Biso   1.000  O
  O225     1.0000 0.64867  0.09783  0.94323  Biso   1.000  O
  O226     1.0000 0.85527  0.87823  0.92953  Biso   1.000  O
  O227     1.0000 0.88307  0.97623  0.90133  Biso   1.000  O
  O228     1.0000 0.81467  0.92563  0.97893  Biso   1.000  O
  O229     1.0000 0.50587  0.10093  0.19223  Biso   1.000  O
  C133     1.0000 0.58027  0.07593  0.04683  Biso   1.000  C
  H67      1.0000 0.61167  0.08073  0.06943  Biso   1.000  H
  C134     1.0000 0.77027  0.92903  0.83083  Biso   1.000  C
  H68      1.0000 0.78537  0.96563  0.84543  Biso   1.000  H
  C135     1.0000 0.70137  0.94053  0.76223  Biso   1.000  C
  C136     1.0000 0.72737  0.90703  0.78423  Biso   1.000  C
  C137     1.0000 0.57587  0.06573  0.97913  Biso   1.000  C
  C138     1.0000 0.61217  0.04063  0.95293  Biso   1.000  C
  H69      1.0000 0.57757  0.96863  0.77173  Biso   1.000  H
  O230     1.0000 0.34847  0.29783  0.67623  Biso   1.000  O
  O231     1.0000 0.28373  0.38247  0.21997  Biso   1.000  O
  O232     1.0000 0.33203  0.25337  0.04997  Biso   1.000  O
  O233     1.0000 0.27543  0.32097  0.08897  Biso   1.000  O
  O234     1.0000 0.28378  0.27011  0.20887  Biso   1.000  O
  O235     1.0000 0.31533  0.43117  0.27657  Biso   1.000  O
  O236     1.0000 0.52193  0.21157  0.26287  Biso   1.000  O
  O237     1.0000 0.54973  0.30957  0.23467  Biso   1.000  O
  O238     1.0000 0.48133  0.25897  0.31227  Biso   1.000  O
  O239     1.0000 0.17253  0.43427  0.52557  Biso   1.000  O
  C139     1.0000 0.24693  0.40927  0.38017  Biso   1.000  C
  H70      1.0000 0.27833  0.41407  0.40277  Biso   1.000  H
  C140     1.0000 0.43693  0.26237  0.16417  Biso   1.000  C
  H71      1.0000 0.45203  0.29897  0.17877  Biso   1.000  H
  C141     1.0000 0.36803  0.27387  0.09557  Biso   1.000  C
  C142     1.0000 0.39403  0.24037  0.11757  Biso   1.000  C
  C143     1.0000 0.24253  0.39907  0.31247  Biso   1.000  C
  C144     1.0000 0.27883  0.37397  0.28627  Biso   1.000  C
  H72      1.0000 0.24423  0.30197  0.10507  Biso   1.000  H
  O240     1.0000 0.01513  0.63117  0.00957  Biso   1.000  O
  O241     1.0000 0.28420  0.23460  0.55330  Biso   1.000  O
  O242     1.0000 0.41330  0.41200  0.38330  Biso   1.000  O
  O243     1.0000 0.34570  0.28780  0.42230  Biso   1.000  O
  O244     1.0000 0.39656  0.34701  0.54220  Biso   1.000  O
  O245     1.0000 0.23550  0.21750  0.60990  Biso   1.000  O
  O246     1.0000 0.45510  0.64370  0.59620  Biso   1.000  O
  O247     1.0000 0.35710  0.57350  0.56800  Biso   1.000  O
  O248     1.0000 0.40770  0.55570  0.64560  Biso   1.000  O
  O249     1.0000 0.23240  0.07160  0.85890  Biso   1.000  O
  C145     1.0000 0.25740  0.17100  0.71350  Biso   1.000  C
  H73      1.0000 0.25260  0.19760  0.73610  Biso   1.000  H
  C146     1.0000 0.40430  0.50790  0.49750  Biso   1.000  C
  H74      1.0000 0.36770  0.48640  0.51210  Biso   1.000  H
  C147     1.0000 0.39280  0.42750  0.42890  Biso   1.000  C
  C148     1.0000 0.42630  0.48700  0.45090  Biso   1.000  C
  C149     1.0000 0.26760  0.17680  0.64580  Biso   1.000  C
  C150     1.0000 0.29270  0.23820  0.61960  Biso   1.000  C
  H75      1.0000 0.36470  0.27560  0.43840  Biso   1.000  H
  O250     1.0000 0.03550  0.71730  0.34290  Biso   1.000  O
  O251     1.0000 0.95087  0.56793  0.88663  Biso   1.000  O
  O252     1.0000 0.07997  0.74533  0.71663  Biso   1.000  O
  O253     1.0000 0.01237  0.62113  0.75563  Biso   1.000  O
  O254     1.0000 0.06323  0.68034  0.87553  Biso   1.000  O
  O255     1.0000 0.90217  0.55083  0.94323  Biso   1.000  O
  O256     1.0000 0.12177  0.97703  0.92953  Biso   1.000  O
  O257     1.0000 0.02377  0.90683  0.90133  Biso   1.000  O
  O258     1.0000 0.07437  0.88903  0.97893  Biso   1.000  O
  O259     1.0000 0.89907  0.40493  0.19223  Biso   1.000  O
  C151     1.0000 0.92407  0.50433  0.04683  Biso   1.000  C
  H76      1.0000 0.91927  0.53093  0.06943  Biso   1.000  H
  C152     1.0000 0.07097  0.84123  0.83083  Biso   1.000  C
  H77      1.0000 0.03437  0.81973  0.84543  Biso   1.000  H
  C153     1.0000 0.05947  0.76083  0.76223  Biso   1.000  C
  C154     1.0000 0.09297  0.82033  0.78423  Biso   1.000  C
  C155     1.0000 0.93427  0.51013  0.97913  Biso   1.000  C
  C156     1.0000 0.95937  0.57153  0.95293  Biso   1.000  C
  H78      1.0000 0.03137  0.60893  0.77173  Biso   1.000  H
  O260     1.0000 0.70217  0.05063  0.67623  Biso   1.000  O
  O261     1.0000 0.61753  0.90127  0.21997  Biso   1.000  O
  O262     1.0000 0.74663  0.07867  0.04997  Biso   1.000  O
  O263     1.0000 0.67903  0.95447  0.08897  Biso   1.000  O
  O264     1.0000 0.72989  0.01368  0.20887  Biso   1.000  O
  O265     1.0000 0.56883  0.88417  0.27657  Biso   1.000  O
  O266     1.0000 0.78843  0.31037  0.26287  Biso   1.000  O
  O267     1.0000 0.69043  0.24017  0.23467  Biso   1.000  O
  O268     1.0000 0.74103  0.22237  0.31227  Biso   1.000  O
  O269     1.0000 0.56573  0.73827  0.52557  Biso   1.000  O
  C157     1.0000 0.59073  0.83767  0.38017  Biso   1.000  C
  H79      1.0000 0.58593  0.86427  0.40277  Biso   1.000  H
  C158     1.0000 0.73763  0.17457  0.16417  Biso   1.000  C
  H80      1.0000 0.70103  0.15307  0.17877  Biso   1.000  H
  C159     1.0000 0.72613  0.09417  0.09557  Biso   1.000  C
  C160     1.0000 0.75963  0.15367  0.11757  Biso   1.000  C
  C161     1.0000 0.60093  0.84347  0.31247  Biso   1.000  C
  C162     1.0000 0.62603  0.90487  0.28627  Biso   1.000  C
  H81      1.0000 0.69803  0.94227  0.10507  Biso   1.000  H
  O270     1.0000 0.36883  0.38397  0.00957  Biso   1.000  O
  O271     1.0000 0.04960  0.76540  0.44670  Biso   1.000  O
  O272     1.0000 0.00130  0.58800  0.61670  Biso   1.000  O
  O273     1.0000 0.05790  0.71220  0.57770  Biso   1.000  O
  O274     1.0000 0.04955  0.65299  0.45780  Biso   1.000  O
  O275     1.0000 0.01800  0.78250  0.39010  Biso   1.000  O
  O276     1.0000 0.81140  0.35630  0.40380  Biso   1.000  O
  O277     1.0000 0.78360  0.42650  0.43200  Biso   1.000  O
  O278     1.0000 0.85200  0.44430  0.35440  Biso   1.000  O
  O279     1.0000 0.16080  0.92840  0.14110  Biso   1.000  O
  C163     1.0000 0.08640  0.82900  0.28650  Biso   1.000  C
  H82      1.0000 0.05500  0.80240  0.26390  Biso   1.000  H
  C164     1.0000 0.89640  0.49210  0.50250  Biso   1.000  C
  H83      1.0000 0.88130  0.51360  0.48790  Biso   1.000  H
  C165     1.0000 0.96530  0.57250  0.57110  Biso   1.000  C
  C166     1.0000 0.93930  0.51300  0.54910  Biso   1.000  C
  C167     1.0000 0.09080  0.82320  0.35420  Biso   1.000  C
  C168     1.0000 0.05450  0.76180  0.38040  Biso   1.000  C
  H84      1.0000 0.08910  0.72440  0.56160  Biso   1.000  H
  O280     1.0000 0.31820  0.28270  0.65710  Biso   1.000  O
  O281     1.0000 0.71627  0.09873  0.78003  Biso   1.000  O
  O282     1.0000 0.66797  0.92133  0.95003  Biso   1.000  O
  O283     1.0000 0.72457  0.04553  0.91103  Biso   1.000  O
  O284     1.0000 0.71622  0.98632  0.79113  Biso   1.000  O
  O285     1.0000 0.68467  0.11583  0.72343  Biso   1.000  O
  O286     1.0000 0.47807  0.68963  0.73713  Biso   1.000  O
  O287     1.0000 0.45027  0.75983  0.76533  Biso   1.000  O
  O288     1.0000 0.51867  0.77763  0.68773  Biso   1.000  O
  O289     1.0000 0.82747  0.26173  0.47443  Biso   1.000  O
  C169     1.0000 0.75307  0.16233  0.61983  Biso   1.000  C
  H85      1.0000 0.72167  0.13573  0.59723  Biso   1.000  H
  C170     1.0000 0.56307  0.82543  0.83583  Biso   1.000  C
  H86      1.0000 0.54797  0.84693  0.82123  Biso   1.000  H
  C171     1.0000 0.63197  0.90583  0.90443  Biso   1.000  C
  C172     1.0000 0.60597  0.84633  0.88243  Biso   1.000  C
  C173     1.0000 0.75747  0.15653  0.68753  Biso   1.000  C
  C174     1.0000 0.72117  0.09513  0.71373  Biso   1.000  C
  H87      1.0000 0.75577  0.05773  0.89493  Biso   1.000  H
  O290     1.0000 0.98487  0.61603  0.99043  Biso   1.000  O
  O291     1.0000 0.38293  0.43207  0.11337  Biso   1.000  O
  O292     1.0000 0.33463  0.25467  0.28337  Biso   1.000  O
  O293     1.0000 0.39123  0.37887  0.24437  Biso   1.000  O
  O294     1.0000 0.38288  0.31966  0.12447  Biso   1.000  O
  O295     1.0000 0.35133  0.44917  0.05677  Biso   1.000  O
  O296     1.0000 0.14473  0.02297  0.07047  Biso   1.000  O
  O297     1.0000 0.11693  0.09317  0.09867  Biso   1.000  O
  O298     1.0000 0.18533  0.11097  0.02107  Biso   1.000  O
  O299     1.0000 0.49413  0.59507  0.80777  Biso   1.000  O
  C175     1.0000 0.41973  0.49567  0.95317  Biso   1.000  C
  H88      1.0000 0.38833  0.46907  0.93057  Biso   1.000  H
  C176     1.0000 0.22973  0.15877  0.16917  Biso   1.000  C
  H89      1.0000 0.21463  0.18027  0.15457  Biso   1.000  H
  C177     1.0000 0.29863  0.23917  0.23777  Biso   1.000  C
  C178     1.0000 0.27263  0.17967  0.21577  Biso   1.000  C
  C179     1.0000 0.42413  0.48987  0.02087  Biso   1.000  C
  C180     1.0000 0.38783  0.42847  0.04707  Biso   1.000  C
  H90      1.0000 0.42243  0.39107  0.22827  Biso   1.000  H
  O300     1.0000 0.65153  0.94937  0.32377  Biso   1.000  O
  O301     1.0000 0.71580  0.95040  0.44670  Biso   1.000  O
  O302     1.0000 0.58670  0.99870  0.61670  Biso   1.000  O
  O303     1.0000 0.65430  0.94210  0.57770  Biso   1.000  O
  O304     1.0000 0.60344  0.95045  0.45780  Biso   1.000  O
  O305     1.0000 0.76450  0.98200  0.39010  Biso   1.000  O
  O306     1.0000 0.54490  0.18860  0.40380  Biso   1.000  O
  O307     1.0000 0.64290  0.21640  0.43200  Biso   1.000  O
  O308     1.0000 0.59230  0.14800  0.35440  Biso   1.000  O
  O309     1.0000 0.76760  0.83920  0.14110  Biso   1.000  O
  C181     1.0000 0.74260  0.91360  0.28650  Biso   1.000  C
  H91      1.0000 0.74740  0.94500  0.26390  Biso   1.000  H
  C182     1.0000 0.59570  0.10360  0.50250  Biso   1.000  C
  H92      1.0000 0.63230  0.11870  0.48790  Biso   1.000  H
  C183     1.0000 0.60720  0.03470  0.57110  Biso   1.000  C
  C184     1.0000 0.57370  0.06070  0.54910  Biso   1.000  C
  C185     1.0000 0.73240  0.90920  0.35420  Biso   1.000  C
  C186     1.0000 0.70730  0.94550  0.38040  Biso   1.000  C
  H93      1.0000 0.63530  0.91090  0.56160  Biso   1.000  H
  O310     1.0000 0.96450  0.68180  0.65710  Biso   1.000  O
  O311     1.0000 0.38247  0.28373  0.78003  Biso   1.000  O
  O312     1.0000 0.25337  0.33203  0.95003  Biso   1.000  O
  O313     1.0000 0.32097  0.27543  0.91103  Biso   1.000  O
  O314     1.0000 0.27011  0.28378  0.79113  Biso   1.000  O
  O315     1.0000 0.43117  0.31533  0.72343  Biso   1.000  O
  O316     1.0000 0.21157  0.52193  0.73713  Biso   1.000  O
  O317     1.0000 0.30957  0.54973  0.76533  Biso   1.000  O
  O318     1.0000 0.25897  0.48133  0.68773  Biso   1.000  O
  O319     1.0000 0.43427  0.17253  0.47443  Biso   1.000  O
  C187     1.0000 0.40927  0.24693  0.61983  Biso   1.000  C
  H94      1.0000 0.41407  0.27833  0.59723  Biso   1.000  H
  C188     1.0000 0.26237  0.43693  0.83583  Biso   1.000  C
  H95      1.0000 0.29897  0.45203  0.82123  Biso   1.000  H
  C189     1.0000 0.27387  0.36803  0.90443  Biso   1.000  C
  C190     1.0000 0.24037  0.39403  0.88243  Biso   1.000  C
  C191     1.0000 0.39907  0.24253  0.68753  Biso   1.000  C
  C192     1.0000 0.37397  0.27883  0.71373  Biso   1.000  C
  H96      1.0000 0.30197  0.24423  0.89493  Biso   1.000  H
  O320     1.0000 0.63117  0.01513  0.99043  Biso   1.000  O
  O321     1.0000 0.04913  0.61707  0.11337  Biso   1.000  O
  O322     1.0000 0.92003  0.66537  0.28337  Biso   1.000  O
  O323     1.0000 0.98763  0.60877  0.24437  Biso   1.000  O
  O324     1.0000 0.93677  0.61712  0.12447  Biso   1.000  O
  O325     1.0000 0.09783  0.64867  0.05677  Biso   1.000  O
  O326     1.0000 0.87823  0.85527  0.07047  Biso   1.000  O
  O327     1.0000 0.97623  0.88307  0.09867  Biso   1.000  O
  O328     1.0000 0.92563  0.81467  0.02107  Biso   1.000  O
  O329     1.0000 0.10093  0.50587  0.80777  Biso   1.000  O
  C193     1.0000 0.07593  0.58027  0.95317  Biso   1.000  C
  H97      1.0000 0.08073  0.61167  0.93057  Biso   1.000  H
  C194     1.0000 0.92903  0.77027  0.16917  Biso   1.000  C
  H98      1.0000 0.96563  0.78537  0.15457  Biso   1.000  H
  C195     1.0000 0.94053  0.70137  0.23777  Biso   1.000  C
  C196     1.0000 0.90703  0.72737  0.21577  Biso   1.000  C
  C197     1.0000 0.06573  0.57587  0.02087  Biso   1.000  C
  C198     1.0000 0.04063  0.61217  0.04707  Biso   1.000  C
  H99      1.0000 0.96863  0.57757  0.22827  Biso   1.000  H
  O330     1.0000 0.29783  0.34847  0.32377  Biso   1.000  O
  O331     1.0000 0.23460  0.28420  0.44670  Biso   1.000  O
  O332     1.0000 0.41200  0.41330  0.61670  Biso   1.000  O
  O333     1.0000 0.28780  0.34570  0.57770  Biso   1.000  O
  O334     1.0000 0.34701  0.39656  0.45780  Biso   1.000  O
  O335     1.0000 0.21750  0.23550  0.39010  Biso   1.000  O
  O336     1.0000 0.64370  0.45510  0.40380  Biso   1.000  O
  O337     1.0000 0.57350  0.35710  0.43200  Biso   1.000  O
  O338     1.0000 0.55570  0.40770  0.35440  Biso   1.000  O
  O339     1.0000 0.07160  0.23240  0.14110  Biso   1.000  O
  C199     1.0000 0.17100  0.25740  0.28650  Biso   1.000  C
  H100     1.0000 0.19760  0.25260  0.26390  Biso   1.000  H
  C200     1.0000 0.50790  0.40430  0.50250  Biso   1.000  C
  H101     1.0000 0.48640  0.36770  0.48790  Biso   1.000  H
  C201     1.0000 0.42750  0.39280  0.57110  Biso   1.000  C
  C202     1.0000 0.48700  0.42630  0.54910  Biso   1.000  C
  C203     1.0000 0.17680  0.26760  0.35420  Biso   1.000  C
  C204     1.0000 0.23820  0.29270  0.38040  Biso   1.000  C
  H102     1.0000 0.27560  0.36470  0.56160  Biso   1.000  H
  O340     1.0000 0.71730  0.03550  0.65710  Biso   1.000  O
  O341     1.0000 0.90127  0.61753  0.78003  Biso   1.000  O
  O342     1.0000 0.07867  0.74663  0.95003  Biso   1.000  O
  O343     1.0000 0.95447  0.67903  0.91103  Biso   1.000  O
  O344     1.0000 0.01368  0.72989  0.79113  Biso   1.000  O
  O345     1.0000 0.88417  0.56883  0.72343  Biso   1.000  O
  O346     1.0000 0.31037  0.78843  0.73713  Biso   1.000  O
  O347     1.0000 0.24017  0.69043  0.76533  Biso   1.000  O
  O348     1.0000 0.22237  0.74103  0.68773  Biso   1.000  O
  O349     1.0000 0.73827  0.56573  0.47443  Biso   1.000  O
  C205     1.0000 0.83767  0.59073  0.61983  Biso   1.000  C
  H103     1.0000 0.86427  0.58593  0.59723  Biso   1.000  H
  C206     1.0000 0.17457  0.73763  0.83583  Biso   1.000  C
  H104     1.0000 0.15307  0.70103  0.82123  Biso   1.000  H
  C207     1.0000 0.09417  0.72613  0.90443  Biso   1.000  C
  C208     1.0000 0.15367  0.75963  0.88243  Biso   1.000  C
  C209     1.0000 0.84347  0.60093  0.68753  Biso   1.000  C
  C210     1.0000 0.90487  0.62603  0.71373  Biso   1.000  C
  H105     1.0000 0.94227  0.69803  0.89493  Biso   1.000  H
  O350     1.0000 0.38397  0.36883  0.99043  Biso   1.000  O
  O351     1.0000 0.56793  0.95087  0.11337  Biso   1.000  O
  O352     1.0000 0.74533  0.07997  0.28337  Biso   1.000  O
  O353     1.0000 0.62113  0.01237  0.24437  Biso   1.000  O
  O354     1.0000 0.68034  0.06323  0.12447  Biso   1.000  O
  O355     1.0000 0.55083  0.90217  0.05677  Biso   1.000  O
  O356     1.0000 0.97703  0.12177  0.07047  Biso   1.000  O
  O357     1.0000 0.90683  0.02377  0.09867  Biso   1.000  O
  O358     1.0000 0.88903  0.07437  0.02107  Biso   1.000  O
  O359     1.0000 0.40493  0.89907  0.80777  Biso   1.000  O
  C211     1.0000 0.50433  0.92407  0.95317  Biso   1.000  C
  H106     1.0000 0.53093  0.91927  0.93057  Biso   1.000  H
  C212     1.0000 0.84123  0.07097  0.16917  Biso   1.000  C
  H107     1.0000 0.81973  0.03437  0.15457  Biso   1.000  H
  C213     1.0000 0.76083  0.05947  0.23777  Biso   1.000  C
  C214     1.0000 0.82033  0.09297  0.21577  Biso   1.000  C
  C215     1.0000 0.51013  0.93427  0.02087  Biso   1.000  C
  C216     1.0000 0.57153  0.95937  0.04707  Biso   1.000  C
  H108     1.0000 0.60893  0.03137  0.22827  Biso   1.000  H
  O360     1.0000 0.05063  0.70217  0.32377  Biso   1.000  O
  In1      1.0000 0.31108  0.00000  0.50000  Biso   1.000  In
  In2      1.0000 0.97775  0.33333  0.83333  Biso   1.000  In
  In3      1.0000 0.64441  0.66667  0.16667  Biso   1.000  In
  In4      1.0000 0.00000  0.31108  0.50000  Biso   1.000  In
  In5      1.0000 0.66667  0.64441  0.83333  Biso   1.000  In
  In6      1.0000 0.33333  0.97775  0.16667  Biso   1.000  In
  In7      1.0000 0.68892  0.68892  0.50000  Biso   1.000  In
  In8      1.0000 0.35559  0.02225  0.83333  Biso   1.000  In
  In9      1.0000 0.02225  0.35559  0.16667  Biso   1.000  In
  In10     1.0000 0.68892  0.00000  0.50000  Biso   1.000  In
  In11     1.0000 0.35559  0.33333  0.83333  Biso   1.000  In
  In12     1.0000 0.02225  0.66667  0.16667  Biso   1.000  In
  In13     1.0000 0.00000  0.68892  0.50000  Biso   1.000  In
  In14     1.0000 0.66667  0.02225  0.83333  Biso   1.000  In
  In15     1.0000 0.33333  0.35559  0.16667  Biso   1.000  In
  In16     1.0000 0.31108  0.31108  0.50000  Biso   1.000  In
  In17     1.0000 0.97775  0.64441  0.83333  Biso   1.000  In
  In18     1.0000 0.64441  0.97775  0.16667  Biso   1.000  In
  In19     1.0000 0.33333  0.96430  0.66667  Biso   1.000  In
  In20     1.0000 0.00000  0.29763  0.00000  Biso   1.000  In
  In21     1.0000 0.03570  0.36904  0.66667  Biso   1.000  In
  In22     1.0000 0.70237  0.70237  0.00000  Biso   1.000  In
  In23     1.0000 0.63096  0.66667  0.66667  Biso   1.000  In
  In24     1.0000 0.29763  0.00000  0.00000  Biso   1.000  In
  In25     1.0000 0.96430  0.33333  0.33333  Biso   1.000  In
  In26     1.0000 0.36904  0.03570  0.33333  Biso   1.000  In
  In27     1.0000 0.66667  0.63096  0.33333  Biso   1.000  In
  In28     1.0000 0.66667  0.03570  0.33333  Biso   1.000  In
  In29     1.0000 0.96430  0.63096  0.33333  Biso   1.000  In
  In30     1.0000 0.36904  0.33333  0.33333  Biso   1.000  In
  In31     1.0000 0.03570  0.66667  0.66667  Biso   1.000  In
  In32     1.0000 0.70237  0.00000  0.00000  Biso   1.000  In
  In33     1.0000 0.63096  0.96430  0.66667  Biso   1.000  In
  In34     1.0000 0.29763  0.29763  0.00000  Biso   1.000  In
  In35     1.0000 0.33333  0.36904  0.66667  Biso   1.000  In
  In36     1.0000 0.00000  0.70237  0.00000  Biso   1.000  In
  S1       1.0000 0.12528  0.87472  0.16224  Biso   1.000  S
  O361     1.0000 0.15530  0.84470  0.13770  Biso   1.000  O
  C217     1.0000 0.12715  0.87285  0.25200  Biso   1.000  C
  C218     1.0000 0.13545  0.86455  0.38760  Biso   1.000  C
  H109     1.0000 0.13775  0.86225  0.43370  Biso   1.000  H
  S2       1.0000 0.60310  0.39690  0.45170  Biso   1.000  S
  S3       1.0000 0.79195  0.20805  0.49557  Biso   1.000  S
  O362     1.0000 0.82197  0.17803  0.47103  Biso   1.000  O
  C219     1.0000 0.79382  0.20618  0.58533  Biso   1.000  C
  C220     1.0000 0.80212  0.19788  0.72093  Biso   1.000  C
  H110     1.0000 0.80442  0.19558  0.76703  Biso   1.000  H
  S4       1.0000 0.26977  0.73023  0.78503  Biso   1.000  S
  S5       1.0000 0.45861  0.54139  0.82891  Biso   1.000  S
  O363     1.0000 0.48863  0.51137  0.80437  Biso   1.000  O
  C221     1.0000 0.46048  0.53952  0.91867  Biso   1.000  C
  C222     1.0000 0.46878  0.53122  0.05427  Biso   1.000  C
  H111     1.0000 0.47108  0.52892  0.10037  Biso   1.000  H
  S6       1.0000 0.93643  0.06357  0.11837  Biso   1.000  S
  S7       1.0000 0.12528  0.25056  0.16224  Biso   1.000  S
  O364     1.0000 0.15530  0.31060  0.13770  Biso   1.000  O
  C223     1.0000 0.12715  0.25430  0.25200  Biso   1.000  C
  C224     1.0000 0.13545  0.27090  0.38760  Biso   1.000  C
  H112     1.0000 0.13775  0.27550  0.43370  Biso   1.000  H
  S8       1.0000 0.60310  0.20620  0.45170  Biso   1.000  S
  S9       1.0000 0.79195  0.58389  0.49557  Biso   1.000  S
  O365     1.0000 0.82197  0.64393  0.47103  Biso   1.000  O
  C225     1.0000 0.79382  0.58763  0.58533  Biso   1.000  C
  C226     1.0000 0.80212  0.60423  0.72093  Biso   1.000  C
  H113     1.0000 0.80442  0.60883  0.76703  Biso   1.000  H
  S10      1.0000 0.26977  0.53953  0.78503  Biso   1.000  S
  S11      1.0000 0.45861  0.91723  0.82891  Biso   1.000  S
  O366     1.0000 0.48863  0.97727  0.80437  Biso   1.000  O
  C227     1.0000 0.46048  0.92097  0.91867  Biso   1.000  C
  C228     1.0000 0.46878  0.93757  0.05427  Biso   1.000  C
  H114     1.0000 0.47108  0.94217  0.10037  Biso   1.000  H
  S12      1.0000 0.93643  0.87287  0.11837  Biso   1.000  S
  S13      1.0000 0.74944  0.87472  0.16224  Biso   1.000  S
  O367     1.0000 0.68940  0.84470  0.13770  Biso   1.000  O
  C229     1.0000 0.74570  0.87285  0.25200  Biso   1.000  C
  C230     1.0000 0.72910  0.86455  0.38760  Biso   1.000  C
  H115     1.0000 0.72450  0.86225  0.43370  Biso   1.000  H
  S14      1.0000 0.79380  0.39690  0.45170  Biso   1.000  S
  S15      1.0000 0.41611  0.20805  0.49557  Biso   1.000  S
  O368     1.0000 0.35607  0.17803  0.47103  Biso   1.000  O
  C231     1.0000 0.41237  0.20618  0.58533  Biso   1.000  C
  C232     1.0000 0.39577  0.19788  0.72093  Biso   1.000  C
  H116     1.0000 0.39117  0.19558  0.76703  Biso   1.000  H
  S16      1.0000 0.46047  0.73023  0.78503  Biso   1.000  S
  S17      1.0000 0.08277  0.54139  0.82891  Biso   1.000  S
  O369     1.0000 0.02273  0.51137  0.80437  Biso   1.000  O
  C233     1.0000 0.07903  0.53952  0.91867  Biso   1.000  C
  C234     1.0000 0.06243  0.53122  0.05427  Biso   1.000  C
  H117     1.0000 0.05783  0.52892  0.10037  Biso   1.000  H
  S18      1.0000 0.12713  0.06357  0.11837  Biso   1.000  S
  S19      1.0000 0.87472  0.12528  0.83776  Biso   1.000  S
  O370     1.0000 0.84470  0.15530  0.86230  Biso   1.000  O
  C235     1.0000 0.87285  0.12715  0.74800  Biso   1.000  C
  C236     1.0000 0.86455  0.13545  0.61240  Biso   1.000  C
  H118     1.0000 0.86225  0.13775  0.56630  Biso   1.000  H
  S20      1.0000 0.39690  0.60310  0.54830  Biso   1.000  S
  S21      1.0000 0.54139  0.45861  0.17109  Biso   1.000  S
  O371     1.0000 0.51137  0.48863  0.19563  Biso   1.000  O
  C237     1.0000 0.53952  0.46048  0.08133  Biso   1.000  C
  C238     1.0000 0.53122  0.46878  0.94573  Biso   1.000  C
  H119     1.0000 0.52892  0.47108  0.89963  Biso   1.000  H
  S22      1.0000 0.06357  0.93643  0.88163  Biso   1.000  S
  S23      1.0000 0.20805  0.79195  0.50443  Biso   1.000  S
  O372     1.0000 0.17803  0.82197  0.52897  Biso   1.000  O
  C239     1.0000 0.20618  0.79382  0.41467  Biso   1.000  C
  C240     1.0000 0.19788  0.80212  0.27907  Biso   1.000  C
  H120     1.0000 0.19558  0.80442  0.23297  Biso   1.000  H
  S24      1.0000 0.73023  0.26977  0.21497  Biso   1.000  S
  S25      1.0000 0.25056  0.12528  0.83776  Biso   1.000  S
  O373     1.0000 0.31060  0.15530  0.86230  Biso   1.000  O
  C241     1.0000 0.25430  0.12715  0.74800  Biso   1.000  C
  C242     1.0000 0.27090  0.13545  0.61240  Biso   1.000  C
  H121     1.0000 0.27550  0.13775  0.56630  Biso   1.000  H
  S26      1.0000 0.20620  0.60310  0.54830  Biso   1.000  S
  S27      1.0000 0.91723  0.45861  0.17109  Biso   1.000  S
  O374     1.0000 0.97727  0.48863  0.19563  Biso   1.000  O
  C243     1.0000 0.92097  0.46048  0.08133  Biso   1.000  C
  C244     1.0000 0.93757  0.46878  0.94573  Biso   1.000  C
  H122     1.0000 0.94217  0.47108  0.89963  Biso   1.000  H
  S28      1.0000 0.87287  0.93643  0.88163  Biso   1.000  S
  S29      1.0000 0.58389  0.79195  0.50443  Biso   1.000  S
  O375     1.0000 0.64393  0.82197  0.52897  Biso   1.000  O
  C245     1.0000 0.58763  0.79382  0.41467  Biso   1.000  C
  C246     1.0000 0.60423  0.80212  0.27907  Biso   1.000  C
  H123     1.0000 0.60883  0.80442  0.23297  Biso   1.000  H
  S30      1.0000 0.53953  0.26977  0.21497  Biso   1.000  S
  S31      1.0000 0.87472  0.74944  0.83776  Biso   1.000  S
  O376     1.0000 0.84470  0.68940  0.86230  Biso   1.000  O
  C247     1.0000 0.87285  0.74570  0.74800  Biso   1.000  C
  C248     1.0000 0.86455  0.72910  0.61240  Biso   1.000  C
  H124     1.0000 0.86225  0.72450  0.56630  Biso   1.000  H
  S32      1.0000 0.39690  0.79380  0.54830  Biso   1.000  S
  S33      1.0000 0.54139  0.08277  0.17109  Biso   1.000  S
  O377     1.0000 0.51137  0.02273  0.19563  Biso   1.000  O
  C249     1.0000 0.53952  0.07903  0.08133  Biso   1.000  C
  C250     1.0000 0.53122  0.06243  0.94573  Biso   1.000  C
  H125     1.0000 0.52892  0.05783  0.89963  Biso   1.000  H
  S34      1.0000 0.06357  0.12713  0.88163  Biso   1.000  S
  S35      1.0000 0.20805  0.41611  0.50443  Biso   1.000  S
  O378     1.0000 0.17803  0.35607  0.52897  Biso   1.000  O
  C251     1.0000 0.20618  0.41237  0.41467  Biso   1.000  C
  C252     1.0000 0.19788  0.39577  0.27907  Biso   1.000  C
  H126     1.0000 0.19558  0.39117  0.23297  Biso   1.000  H
  S36      1.0000 0.73023  0.46047  0.21497  Biso   1.000  S
  S37      1.0000 0.58633  0.17266  0.41313  Biso   1.000  S
  C253     1.0000 0.51979  0.03958  0.57240  Biso   1.000  C
  H127     1.0000 0.50550  0.01100  0.60380  Biso   1.000  H
  C254     1.0000 0.56160  0.12320  0.47820  Biso   1.000  C
  S38      1.0000 0.25300  0.50599  0.74646  Biso   1.000  S
  C255     1.0000 0.18646  0.37291  0.90573  Biso   1.000  C
  H128     1.0000 0.17217  0.34433  0.93713  Biso   1.000  H
  C256     1.0000 0.22827  0.45653  0.81153  Biso   1.000  C
  S39      1.0000 0.91966  0.83933  0.07980  Biso   1.000  S
  C257     1.0000 0.85312  0.70625  0.23907  Biso   1.000  C
  H129     1.0000 0.83883  0.67767  0.27047  Biso   1.000  H
  C258     1.0000 0.89493  0.78987  0.14487  Biso   1.000  C
  S40      1.0000 0.82734  0.41367  0.41313  Biso   1.000  S
  C259     1.0000 0.96042  0.48021  0.57240  Biso   1.000  C
  H130     1.0000 0.98900  0.49450  0.60380  Biso   1.000  H
  C260     1.0000 0.87680  0.43840  0.47820  Biso   1.000  C
  S41      1.0000 0.49401  0.74700  0.74646  Biso   1.000  S
  C261     1.0000 0.62709  0.81354  0.90573  Biso   1.000  C
  H131     1.0000 0.65567  0.82783  0.93713  Biso   1.000  H
  C262     1.0000 0.54347  0.77173  0.81153  Biso   1.000  C
  S42      1.0000 0.16067  0.08034  0.07980  Biso   1.000  S
  C263     1.0000 0.29375  0.14688  0.23907  Biso   1.000  C
  H132     1.0000 0.32233  0.16117  0.27047  Biso   1.000  H
  C264     1.0000 0.21013  0.10507  0.14487  Biso   1.000  C
  S43      1.0000 0.58633  0.41367  0.41313  Biso   1.000  S
  C265     1.0000 0.51979  0.48021  0.57240  Biso   1.000  C
  H133     1.0000 0.50550  0.49450  0.60380  Biso   1.000  H
  C266     1.0000 0.56160  0.43840  0.47820  Biso   1.000  C
  S44      1.0000 0.25300  0.74700  0.74646  Biso   1.000  S
  C267     1.0000 0.18646  0.81354  0.90573  Biso   1.000  C
  H134     1.0000 0.17217  0.82783  0.93713  Biso   1.000  H
  C268     1.0000 0.22827  0.77173  0.81153  Biso   1.000  C
  S45      1.0000 0.91966  0.08034  0.07980  Biso   1.000  S
  C269     1.0000 0.85312  0.14688  0.23907  Biso   1.000  C
  H135     1.0000 0.83883  0.16117  0.27047  Biso   1.000  H
  C270     1.0000 0.89493  0.10507  0.14487  Biso   1.000  C
  S46      1.0000 0.17266  0.58633  0.58687  Biso   1.000  S
  C271     1.0000 0.03958  0.51979  0.42760  Biso   1.000  C
  H136     1.0000 0.01100  0.50550  0.39620  Biso   1.000  H
  C272     1.0000 0.12320  0.56160  0.52180  Biso   1.000  C
  S47      1.0000 0.83933  0.91966  0.92020  Biso   1.000  S
  C273     1.0000 0.70625  0.85312  0.76093  Biso   1.000  C
  H137     1.0000 0.67767  0.83883  0.72953  Biso   1.000  H
  C274     1.0000 0.78987  0.89493  0.85513  Biso   1.000  C
  S48      1.0000 0.50599  0.25300  0.25354  Biso   1.000  S
  C275     1.0000 0.37291  0.18646  0.09427  Biso   1.000  C
  H138     1.0000 0.34433  0.17217  0.06287  Biso   1.000  H
  C276     1.0000 0.45653  0.22827  0.18847  Biso   1.000  C
  S49      1.0000 0.41367  0.82734  0.58687  Biso   1.000  S
  C277     1.0000 0.48021  0.96042  0.42760  Biso   1.000  C
  H139     1.0000 0.49450  0.98900  0.39620  Biso   1.000  H
  C278     1.0000 0.43840  0.87680  0.52180  Biso   1.000  C
  S50      1.0000 0.08034  0.16067  0.92020  Biso   1.000  S
  C279     1.0000 0.14688  0.29375  0.76093  Biso   1.000  C
  H140     1.0000 0.16117  0.32233  0.72953  Biso   1.000  H
  C280     1.0000 0.10507  0.21013  0.85513  Biso   1.000  C
  S51      1.0000 0.74700  0.49401  0.25354  Biso   1.000  S
  C281     1.0000 0.81354  0.62709  0.09427  Biso   1.000  C
  H141     1.0000 0.82783  0.65567  0.06287  Biso   1.000  H
  C282     1.0000 0.77173  0.54347  0.18847  Biso   1.000  C
  S52      1.0000 0.41367  0.58633  0.58687  Biso   1.000  S
  C283     1.0000 0.48021  0.51979  0.42760  Biso   1.000  C
  H142     1.0000 0.49450  0.50550  0.39620  Biso   1.000  H
  C284     1.0000 0.43840  0.56160  0.52180  Biso   1.000  C
  S53      1.0000 0.08034  0.91966  0.92020  Biso   1.000  S
  C285     1.0000 0.14688  0.85312  0.76093  Biso   1.000  C
  H143     1.0000 0.16117  0.83883  0.72953  Biso   1.000  H
  C286     1.0000 0.10507  0.89493  0.85513  Biso   1.000  C
  S54      1.0000 0.74700  0.25300  0.25354  Biso   1.000  S
  C287     1.0000 0.81354  0.18646  0.09427  Biso   1.000  C
  H144     1.0000 0.82783  0.17217  0.06287  Biso   1.000  H
  C288     1.0000 0.77173  0.22827  0.18847  Biso   1.000  C
