data_image0
_cell_length_a       10.0245
_cell_length_b       10.8912
_cell_length_c       20.7145
_cell_angle_alpha    90
_cell_angle_beta     90
_cell_angle_gamma    90

_symmetry_space_group_name_H-M    "P 1"
_symmetry_int_tables_number       1

loop_
  _symmetry_equiv_pos_as_xyz
  'x, y, z'

loop_
  _atom_site_label
  _atom_site_occupancy
  _atom_site_fract_x
  _atom_site_fract_y
  _atom_site_fract_z
  _atom_site_thermal_displace_type
  _atom_site_B_iso_or_equiv
  _atom_site_type_symbol
  N1       1.0000 0.12100  0.96870  0.26420  Biso   1.000  N
  H1       1.0000 0.11670  0.05510  0.25280  Biso   1.000  H
  O1       1.0000 0.31960  0.88800  0.18910  Biso   1.000  O
  C1       1.0000 0.34760  0.90870  0.24720  Biso   1.000  C
  O2       1.0000 0.46580  0.90130  0.26730  Biso   1.000  O
  C2       1.0000 0.24340  0.93320  0.29670  Biso   1.000  C
  H2       1.0000 0.22530  0.85380  0.31940  Biso   1.000  H
  C3       1.0000 0.29260  0.02440  0.34750  Biso   1.000  C
  H3       1.0000 0.22480  0.03210  0.38210  Biso   1.000  H
  H4       1.0000 0.37590  0.99310  0.36720  Biso   1.000  H
  O3       1.0000 0.31780  0.16880  0.26040  Biso   1.000  O
  C4       1.0000 0.31830  0.14880  0.31840  Biso   1.000  C
  O4       1.0000 0.36030  0.23270  0.35700  Biso   1.000  O
  O5       1.0000 0.90850  0.90820  0.19000  Biso   1.000  O
  C5       1.0000 0.87940  0.92360  0.24900  Biso   1.000  C
  O6       1.0000 0.75740  0.92560  0.26990  Biso   1.000  O
  C6       1.0000 0.98710  0.93830  0.29860  Biso   1.000  C
  H5       1.0000 0.99870  0.85660  0.31980  Biso   1.000  H
  C7       1.0000 0.95280  0.03010  0.35180  Biso   1.000  C
  H6       1.0000 0.87500  0.99940  0.37650  Biso   1.000  H
  H7       1.0000 0.02910  0.03660  0.38200  Biso   1.000  H
  O7       1.0000 0.93530  0.18010  0.26770  Biso   1.000  O
  C8       1.0000 0.92080  0.15610  0.32530  Biso   1.000  C
  O8       1.0000 0.89480  0.24020  0.36590  Biso   1.000  O
  Zn1      1.0000 0.11579  0.89327  0.17239  Biso   1.000  Zn
  N2       1.0000 0.11680  0.03190  0.10490  Biso   1.000  N
  C9       1.0000 0.03970  0.02440  0.05270  Biso   1.000  C
  H8       1.0000 0.99350  0.94960  0.04510  Biso   1.000  H
  C10      1.0000 0.02280  0.11990  0.00840  Biso   1.000  C
  H9       1.0000 0.95240  0.11910  0.97770  Biso   1.000  H
  C11      1.0000 0.11230  0.21460  0.01140  Biso   1.000  C
  C12      1.0000 0.19690  0.22100  0.06240  Biso   1.000  C
  H10      1.0000 0.25410  0.29010  0.06690  Biso   1.000  H
  C13      1.0000 0.20090  0.12760  0.10820  Biso   1.000  C
  H11      1.0000 0.26410  0.13170  0.14230  Biso   1.000  H
  N3       1.0000 0.11780  0.48940  0.86080  Biso   1.000  N
  C14      1.0000 0.16880  0.51010  0.91990  Biso   1.000  C
  H12      1.0000 0.20470  0.58910  0.92870  Biso   1.000  H
  C15      1.0000 0.17210  0.42250  0.96890  Biso   1.000  C
  H13      1.0000 0.21330  0.43960  0.00920  Biso   1.000  H
  C16      1.0000 0.11410  0.31090  0.95710  Biso   1.000  C
  C17      1.0000 0.06400  0.28710  0.89800  Biso   1.000  C
  H14      1.0000 0.03010  0.20770  0.88850  Biso   1.000  H
  C18      1.0000 0.06140  0.37740  0.85090  Biso   1.000  C
  H15      1.0000 0.01920  0.36070  0.81080  Biso   1.000  H
  Zn2      1.0000 0.62237  0.87934  0.20751  Biso   1.000  Zn
  C19      1.0000 0.52900  0.12400  0.01510  Biso   1.000  C
  C20      1.0000 0.62800  0.21120  0.01490  Biso   1.000  C
  C21      1.0000 0.71800  0.21700  0.06310  Biso   1.000  C
  C22      1.0000 0.70570  0.13550  0.11400  Biso   1.000  C
  C23      1.0000 0.67750  0.50610  0.92100  Biso   1.000  C
  C24      1.0000 0.68230  0.42190  0.97100  Biso   1.000  C
  C25      1.0000 0.62260  0.31040  0.96080  Biso   1.000  C
  C26      1.0000 0.56860  0.28650  0.90170  Biso   1.000  C
  C27      1.0000 0.56820  0.37690  0.85450  Biso   1.000  C
  C28      1.0000 0.86570  0.91800  0.25160  Biso   1.000  C
  C29      1.0000 0.75710  0.93630  0.30030  Biso   1.000  C
  C30      1.0000 0.50190  0.93920  0.29730  Biso   1.000  C
  C31      1.0000 0.39620  0.92100  0.24660  Biso   1.000  C
  C32      1.0000 0.79500  0.02360  0.35520  Biso   1.000  C
  C33      1.0000 0.80600  0.15200  0.32810  Biso   1.000  C
  C34      1.0000 0.45600  0.03670  0.34670  Biso   1.000  C
  C35      1.0000 0.42050  0.15670  0.31380  Biso   1.000  C
  C36      1.0000 0.53900  0.02800  0.05940  Biso   1.000  C
  H16      1.0000 0.47940  0.10120  0.98250  Biso   1.000  H
  H17      1.0000 0.77140  0.28780  0.06780  Biso   1.000  H
  H18      1.0000 0.75790  0.14730  0.15180  Biso   1.000  H
  H19      1.0000 0.71240  0.58560  0.92960  Biso   1.000  H
  H20      1.0000 0.72520  0.44070  0.01070  Biso   1.000  H
  H21      1.0000 0.53130  0.20810  0.89290  Biso   1.000  H
  H22      1.0000 0.52320  0.36060  0.81510  Biso   1.000  H
  H23      1.0000 0.63340  0.05530  0.25240  Biso   1.000  H
  H24      1.0000 0.73970  0.85430  0.32040  Biso   1.000  H
  H25      1.0000 0.51250  0.85970  0.32100  Biso   1.000  H
  H26      1.0000 0.72680  0.02110  0.38950  Biso   1.000  H
  H27      1.0000 0.88190  0.99820  0.37420  Biso   1.000  H
  H28      1.0000 0.37790  0.00560  0.37070  Biso   1.000  H
  H29      1.0000 0.52900  0.05140  0.37820  Biso   1.000  H
  H30      1.0000 0.51270  0.95660  0.05650  Biso   1.000  H
  N4       1.0000 0.63800  0.96980  0.26540  Biso   1.000  N
  N5       1.0000 0.63000  0.03230  0.10740  Biso   1.000  N
  N6       1.0000 0.62880  0.48700  0.86170  Biso   1.000  N
  O9       1.0000 0.83990  0.89300  0.19350  Biso   1.000  O
  O10      1.0000 0.98220  0.91300  0.27560  Biso   1.000  O
  O11      1.0000 0.43060  0.89980  0.18910  Biso   1.000  O
  O12      1.0000 0.27560  0.91600  0.26780  Biso   1.000  O
  O13      1.0000 0.81890  0.17540  0.27000  Biso   1.000  O
  O14      1.0000 0.83670  0.23060  0.37130  Biso   1.000  O
  O15      1.0000 0.46400  0.17600  0.25860  Biso   1.000  O
  O16      1.0000 0.37800  0.24200  0.34980  Biso   1.000  O
  Zn3      1.0000 0.64070  0.89270  0.17263  Biso   1.000  Zn
  Zn4      1.0000 0.13330  0.88100  0.20929  Biso   1.000  Zn
  N7       1.0000 0.37900  0.03130  0.76420  Biso   1.000  N
  H31      1.0000 0.38330  0.94490  0.75280  Biso   1.000  H
  O17      1.0000 0.18040  0.11200  0.68910  Biso   1.000  O
  C37      1.0000 0.15240  0.09130  0.74720  Biso   1.000  C
  O18      1.0000 0.03420  0.09870  0.76730  Biso   1.000  O
  C38      1.0000 0.25660  0.06680  0.79670  Biso   1.000  C
  H32      1.0000 0.27470  0.14620  0.81940  Biso   1.000  H
  C39      1.0000 0.20740  0.97560  0.84750  Biso   1.000  C
  H33      1.0000 0.27520  0.96790  0.88210  Biso   1.000  H
  H34      1.0000 0.12410  0.00690  0.86720  Biso   1.000  H
  O19      1.0000 0.18220  0.83120  0.76040  Biso   1.000  O
  C40      1.0000 0.18170  0.85120  0.81840  Biso   1.000  C
  O20      1.0000 0.13970  0.76730  0.85700  Biso   1.000  O
  O21      1.0000 0.59150  0.09180  0.69000  Biso   1.000  O
  C41      1.0000 0.62060  0.07640  0.74900  Biso   1.000  C
  O22      1.0000 0.74260  0.07440  0.76990  Biso   1.000  O
  C42      1.0000 0.51290  0.06170  0.79860  Biso   1.000  C
  H35      1.0000 0.50130  0.14340  0.81980  Biso   1.000  H
  C43      1.0000 0.54720  0.96990  0.85180  Biso   1.000  C
  H36      1.0000 0.62500  0.00060  0.87650  Biso   1.000  H
  H37      1.0000 0.47090  0.96340  0.88200  Biso   1.000  H
  O23      1.0000 0.56470  0.81990  0.76770  Biso   1.000  O
  C44      1.0000 0.57920  0.84390  0.82530  Biso   1.000  C
  O24      1.0000 0.60520  0.75980  0.86590  Biso   1.000  O
  Zn5      1.0000 0.38421  0.10673  0.67239  Biso   1.000  Zn
  N8       1.0000 0.38320  0.96810  0.60490  Biso   1.000  N
  C45      1.0000 0.46030  0.97560  0.55270  Biso   1.000  C
  H38      1.0000 0.50650  0.05040  0.54510  Biso   1.000  H
  C46      1.0000 0.47720  0.88010  0.50840  Biso   1.000  C
  H39      1.0000 0.54760  0.88090  0.47770  Biso   1.000  H
  C47      1.0000 0.38770  0.78540  0.51140  Biso   1.000  C
  C48      1.0000 0.30310  0.77900  0.56240  Biso   1.000  C
  H40      1.0000 0.24590  0.70990  0.56690  Biso   1.000  H
  C49      1.0000 0.29910  0.87240  0.60820  Biso   1.000  C
  H41      1.0000 0.23590  0.86830  0.64230  Biso   1.000  H
  N9       1.0000 0.38220  0.51060  0.36080  Biso   1.000  N
  C50      1.0000 0.33120  0.48990  0.41990  Biso   1.000  C
  H42      1.0000 0.29530  0.41090  0.42870  Biso   1.000  H
  C51      1.0000 0.32790  0.57750  0.46890  Biso   1.000  C
  H43      1.0000 0.28670  0.56040  0.50920  Biso   1.000  H
  C52      1.0000 0.38590  0.68910  0.45710  Biso   1.000  C
  C53      1.0000 0.43600  0.71290  0.39800  Biso   1.000  C
  H44      1.0000 0.46990  0.79230  0.38850  Biso   1.000  H
  C54      1.0000 0.43860  0.62260  0.35090  Biso   1.000  C
  H45      1.0000 0.48080  0.63930  0.31080  Biso   1.000  H
  Zn6      1.0000 0.87763  0.12066  0.70751  Biso   1.000  Zn
  C55      1.0000 0.97100  0.87600  0.51510  Biso   1.000  C
  C56      1.0000 0.87200  0.78880  0.51490  Biso   1.000  C
  C57      1.0000 0.78200  0.78300  0.56310  Biso   1.000  C
  C58      1.0000 0.79430  0.86450  0.61400  Biso   1.000  C
  C59      1.0000 0.82250  0.49390  0.42100  Biso   1.000  C
  C60      1.0000 0.81770  0.57810  0.47100  Biso   1.000  C
  C61      1.0000 0.87740  0.68960  0.46080  Biso   1.000  C
  C62      1.0000 0.93140  0.71350  0.40170  Biso   1.000  C
  C63      1.0000 0.93180  0.62310  0.35450  Biso   1.000  C
  C64      1.0000 0.63430  0.08200  0.75160  Biso   1.000  C
  C65      1.0000 0.74290  0.06370  0.80030  Biso   1.000  C
  C66      1.0000 0.99810  0.06080  0.79730  Biso   1.000  C
  C67      1.0000 0.10380  0.07900  0.74660  Biso   1.000  C
  C68      1.0000 0.70500  0.97640  0.85520  Biso   1.000  C
  C69      1.0000 0.69400  0.84800  0.82810  Biso   1.000  C
  C70      1.0000 0.04400  0.96330  0.84670  Biso   1.000  C
  C71      1.0000 0.07950  0.84330  0.81380  Biso   1.000  C
  C72      1.0000 0.96100  0.97200  0.55940  Biso   1.000  C
  H46      1.0000 0.02060  0.89880  0.48250  Biso   1.000  H
  H47      1.0000 0.72860  0.71220  0.56780  Biso   1.000  H
  H48      1.0000 0.74210  0.85270  0.65180  Biso   1.000  H
  H49      1.0000 0.78760  0.41440  0.42960  Biso   1.000  H
  H50      1.0000 0.77480  0.55930  0.51070  Biso   1.000  H
  H51      1.0000 0.96870  0.79190  0.39290  Biso   1.000  H
  H52      1.0000 0.97680  0.63940  0.31510  Biso   1.000  H
  H53      1.0000 0.86660  0.94470  0.75240  Biso   1.000  H
  H54      1.0000 0.76030  0.14570  0.82040  Biso   1.000  H
  H55      1.0000 0.98750  0.14030  0.82100  Biso   1.000  H
  H56      1.0000 0.77320  0.97890  0.88950  Biso   1.000  H
  H57      1.0000 0.61810  0.00180  0.87420  Biso   1.000  H
  H58      1.0000 0.12210  0.99440  0.87070  Biso   1.000  H
  H59      1.0000 0.97100  0.94860  0.87820  Biso   1.000  H
  H60      1.0000 0.98730  0.04340  0.55650  Biso   1.000  H
  N10      1.0000 0.86200  0.03020  0.76540  Biso   1.000  N
  N11      1.0000 0.87000  0.96770  0.60740  Biso   1.000  N
  N12      1.0000 0.87120  0.51300  0.36170  Biso   1.000  N
  O25      1.0000 0.66010  0.10700  0.69350  Biso   1.000  O
  O26      1.0000 0.51780  0.08700  0.77560  Biso   1.000  O
  O27      1.0000 0.06940  0.10020  0.68910  Biso   1.000  O
  O28      1.0000 0.22440  0.08400  0.76780  Biso   1.000  O
  O29      1.0000 0.68110  0.82460  0.77000  Biso   1.000  O
  O30      1.0000 0.66330  0.76940  0.87130  Biso   1.000  O
  O31      1.0000 0.03600  0.82400  0.75860  Biso   1.000  O
  O32      1.0000 0.12200  0.75800  0.84980  Biso   1.000  O
  Zn7      1.0000 0.85930  0.10730  0.67263  Biso   1.000  Zn
  Zn8      1.0000 0.36670  0.11900  0.70929  Biso   1.000  Zn
  N13      1.0000 0.87900  0.46870  0.23580  Biso   1.000  N
  H61      1.0000 0.88330  0.55510  0.24720  Biso   1.000  H
  O33      1.0000 0.68040  0.38800  0.31090  Biso   1.000  O
  C73      1.0000 0.65240  0.40870  0.25280  Biso   1.000  C
  O34      1.0000 0.53420  0.40130  0.23270  Biso   1.000  O
  C74      1.0000 0.75660  0.43320  0.20330  Biso   1.000  C
  H62      1.0000 0.77470  0.35380  0.18060  Biso   1.000  H
  C75      1.0000 0.70740  0.52440  0.15250  Biso   1.000  C
  H63      1.0000 0.77520  0.53210  0.11790  Biso   1.000  H
  H64      1.0000 0.62410  0.49310  0.13280  Biso   1.000  H
  O35      1.0000 0.68220  0.66880  0.23960  Biso   1.000  O
  C76      1.0000 0.68170  0.64880  0.18160  Biso   1.000  C
  O36      1.0000 0.63970  0.73270  0.14300  Biso   1.000  O
  O37      1.0000 0.09150  0.40820  0.31000  Biso   1.000  O
  C77      1.0000 0.12060  0.42360  0.25100  Biso   1.000  C
  O38      1.0000 0.24260  0.42560  0.23010  Biso   1.000  O
  C78      1.0000 0.01290  0.43830  0.20140  Biso   1.000  C
  H65      1.0000 0.00130  0.35660  0.18020  Biso   1.000  H
  C79      1.0000 0.04720  0.53010  0.14820  Biso   1.000  C
  H66      1.0000 0.12500  0.49940  0.12350  Biso   1.000  H
  H67      1.0000 0.97090  0.53660  0.11800  Biso   1.000  H
  O39      1.0000 0.06470  0.68010  0.23230  Biso   1.000  O
  C80      1.0000 0.07920  0.65610  0.17470  Biso   1.000  C
  O40      1.0000 0.10520  0.74020  0.13410  Biso   1.000  O
  Zn9      1.0000 0.88421  0.39327  0.32761  Biso   1.000  Zn
  N14      1.0000 0.88320  0.53190  0.39510  Biso   1.000  N
  C81      1.0000 0.96030  0.52440  0.44730  Biso   1.000  C
  H68      1.0000 0.00650  0.44960  0.45490  Biso   1.000  H
  C82      1.0000 0.97720  0.61990  0.49160  Biso   1.000  C
  H69      1.0000 0.04760  0.61910  0.52230  Biso   1.000  H
  C83      1.0000 0.88770  0.71460  0.48860  Biso   1.000  C
  C84      1.0000 0.80310  0.72100  0.43760  Biso   1.000  C
  H70      1.0000 0.74590  0.79010  0.43310  Biso   1.000  H
  C85      1.0000 0.79910  0.62760  0.39180  Biso   1.000  C
  H71      1.0000 0.73590  0.63170  0.35770  Biso   1.000  H
  N15      1.0000 0.88220  0.98940  0.63920  Biso   1.000  N
  C86      1.0000 0.83120  0.01010  0.58010  Biso   1.000  C
  H72      1.0000 0.79530  0.08910  0.57130  Biso   1.000  H
  C87      1.0000 0.82790  0.92250  0.53110  Biso   1.000  C
  H73      1.0000 0.78670  0.93960  0.49080  Biso   1.000  H
  C88      1.0000 0.88590  0.81090  0.54290  Biso   1.000  C
  C89      1.0000 0.93600  0.78710  0.60200  Biso   1.000  C
  H74      1.0000 0.96990  0.70770  0.61150  Biso   1.000  H
  C90      1.0000 0.93860  0.87740  0.64910  Biso   1.000  C
  H75      1.0000 0.98080  0.86070  0.68920  Biso   1.000  H
  Zn10     1.0000 0.37763  0.37934  0.29249  Biso   1.000  Zn
  C91      1.0000 0.47100  0.62400  0.48490  Biso   1.000  C
  C92      1.0000 0.37200  0.71120  0.48510  Biso   1.000  C
  C93      1.0000 0.28200  0.71700  0.43690  Biso   1.000  C
  C94      1.0000 0.29430  0.63550  0.38600  Biso   1.000  C
  C95      1.0000 0.32250  0.00610  0.57900  Biso   1.000  C
  C96      1.0000 0.31770  0.92190  0.52900  Biso   1.000  C
  C97      1.0000 0.37740  0.81040  0.53920  Biso   1.000  C
  C98      1.0000 0.43140  0.78650  0.59830  Biso   1.000  C
  C99      1.0000 0.43180  0.87690  0.64550  Biso   1.000  C
  C100     1.0000 0.13430  0.41800  0.24840  Biso   1.000  C
  C101     1.0000 0.24290  0.43630  0.19970  Biso   1.000  C
  C102     1.0000 0.49810  0.43920  0.20270  Biso   1.000  C
  C103     1.0000 0.60380  0.42100  0.25340  Biso   1.000  C
  C104     1.0000 0.20500  0.52360  0.14480  Biso   1.000  C
  C105     1.0000 0.19400  0.65200  0.17190  Biso   1.000  C
  C106     1.0000 0.54400  0.53670  0.15330  Biso   1.000  C
  C107     1.0000 0.57950  0.65670  0.18620  Biso   1.000  C
  C108     1.0000 0.46100  0.52800  0.44060  Biso   1.000  C
  H76      1.0000 0.52060  0.60120  0.51750  Biso   1.000  H
  H77      1.0000 0.22860  0.78780  0.43220  Biso   1.000  H
  H78      1.0000 0.24210  0.64730  0.34820  Biso   1.000  H
  H79      1.0000 0.28760  0.08560  0.57040  Biso   1.000  H
  H80      1.0000 0.27480  0.94070  0.48930  Biso   1.000  H
  H81      1.0000 0.46870  0.70810  0.60710  Biso   1.000  H
  H82      1.0000 0.47680  0.86060  0.68490  Biso   1.000  H
  H83      1.0000 0.36660  0.55530  0.24760  Biso   1.000  H
  H84      1.0000 0.26030  0.35430  0.17960  Biso   1.000  H
  H85      1.0000 0.48750  0.35970  0.17900  Biso   1.000  H
  H86      1.0000 0.27320  0.52110  0.11050  Biso   1.000  H
  H87      1.0000 0.11810  0.49820  0.12580  Biso   1.000  H
  H88      1.0000 0.62210  0.50560  0.12930  Biso   1.000  H
  H89      1.0000 0.47100  0.55140  0.12180  Biso   1.000  H
  H90      1.0000 0.48730  0.45660  0.44350  Biso   1.000  H
  N16      1.0000 0.36200  0.46980  0.23460  Biso   1.000  N
  N17      1.0000 0.37000  0.53230  0.39260  Biso   1.000  N
  N18      1.0000 0.37120  0.98700  0.63830  Biso   1.000  N
  O41      1.0000 0.16010  0.39300  0.30650  Biso   1.000  O
  O42      1.0000 0.01780  0.41300  0.22440  Biso   1.000  O
  O43      1.0000 0.56940  0.39980  0.31090  Biso   1.000  O
  O44      1.0000 0.72440  0.41600  0.23220  Biso   1.000  O
  O45      1.0000 0.18110  0.67540  0.23000  Biso   1.000  O
  O46      1.0000 0.16330  0.73060  0.12870  Biso   1.000  O
  O47      1.0000 0.53600  0.67600  0.24140  Biso   1.000  O
  O48      1.0000 0.62200  0.74200  0.15020  Biso   1.000  O
  Zn11     1.0000 0.35930  0.39270  0.32737  Biso   1.000  Zn
  Zn12     1.0000 0.86670  0.38100  0.29071  Biso   1.000  Zn
  N19      1.0000 0.62100  0.53130  0.73580  Biso   1.000  N
  H91      1.0000 0.61670  0.44490  0.74720  Biso   1.000  H
  O49      1.0000 0.81960  0.61200  0.81090  Biso   1.000  O
  C109     1.0000 0.84760  0.59130  0.75280  Biso   1.000  C
  O50      1.0000 0.96580  0.59870  0.73270  Biso   1.000  O
  C110     1.0000 0.74340  0.56680  0.70330  Biso   1.000  C
  H92      1.0000 0.72530  0.64620  0.68060  Biso   1.000  H
  C111     1.0000 0.79260  0.47560  0.65250  Biso   1.000  C
  H93      1.0000 0.72480  0.46790  0.61790  Biso   1.000  H
  H94      1.0000 0.87590  0.50690  0.63280  Biso   1.000  H
  O51      1.0000 0.81780  0.33120  0.73960  Biso   1.000  O
  C112     1.0000 0.81830  0.35120  0.68160  Biso   1.000  C
  O52      1.0000 0.86030  0.26730  0.64300  Biso   1.000  O
  O53      1.0000 0.40850  0.59180  0.81000  Biso   1.000  O
  C113     1.0000 0.37940  0.57640  0.75100  Biso   1.000  C
  O54      1.0000 0.25740  0.57440  0.73010  Biso   1.000  O
  C114     1.0000 0.48710  0.56170  0.70140  Biso   1.000  C
  H95      1.0000 0.49870  0.64340  0.68020  Biso   1.000  H
  C115     1.0000 0.45280  0.46990  0.64820  Biso   1.000  C
  H96      1.0000 0.37500  0.50060  0.62350  Biso   1.000  H
  H97      1.0000 0.52910  0.46340  0.61800  Biso   1.000  H
  O55      1.0000 0.43530  0.31990  0.73230  Biso   1.000  O
  C116     1.0000 0.42080  0.34390  0.67470  Biso   1.000  C
  O56      1.0000 0.39480  0.25980  0.63410  Biso   1.000  O
  Zn13     1.0000 0.61579  0.60673  0.82761  Biso   1.000  Zn
  N20      1.0000 0.61680  0.46810  0.89510  Biso   1.000  N
  C117     1.0000 0.53970  0.47560  0.94730  Biso   1.000  C
  H98      1.0000 0.49350  0.55040  0.95490  Biso   1.000  H
  C118     1.0000 0.52280  0.38010  0.99160  Biso   1.000  C
  H99      1.0000 0.45240  0.38090  0.02230  Biso   1.000  H
  C119     1.0000 0.61230  0.28540  0.98860  Biso   1.000  C
  C120     1.0000 0.69690  0.27900  0.93760  Biso   1.000  C
  H100     1.0000 0.75410  0.20990  0.93310  Biso   1.000  H
  C121     1.0000 0.70090  0.37240  0.89180  Biso   1.000  C
  H101     1.0000 0.76410  0.36830  0.85770  Biso   1.000  H
  N21      1.0000 0.61780  0.01060  0.13920  Biso   1.000  N
  C122     1.0000 0.66880  0.98990  0.08010  Biso   1.000  C
  H102     1.0000 0.70470  0.91090  0.07130  Biso   1.000  H
  C123     1.0000 0.67210  0.07750  0.03110  Biso   1.000  C
  H103     1.0000 0.71330  0.06040  0.99080  Biso   1.000  H
  C124     1.0000 0.61410  0.18910  0.04290  Biso   1.000  C
  C125     1.0000 0.56400  0.21290  0.10200  Biso   1.000  C
  H104     1.0000 0.53010  0.29230  0.11150  Biso   1.000  H
  C126     1.0000 0.56140  0.12260  0.14910  Biso   1.000  C
  H105     1.0000 0.51920  0.13930  0.18920  Biso   1.000  H
  Zn14     1.0000 0.12237  0.62066  0.79249  Biso   1.000  Zn
  C127     1.0000 0.02900  0.37600  0.98490  Biso   1.000  C
  C128     1.0000 0.12800  0.28880  0.98510  Biso   1.000  C
  C129     1.0000 0.21800  0.28300  0.93690  Biso   1.000  C
  C130     1.0000 0.20570  0.36450  0.88600  Biso   1.000  C
  C131     1.0000 0.17750  0.99390  0.07900  Biso   1.000  C
  C132     1.0000 0.18230  0.07810  0.02900  Biso   1.000  C
  C133     1.0000 0.12260  0.18960  0.03920  Biso   1.000  C
  C134     1.0000 0.06860  0.21350  0.09830  Biso   1.000  C
  C135     1.0000 0.06820  0.12310  0.14550  Biso   1.000  C
  C136     1.0000 0.36570  0.58200  0.74840  Biso   1.000  C
  C137     1.0000 0.25710  0.56370  0.69970  Biso   1.000  C
  C138     1.0000 0.00190  0.56080  0.70270  Biso   1.000  C
  C139     1.0000 0.89620  0.57900  0.75340  Biso   1.000  C
  C140     1.0000 0.29500  0.47640  0.64480  Biso   1.000  C
  C141     1.0000 0.30600  0.34800  0.67190  Biso   1.000  C
  C142     1.0000 0.95600  0.46330  0.65330  Biso   1.000  C
  C143     1.0000 0.92050  0.34330  0.68620  Biso   1.000  C
  C144     1.0000 0.03900  0.47200  0.94060  Biso   1.000  C
  H106     1.0000 0.97940  0.39880  0.01750  Biso   1.000  H
  H107     1.0000 0.27140  0.21220  0.93220  Biso   1.000  H
  H108     1.0000 0.25790  0.35270  0.84820  Biso   1.000  H
  H109     1.0000 0.21240  0.91440  0.07040  Biso   1.000  H
  H110     1.0000 0.22520  0.05930  0.98930  Biso   1.000  H
  H111     1.0000 0.03130  0.29190  0.10710  Biso   1.000  H
  H112     1.0000 0.02320  0.13940  0.18490  Biso   1.000  H
  H113     1.0000 0.13340  0.44470  0.74760  Biso   1.000  H
  H114     1.0000 0.23970  0.64570  0.67960  Biso   1.000  H
  H115     1.0000 0.01250  0.64030  0.67900  Biso   1.000  H
  H116     1.0000 0.22680  0.47890  0.61050  Biso   1.000  H
  H117     1.0000 0.38190  0.50180  0.62580  Biso   1.000  H
  H118     1.0000 0.87790  0.49440  0.62930  Biso   1.000  H
  H119     1.0000 0.02900  0.44860  0.62180  Biso   1.000  H
  H120     1.0000 0.01270  0.54340  0.94350  Biso   1.000  H
  N22      1.0000 0.13800  0.53020  0.73460  Biso   1.000  N
  N23      1.0000 0.13000  0.46770  0.89260  Biso   1.000  N
  N24      1.0000 0.12880  0.01300  0.13830  Biso   1.000  N
  O57      1.0000 0.33990  0.60700  0.80650  Biso   1.000  O
  O58      1.0000 0.48220  0.58700  0.72440  Biso   1.000  O
  O59      1.0000 0.93060  0.60020  0.81090  Biso   1.000  O
  O60      1.0000 0.77560  0.58400  0.73220  Biso   1.000  O
  O61      1.0000 0.31890  0.32460  0.73000  Biso   1.000  O
  O62      1.0000 0.33670  0.26940  0.62870  Biso   1.000  O
  O63      1.0000 0.96400  0.32400  0.74140  Biso   1.000  O
  O64      1.0000 0.87800  0.25800  0.65020  Biso   1.000  O
  Zn15     1.0000 0.14070  0.60730  0.82737  Biso   1.000  Zn
  Zn16     1.0000 0.63330  0.61900  0.79071  Biso   1.000  Zn
