data_image0
_cell_length_a       26.0729
_cell_length_b       26.0729
_cell_length_c       26.0729
_cell_angle_alpha    90
_cell_angle_beta     90
_cell_angle_gamma    90

_symmetry_space_group_name_H-M    "P 1"
_symmetry_int_tables_number       1

loop_
  _symmetry_equiv_pos_as_xyz
  'x, y, z'

loop_
  _atom_site_label
  _atom_site_occupancy
  _atom_site_fract_x
  _atom_site_fract_y
  _atom_site_fract_z
  _atom_site_thermal_displace_type
  _atom_site_B_iso_or_equiv
  _atom_site_type_symbol
  Zr1      1.0000 0.98470  0.40759  0.98687  Biso   1.000  Zr
  O1       1.0000 0.93170  0.46440  0.94950  Biso   1.000  O
  C1       1.0000 0.98600  0.31957  0.13527  Biso   1.000  C
  C2       1.0000 0.99375  0.36352  0.10039  Biso   1.000  C
  O2       1.0000 0.00641  0.40551  0.12166  Biso   1.000  O
  O3       1.0000 0.98735  0.35497  0.05292  Biso   1.000  O
  C3       1.0000 0.96350  0.13380  0.32180  Biso   1.000  C
  C4       1.0000 0.96720  0.09846  0.36590  Biso   1.000  C
  O4       1.0000 0.96810  0.12041  0.40977  Biso   1.000  O
  O5       1.0000 0.96915  0.05116  0.35666  Biso   1.000  O
  C5       1.0000 0.97310  0.24160  0.20330  Biso   1.000  C
  C6       1.0000 0.96750  0.20150  0.24270  Biso   1.000  C
  C7       1.0000 0.98760  0.22810  0.15050  Biso   1.000  C
  H1       1.0000 0.99690  0.19510  0.14070  Biso   1.000  H
  C8       1.0000 0.98590  0.26990  0.11640  Biso   1.000  C
  H2       1.0000 0.98480  0.26420  0.08120  Biso   1.000  H
  C9       1.0000 0.98500  0.32850  0.18950  Biso   1.000  C
  H3       1.0000 0.99210  0.36100  0.20250  Biso   1.000  H
  C10      1.0000 0.96730  0.14740  0.23160  Biso   1.000  C
  H4       1.0000 0.96740  0.13570  0.19790  Biso   1.000  H
  C11      1.0000 0.96710  0.11640  0.26820  Biso   1.000  C
  H5       1.0000 0.96930  0.08150  0.26150  Biso   1.000  H
  C12      1.0000 0.96460  0.18580  0.32860  Biso   1.000  C
  H6       1.0000 0.96330  0.19890  0.36170  Biso   1.000  H
  N1       1.0000 0.97370  0.28960  0.22140  Biso   1.000  N
  N2       1.0000 0.96750  0.21750  0.29010  Biso   1.000  N
  Co1      1.0000 0.96813  0.29983  0.30084  Biso   1.000  Co
  Cl1      1.0000 0.01620  0.29490  0.38680  Biso   1.000  Cl
  Cl2      1.0000 0.03020  0.37810  0.29220  Biso   1.000  Cl
  Co2      1.0000 0.00250  0.29575  0.29950  Biso   1.000  Co
  C13      1.0000 0.95790  0.23280  0.15160  Biso   1.000  C
  H7       1.0000 0.94480  0.20130  0.14110  Biso   1.000  H
  C14      1.0000 0.96360  0.27320  0.11790  Biso   1.000  C
  H8       1.0000 0.95280  0.27000  0.08400  Biso   1.000  H
  C15      1.0000 0.00300  0.32260  0.18470  Biso   1.000  C
  H9       1.0000 0.02060  0.35190  0.19480  Biso   1.000  H
  C16      1.0000 0.94570  0.15420  0.23500  Biso   1.000  C
  H10      1.0000 0.93000  0.14660  0.20390  Biso   1.000  H
  C17      1.0000 0.94720  0.11730  0.27450  Biso   1.000  C
  H11      1.0000 0.93760  0.08340  0.26880  Biso   1.000  H
  C18      1.0000 0.98140  0.18380  0.32930  Biso   1.000  C
  H12      1.0000 0.99230  0.19300  0.36200  Biso   1.000  H
  N3       1.0000 0.99550  0.28620  0.21860  Biso   1.000  N
  N4       1.0000 0.98420  0.22150  0.29010  Biso   1.000  N
  O6       1.0000 0.94860  0.47360  0.96210  Biso   1.000  O
  Cl3      1.0000 0.04140  0.29030  0.35110  Biso   1.000  Cl
  Cl4      1.0000 0.96240  0.38670  0.30090  Biso   1.000  Cl
  Zr2      1.0000 0.51530  0.59241  0.48687  Biso   1.000  Zr
  O7       1.0000 0.56830  0.53560  0.44950  Biso   1.000  O
  C19      1.0000 0.51400  0.68043  0.63527  Biso   1.000  C
  C20      1.0000 0.50625  0.63648  0.60039  Biso   1.000  C
  O8       1.0000 0.49359  0.59449  0.62166  Biso   1.000  O
  O9       1.0000 0.51265  0.64503  0.55292  Biso   1.000  O
  C21      1.0000 0.53650  0.86620  0.82180  Biso   1.000  C
  C22      1.0000 0.53280  0.90154  0.86590  Biso   1.000  C
  O10      1.0000 0.53190  0.87959  0.90977  Biso   1.000  O
  O11      1.0000 0.53085  0.94884  0.85666  Biso   1.000  O
  C23      1.0000 0.52690  0.75840  0.70330  Biso   1.000  C
  C24      1.0000 0.53250  0.79850  0.74270  Biso   1.000  C
  C25      1.0000 0.51240  0.77190  0.65050  Biso   1.000  C
  H13      1.0000 0.50310  0.80490  0.64070  Biso   1.000  H
  C26      1.0000 0.51410  0.73010  0.61640  Biso   1.000  C
  H14      1.0000 0.51520  0.73580  0.58120  Biso   1.000  H
  C27      1.0000 0.51500  0.67150  0.68950  Biso   1.000  C
  H15      1.0000 0.50790  0.63900  0.70250  Biso   1.000  H
  C28      1.0000 0.53270  0.85260  0.73160  Biso   1.000  C
  H16      1.0000 0.53260  0.86430  0.69790  Biso   1.000  H
  C29      1.0000 0.53290  0.88360  0.76820  Biso   1.000  C
  H17      1.0000 0.53070  0.91850  0.76150  Biso   1.000  H
  C30      1.0000 0.53540  0.81420  0.82860  Biso   1.000  C
  H18      1.0000 0.53670  0.80110  0.86170  Biso   1.000  H
  N5       1.0000 0.52630  0.71040  0.72140  Biso   1.000  N
  N6       1.0000 0.53250  0.78250  0.79010  Biso   1.000  N
  Co3      1.0000 0.53187  0.70017  0.80084  Biso   1.000  Co
  Cl5      1.0000 0.48380  0.70510  0.88680  Biso   1.000  Cl
  Cl6      1.0000 0.46980  0.62190  0.79220  Biso   1.000  Cl
  Co4      1.0000 0.49750  0.70425  0.79950  Biso   1.000  Co
  C31      1.0000 0.54210  0.76720  0.65160  Biso   1.000  C
  H19      1.0000 0.55520  0.79870  0.64110  Biso   1.000  H
  C32      1.0000 0.53640  0.72680  0.61790  Biso   1.000  C
  H20      1.0000 0.54720  0.73000  0.58400  Biso   1.000  H
  C33      1.0000 0.49700  0.67740  0.68470  Biso   1.000  C
  H21      1.0000 0.47940  0.64810  0.69480  Biso   1.000  H
  C34      1.0000 0.55430  0.84580  0.73500  Biso   1.000  C
  H22      1.0000 0.57000  0.85340  0.70390  Biso   1.000  H
  C35      1.0000 0.55280  0.88270  0.77450  Biso   1.000  C
  H23      1.0000 0.56240  0.91660  0.76880  Biso   1.000  H
  C36      1.0000 0.51860  0.81620  0.82930  Biso   1.000  C
  H24      1.0000 0.50770  0.80700  0.86200  Biso   1.000  H
  N7       1.0000 0.50450  0.71380  0.71860  Biso   1.000  N
  N8       1.0000 0.51580  0.77850  0.79010  Biso   1.000  N
  O12      1.0000 0.55140  0.52640  0.46210  Biso   1.000  O
  Cl7      1.0000 0.45860  0.70970  0.85110  Biso   1.000  Cl
  Cl8      1.0000 0.53760  0.61330  0.80090  Biso   1.000  Cl
  Zr3      1.0000 0.01530  0.90759  0.51313  Biso   1.000  Zr
  O13      1.0000 0.06830  0.96440  0.55050  Biso   1.000  O
  C37      1.0000 0.01400  0.81957  0.36473  Biso   1.000  C
  C38      1.0000 0.00625  0.86352  0.39961  Biso   1.000  C
  O14      1.0000 0.99359  0.90551  0.37834  Biso   1.000  O
  O15      1.0000 0.01265  0.85497  0.44708  Biso   1.000  O
  C39      1.0000 0.03650  0.63380  0.17820  Biso   1.000  C
  C40      1.0000 0.03280  0.59846  0.13410  Biso   1.000  C
  O16      1.0000 0.03190  0.62041  0.09023  Biso   1.000  O
  O17      1.0000 0.03085  0.55116  0.14334  Biso   1.000  O
  C41      1.0000 0.02690  0.74160  0.29670  Biso   1.000  C
  C42      1.0000 0.03250  0.70150  0.25730  Biso   1.000  C
  C43      1.0000 0.01240  0.72810  0.34950  Biso   1.000  C
  H25      1.0000 0.00310  0.69510  0.35930  Biso   1.000  H
  C44      1.0000 0.01410  0.76990  0.38360  Biso   1.000  C
  H26      1.0000 0.01520  0.76420  0.41880  Biso   1.000  H
  C45      1.0000 0.01500  0.82850  0.31050  Biso   1.000  C
  H27      1.0000 0.00790  0.86100  0.29750  Biso   1.000  H
  C46      1.0000 0.03270  0.64740  0.26840  Biso   1.000  C
  H28      1.0000 0.03260  0.63570  0.30210  Biso   1.000  H
  C47      1.0000 0.03290  0.61640  0.23180  Biso   1.000  C
  H29      1.0000 0.03070  0.58150  0.23850  Biso   1.000  H
  C48      1.0000 0.03540  0.68580  0.17140  Biso   1.000  C
  H30      1.0000 0.03670  0.69890  0.13830  Biso   1.000  H
  N9       1.0000 0.02630  0.78960  0.27860  Biso   1.000  N
  N10      1.0000 0.03250  0.71750  0.20990  Biso   1.000  N
  Co5      1.0000 0.03187  0.79983  0.19916  Biso   1.000  Co
  Cl9      1.0000 0.98380  0.79490  0.11320  Biso   1.000  Cl
  Cl10     1.0000 0.96980  0.87810  0.20780  Biso   1.000  Cl
  Co6      1.0000 0.99750  0.79575  0.20050  Biso   1.000  Co
  C49      1.0000 0.04210  0.73280  0.34840  Biso   1.000  C
  H31      1.0000 0.05520  0.70130  0.35890  Biso   1.000  H
  C50      1.0000 0.03640  0.77320  0.38210  Biso   1.000  C
  H32      1.0000 0.04720  0.77000  0.41600  Biso   1.000  H
  C51      1.0000 0.99700  0.82260  0.31530  Biso   1.000  C
  H33      1.0000 0.97940  0.85190  0.30520  Biso   1.000  H
  C52      1.0000 0.05430  0.65420  0.26500  Biso   1.000  C
  H34      1.0000 0.07000  0.64660  0.29610  Biso   1.000  H
  C53      1.0000 0.05280  0.61730  0.22550  Biso   1.000  C
  H35      1.0000 0.06240  0.58340  0.23120  Biso   1.000  H
  C54      1.0000 0.01860  0.68380  0.17070  Biso   1.000  C
  H36      1.0000 0.00770  0.69300  0.13800  Biso   1.000  H
  N11      1.0000 0.00450  0.78620  0.28140  Biso   1.000  N
  N12      1.0000 0.01580  0.72150  0.20990  Biso   1.000  N
  O18      1.0000 0.05140  0.97360  0.53790  Biso   1.000  O
  Cl11     1.0000 0.95860  0.79030  0.14890  Biso   1.000  Cl
  Cl12     1.0000 0.03760  0.88670  0.19910  Biso   1.000  Cl
  Zr4      1.0000 0.48470  0.09241  0.01313  Biso   1.000  Zr
  O19      1.0000 0.43170  0.03560  0.05050  Biso   1.000  O
  C55      1.0000 0.48600  0.18043  0.86473  Biso   1.000  C
  C56      1.0000 0.49375  0.13648  0.89961  Biso   1.000  C
  O20      1.0000 0.50641  0.09449  0.87834  Biso   1.000  O
  O21      1.0000 0.48735  0.14503  0.94708  Biso   1.000  O
  C57      1.0000 0.46350  0.36620  0.67820  Biso   1.000  C
  C58      1.0000 0.46720  0.40154  0.63410  Biso   1.000  C
  O22      1.0000 0.46810  0.37959  0.59023  Biso   1.000  O
  O23      1.0000 0.46915  0.44884  0.64334  Biso   1.000  O
  C59      1.0000 0.47310  0.25840  0.79670  Biso   1.000  C
  C60      1.0000 0.46750  0.29850  0.75730  Biso   1.000  C
  C61      1.0000 0.48760  0.27190  0.84950  Biso   1.000  C
  H37      1.0000 0.49690  0.30490  0.85930  Biso   1.000  H
  C62      1.0000 0.48590  0.23010  0.88360  Biso   1.000  C
  H38      1.0000 0.48480  0.23580  0.91880  Biso   1.000  H
  C63      1.0000 0.48500  0.17150  0.81050  Biso   1.000  C
  H39      1.0000 0.49210  0.13900  0.79750  Biso   1.000  H
  C64      1.0000 0.46730  0.35260  0.76840  Biso   1.000  C
  H40      1.0000 0.46740  0.36430  0.80210  Biso   1.000  H
  C65      1.0000 0.46710  0.38360  0.73180  Biso   1.000  C
  H41      1.0000 0.46930  0.41850  0.73850  Biso   1.000  H
  C66      1.0000 0.46460  0.31420  0.67140  Biso   1.000  C
  H42      1.0000 0.46330  0.30110  0.63830  Biso   1.000  H
  N13      1.0000 0.47370  0.21040  0.77860  Biso   1.000  N
  N14      1.0000 0.46750  0.28250  0.70990  Biso   1.000  N
  Co7      1.0000 0.46813  0.20017  0.69916  Biso   1.000  Co
  Cl13     1.0000 0.51620  0.20510  0.61320  Biso   1.000  Cl
  Cl14     1.0000 0.53020  0.12190  0.70780  Biso   1.000  Cl
  Co8      1.0000 0.50250  0.20425  0.70050  Biso   1.000  Co
  C67      1.0000 0.45790  0.26720  0.84840  Biso   1.000  C
  H43      1.0000 0.44480  0.29870  0.85890  Biso   1.000  H
  C68      1.0000 0.46360  0.22680  0.88210  Biso   1.000  C
  H44      1.0000 0.45280  0.23000  0.91600  Biso   1.000  H
  C69      1.0000 0.50300  0.17740  0.81530  Biso   1.000  C
  H45      1.0000 0.52060  0.14810  0.80520  Biso   1.000  H
  C70      1.0000 0.44570  0.34580  0.76500  Biso   1.000  C
  H46      1.0000 0.43000  0.35340  0.79610  Biso   1.000  H
  C71      1.0000 0.44720  0.38270  0.72550  Biso   1.000  C
  H47      1.0000 0.43760  0.41660  0.73120  Biso   1.000  H
  C72      1.0000 0.48140  0.31620  0.67070  Biso   1.000  C
  H48      1.0000 0.49230  0.30700  0.63800  Biso   1.000  H
  N15      1.0000 0.49550  0.21380  0.78140  Biso   1.000  N
  N16      1.0000 0.48420  0.27850  0.70990  Biso   1.000  N
  O24      1.0000 0.44860  0.02640  0.03790  Biso   1.000  O
  Cl15     1.0000 0.54140  0.20970  0.64890  Biso   1.000  Cl
  Cl16     1.0000 0.46240  0.11330  0.69910  Biso   1.000  Cl
  Zr5      1.0000 0.98687  0.98470  0.40759  Biso   1.000  Zr
  O25      1.0000 0.94950  0.93170  0.46440  Biso   1.000  O
  C73      1.0000 0.13527  0.98600  0.31957  Biso   1.000  C
  C74      1.0000 0.10039  0.99375  0.36352  Biso   1.000  C
  O26      1.0000 0.12166  0.00641  0.40551  Biso   1.000  O
  O27      1.0000 0.05292  0.98735  0.35497  Biso   1.000  O
  C75      1.0000 0.32180  0.96350  0.13380  Biso   1.000  C
  C76      1.0000 0.36590  0.96720  0.09846  Biso   1.000  C
  O28      1.0000 0.40977  0.96810  0.12041  Biso   1.000  O
  O29      1.0000 0.35666  0.96915  0.05116  Biso   1.000  O
  C77      1.0000 0.20330  0.97310  0.24160  Biso   1.000  C
  C78      1.0000 0.24270  0.96750  0.20150  Biso   1.000  C
  C79      1.0000 0.15050  0.98760  0.22810  Biso   1.000  C
  H49      1.0000 0.14070  0.99690  0.19510  Biso   1.000  H
  C80      1.0000 0.11640  0.98590  0.26990  Biso   1.000  C
  H50      1.0000 0.08120  0.98480  0.26420  Biso   1.000  H
  C81      1.0000 0.18950  0.98500  0.32850  Biso   1.000  C
  H51      1.0000 0.20250  0.99210  0.36100  Biso   1.000  H
  C82      1.0000 0.23160  0.96730  0.14740  Biso   1.000  C
  H52      1.0000 0.19790  0.96740  0.13570  Biso   1.000  H
  C83      1.0000 0.26820  0.96710  0.11640  Biso   1.000  C
  H53      1.0000 0.26150  0.96930  0.08150  Biso   1.000  H
  C84      1.0000 0.32860  0.96460  0.18580  Biso   1.000  C
  H54      1.0000 0.36170  0.96330  0.19890  Biso   1.000  H
  N17      1.0000 0.22140  0.97370  0.28960  Biso   1.000  N
  N18      1.0000 0.29010  0.96750  0.21750  Biso   1.000  N
  Co9      1.0000 0.30084  0.96813  0.29983  Biso   1.000  Co
  Cl17     1.0000 0.38680  0.01620  0.29490  Biso   1.000  Cl
  Cl18     1.0000 0.29220  0.03020  0.37810  Biso   1.000  Cl
  Co10     1.0000 0.29950  0.00250  0.29575  Biso   1.000  Co
  C85      1.0000 0.15160  0.95790  0.23280  Biso   1.000  C
  H55      1.0000 0.14110  0.94480  0.20130  Biso   1.000  H
  C86      1.0000 0.11790  0.96360  0.27320  Biso   1.000  C
  H56      1.0000 0.08400  0.95280  0.27000  Biso   1.000  H
  C87      1.0000 0.18470  0.00300  0.32260  Biso   1.000  C
  H57      1.0000 0.19480  0.02060  0.35190  Biso   1.000  H
  C88      1.0000 0.23500  0.94570  0.15420  Biso   1.000  C
  H58      1.0000 0.20390  0.93000  0.14660  Biso   1.000  H
  C89      1.0000 0.27450  0.94720  0.11730  Biso   1.000  C
  H59      1.0000 0.26880  0.93760  0.08340  Biso   1.000  H
  C90      1.0000 0.32930  0.98140  0.18380  Biso   1.000  C
  H60      1.0000 0.36200  0.99230  0.19300  Biso   1.000  H
  N19      1.0000 0.21860  0.99550  0.28620  Biso   1.000  N
  N20      1.0000 0.29010  0.98420  0.22150  Biso   1.000  N
  O30      1.0000 0.96210  0.94860  0.47360  Biso   1.000  O
  Cl19     1.0000 0.35110  0.04140  0.29030  Biso   1.000  Cl
  Cl20     1.0000 0.30090  0.96240  0.38670  Biso   1.000  Cl
  Zr6      1.0000 0.48687  0.51530  0.59241  Biso   1.000  Zr
  O31      1.0000 0.44950  0.56830  0.53560  Biso   1.000  O
  C91      1.0000 0.63527  0.51400  0.68043  Biso   1.000  C
  C92      1.0000 0.60039  0.50625  0.63648  Biso   1.000  C
  O32      1.0000 0.62166  0.49359  0.59449  Biso   1.000  O
  O33      1.0000 0.55292  0.51265  0.64503  Biso   1.000  O
  C93      1.0000 0.82180  0.53650  0.86620  Biso   1.000  C
  C94      1.0000 0.86590  0.53280  0.90154  Biso   1.000  C
  O34      1.0000 0.90977  0.53190  0.87959  Biso   1.000  O
  O35      1.0000 0.85666  0.53085  0.94884  Biso   1.000  O
  C95      1.0000 0.70330  0.52690  0.75840  Biso   1.000  C
  C96      1.0000 0.74270  0.53250  0.79850  Biso   1.000  C
  C97      1.0000 0.65050  0.51240  0.77190  Biso   1.000  C
  H61      1.0000 0.64070  0.50310  0.80490  Biso   1.000  H
  C98      1.0000 0.61640  0.51410  0.73010  Biso   1.000  C
  H62      1.0000 0.58120  0.51520  0.73580  Biso   1.000  H
  C99      1.0000 0.68950  0.51500  0.67150  Biso   1.000  C
  H63      1.0000 0.70250  0.50790  0.63900  Biso   1.000  H
  C100     1.0000 0.73160  0.53270  0.85260  Biso   1.000  C
  H64      1.0000 0.69790  0.53260  0.86430  Biso   1.000  H
  C101     1.0000 0.76820  0.53290  0.88360  Biso   1.000  C
  H65      1.0000 0.76150  0.53070  0.91850  Biso   1.000  H
  C102     1.0000 0.82860  0.53540  0.81420  Biso   1.000  C
  H66      1.0000 0.86170  0.53670  0.80110  Biso   1.000  H
  N21      1.0000 0.72140  0.52630  0.71040  Biso   1.000  N
  N22      1.0000 0.79010  0.53250  0.78250  Biso   1.000  N
  Co11     1.0000 0.80084  0.53187  0.70017  Biso   1.000  Co
  Cl21     1.0000 0.88680  0.48380  0.70510  Biso   1.000  Cl
  Cl22     1.0000 0.79220  0.46980  0.62190  Biso   1.000  Cl
  Co12     1.0000 0.79950  0.49750  0.70425  Biso   1.000  Co
  C103     1.0000 0.65160  0.54210  0.76720  Biso   1.000  C
  H67      1.0000 0.64110  0.55520  0.79870  Biso   1.000  H
  C104     1.0000 0.61790  0.53640  0.72680  Biso   1.000  C
  H68      1.0000 0.58400  0.54720  0.73000  Biso   1.000  H
  C105     1.0000 0.68470  0.49700  0.67740  Biso   1.000  C
  H69      1.0000 0.69480  0.47940  0.64810  Biso   1.000  H
  C106     1.0000 0.73500  0.55430  0.84580  Biso   1.000  C
  H70      1.0000 0.70390  0.57000  0.85340  Biso   1.000  H
  C107     1.0000 0.77450  0.55280  0.88270  Biso   1.000  C
  H71      1.0000 0.76880  0.56240  0.91660  Biso   1.000  H
  C108     1.0000 0.82930  0.51860  0.81620  Biso   1.000  C
  H72      1.0000 0.86200  0.50770  0.80700  Biso   1.000  H
  N23      1.0000 0.71860  0.50450  0.71380  Biso   1.000  N
  N24      1.0000 0.79010  0.51580  0.77850  Biso   1.000  N
  O36      1.0000 0.46210  0.55140  0.52640  Biso   1.000  O
  Cl23     1.0000 0.85110  0.45860  0.70970  Biso   1.000  Cl
  Cl24     1.0000 0.80090  0.53760  0.61330  Biso   1.000  Cl
  Zr7      1.0000 0.51313  0.01530  0.90759  Biso   1.000  Zr
  O37      1.0000 0.55050  0.06830  0.96440  Biso   1.000  O
  C109     1.0000 0.36473  0.01400  0.81957  Biso   1.000  C
  C110     1.0000 0.39961  0.00625  0.86352  Biso   1.000  C
  O38      1.0000 0.37834  0.99359  0.90551  Biso   1.000  O
  O39      1.0000 0.44708  0.01265  0.85497  Biso   1.000  O
  C111     1.0000 0.17820  0.03650  0.63380  Biso   1.000  C
  C112     1.0000 0.13410  0.03280  0.59846  Biso   1.000  C
  O40      1.0000 0.09023  0.03190  0.62041  Biso   1.000  O
  O41      1.0000 0.14334  0.03085  0.55116  Biso   1.000  O
  C113     1.0000 0.29670  0.02690  0.74160  Biso   1.000  C
  C114     1.0000 0.25730  0.03250  0.70150  Biso   1.000  C
  C115     1.0000 0.34950  0.01240  0.72810  Biso   1.000  C
  H73      1.0000 0.35930  0.00310  0.69510  Biso   1.000  H
  C116     1.0000 0.38360  0.01410  0.76990  Biso   1.000  C
  H74      1.0000 0.41880  0.01520  0.76420  Biso   1.000  H
  C117     1.0000 0.31050  0.01500  0.82850  Biso   1.000  C
  H75      1.0000 0.29750  0.00790  0.86100  Biso   1.000  H
  C118     1.0000 0.26840  0.03270  0.64740  Biso   1.000  C
  H76      1.0000 0.30210  0.03260  0.63570  Biso   1.000  H
  C119     1.0000 0.23180  0.03290  0.61640  Biso   1.000  C
  H77      1.0000 0.23850  0.03070  0.58150  Biso   1.000  H
  C120     1.0000 0.17140  0.03540  0.68580  Biso   1.000  C
  H78      1.0000 0.13830  0.03670  0.69890  Biso   1.000  H
  N25      1.0000 0.27860  0.02630  0.78960  Biso   1.000  N
  N26      1.0000 0.20990  0.03250  0.71750  Biso   1.000  N
  Co13     1.0000 0.19916  0.03187  0.79983  Biso   1.000  Co
  Cl25     1.0000 0.11320  0.98380  0.79490  Biso   1.000  Cl
  Cl26     1.0000 0.20780  0.96980  0.87810  Biso   1.000  Cl
  Co14     1.0000 0.20050  0.99750  0.79575  Biso   1.000  Co
  C121     1.0000 0.34840  0.04210  0.73280  Biso   1.000  C
  H79      1.0000 0.35890  0.05520  0.70130  Biso   1.000  H
  C122     1.0000 0.38210  0.03640  0.77320  Biso   1.000  C
  H80      1.0000 0.41600  0.04720  0.77000  Biso   1.000  H
  C123     1.0000 0.31530  0.99700  0.82260  Biso   1.000  C
  H81      1.0000 0.30520  0.97940  0.85190  Biso   1.000  H
  C124     1.0000 0.26500  0.05430  0.65420  Biso   1.000  C
  H82      1.0000 0.29610  0.07000  0.64660  Biso   1.000  H
  C125     1.0000 0.22550  0.05280  0.61730  Biso   1.000  C
  H83      1.0000 0.23120  0.06240  0.58340  Biso   1.000  H
  C126     1.0000 0.17070  0.01860  0.68380  Biso   1.000  C
  H84      1.0000 0.13800  0.00770  0.69300  Biso   1.000  H
  N27      1.0000 0.28140  0.00450  0.78620  Biso   1.000  N
  N28      1.0000 0.20990  0.01580  0.72150  Biso   1.000  N
  O42      1.0000 0.53790  0.05140  0.97360  Biso   1.000  O
  Cl27     1.0000 0.14890  0.95860  0.79030  Biso   1.000  Cl
  Cl28     1.0000 0.19910  0.03760  0.88670  Biso   1.000  Cl
  Zr8      1.0000 0.01313  0.48470  0.09241  Biso   1.000  Zr
  O43      1.0000 0.05050  0.43170  0.03560  Biso   1.000  O
  C127     1.0000 0.86473  0.48600  0.18043  Biso   1.000  C
  C128     1.0000 0.89961  0.49375  0.13648  Biso   1.000  C
  O44      1.0000 0.87834  0.50641  0.09449  Biso   1.000  O
  O45      1.0000 0.94708  0.48735  0.14503  Biso   1.000  O
  C129     1.0000 0.67820  0.46350  0.36620  Biso   1.000  C
  C130     1.0000 0.63410  0.46720  0.40154  Biso   1.000  C
  O46      1.0000 0.59023  0.46810  0.37959  Biso   1.000  O
  O47      1.0000 0.64334  0.46915  0.44884  Biso   1.000  O
  C131     1.0000 0.79670  0.47310  0.25840  Biso   1.000  C
  C132     1.0000 0.75730  0.46750  0.29850  Biso   1.000  C
  C133     1.0000 0.84950  0.48760  0.27190  Biso   1.000  C
  H85      1.0000 0.85930  0.49690  0.30490  Biso   1.000  H
  C134     1.0000 0.88360  0.48590  0.23010  Biso   1.000  C
  H86      1.0000 0.91880  0.48480  0.23580  Biso   1.000  H
  C135     1.0000 0.81050  0.48500  0.17150  Biso   1.000  C
  H87      1.0000 0.79750  0.49210  0.13900  Biso   1.000  H
  C136     1.0000 0.76840  0.46730  0.35260  Biso   1.000  C
  H88      1.0000 0.80210  0.46740  0.36430  Biso   1.000  H
  C137     1.0000 0.73180  0.46710  0.38360  Biso   1.000  C
  H89      1.0000 0.73850  0.46930  0.41850  Biso   1.000  H
  C138     1.0000 0.67140  0.46460  0.31420  Biso   1.000  C
  H90      1.0000 0.63830  0.46330  0.30110  Biso   1.000  H
  N29      1.0000 0.77860  0.47370  0.21040  Biso   1.000  N
  N30      1.0000 0.70990  0.46750  0.28250  Biso   1.000  N
  Co15     1.0000 0.69916  0.46813  0.20017  Biso   1.000  Co
  Cl29     1.0000 0.61320  0.51620  0.20510  Biso   1.000  Cl
  Cl30     1.0000 0.70780  0.53020  0.12190  Biso   1.000  Cl
  Co16     1.0000 0.70050  0.50250  0.20425  Biso   1.000  Co
  C139     1.0000 0.84840  0.45790  0.26720  Biso   1.000  C
  H91      1.0000 0.85890  0.44480  0.29870  Biso   1.000  H
  C140     1.0000 0.88210  0.46360  0.22680  Biso   1.000  C
  H92      1.0000 0.91600  0.45280  0.23000  Biso   1.000  H
  C141     1.0000 0.81530  0.50300  0.17740  Biso   1.000  C
  H93      1.0000 0.80520  0.52060  0.14810  Biso   1.000  H
  C142     1.0000 0.76500  0.44570  0.34580  Biso   1.000  C
  H94      1.0000 0.79610  0.43000  0.35340  Biso   1.000  H
  C143     1.0000 0.72550  0.44720  0.38270  Biso   1.000  C
  H95      1.0000 0.73120  0.43760  0.41660  Biso   1.000  H
  C144     1.0000 0.67070  0.48140  0.31620  Biso   1.000  C
  H96      1.0000 0.63800  0.49230  0.30700  Biso   1.000  H
  N31      1.0000 0.78140  0.49550  0.21380  Biso   1.000  N
  N32      1.0000 0.70990  0.48420  0.27850  Biso   1.000  N
  O48      1.0000 0.03790  0.44860  0.02640  Biso   1.000  O
  Cl31     1.0000 0.64890  0.54140  0.20970  Biso   1.000  Cl
  Cl32     1.0000 0.69910  0.46240  0.11330  Biso   1.000  Cl
  Zr9      1.0000 0.40759  0.98687  0.98470  Biso   1.000  Zr
  O49      1.0000 0.46440  0.94950  0.93170  Biso   1.000  O
  C145     1.0000 0.31957  0.13527  0.98600  Biso   1.000  C
  C146     1.0000 0.36352  0.10039  0.99375  Biso   1.000  C
  O50      1.0000 0.40551  0.12166  0.00641  Biso   1.000  O
  O51      1.0000 0.35497  0.05292  0.98735  Biso   1.000  O
  C147     1.0000 0.13380  0.32180  0.96350  Biso   1.000  C
  C148     1.0000 0.09846  0.36590  0.96720  Biso   1.000  C
  O52      1.0000 0.12041  0.40977  0.96810  Biso   1.000  O
  O53      1.0000 0.05116  0.35666  0.96915  Biso   1.000  O
  C149     1.0000 0.24160  0.20330  0.97310  Biso   1.000  C
  C150     1.0000 0.20150  0.24270  0.96750  Biso   1.000  C
  C151     1.0000 0.22810  0.15050  0.98760  Biso   1.000  C
  H97      1.0000 0.19510  0.14070  0.99690  Biso   1.000  H
  C152     1.0000 0.26990  0.11640  0.98590  Biso   1.000  C
  H98      1.0000 0.26420  0.08120  0.98480  Biso   1.000  H
  C153     1.0000 0.32850  0.18950  0.98500  Biso   1.000  C
  H99      1.0000 0.36100  0.20250  0.99210  Biso   1.000  H
  C154     1.0000 0.14740  0.23160  0.96730  Biso   1.000  C
  H100     1.0000 0.13570  0.19790  0.96740  Biso   1.000  H
  C155     1.0000 0.11640  0.26820  0.96710  Biso   1.000  C
  H101     1.0000 0.08150  0.26150  0.96930  Biso   1.000  H
  C156     1.0000 0.18580  0.32860  0.96460  Biso   1.000  C
  H102     1.0000 0.19890  0.36170  0.96330  Biso   1.000  H
  N33      1.0000 0.28960  0.22140  0.97370  Biso   1.000  N
  N34      1.0000 0.21750  0.29010  0.96750  Biso   1.000  N
  Co17     1.0000 0.29983  0.30084  0.96813  Biso   1.000  Co
  Cl33     1.0000 0.29490  0.38680  0.01620  Biso   1.000  Cl
  Cl34     1.0000 0.37810  0.29220  0.03020  Biso   1.000  Cl
  Co18     1.0000 0.29575  0.29950  0.00250  Biso   1.000  Co
  C157     1.0000 0.23280  0.15160  0.95790  Biso   1.000  C
  H103     1.0000 0.20130  0.14110  0.94480  Biso   1.000  H
  C158     1.0000 0.27320  0.11790  0.96360  Biso   1.000  C
  H104     1.0000 0.27000  0.08400  0.95280  Biso   1.000  H
  C159     1.0000 0.32260  0.18470  0.00300  Biso   1.000  C
  H105     1.0000 0.35190  0.19480  0.02060  Biso   1.000  H
  C160     1.0000 0.15420  0.23500  0.94570  Biso   1.000  C
  H106     1.0000 0.14660  0.20390  0.93000  Biso   1.000  H
  C161     1.0000 0.11730  0.27450  0.94720  Biso   1.000  C
  H107     1.0000 0.08340  0.26880  0.93760  Biso   1.000  H
  C162     1.0000 0.18380  0.32930  0.98140  Biso   1.000  C
  H108     1.0000 0.19300  0.36200  0.99230  Biso   1.000  H
  N35      1.0000 0.28620  0.21860  0.99550  Biso   1.000  N
  N36      1.0000 0.22150  0.29010  0.98420  Biso   1.000  N
  O54      1.0000 0.47360  0.96210  0.94860  Biso   1.000  O
  Cl35     1.0000 0.29030  0.35110  0.04140  Biso   1.000  Cl
  Cl36     1.0000 0.38670  0.30090  0.96240  Biso   1.000  Cl
  Zr10     1.0000 0.59241  0.48687  0.51530  Biso   1.000  Zr
  O55      1.0000 0.53560  0.44950  0.56830  Biso   1.000  O
  C163     1.0000 0.68043  0.63527  0.51400  Biso   1.000  C
  C164     1.0000 0.63648  0.60039  0.50625  Biso   1.000  C
  O56      1.0000 0.59449  0.62166  0.49359  Biso   1.000  O
  O57      1.0000 0.64503  0.55292  0.51265  Biso   1.000  O
  C165     1.0000 0.86620  0.82180  0.53650  Biso   1.000  C
  C166     1.0000 0.90154  0.86590  0.53280  Biso   1.000  C
  O58      1.0000 0.87959  0.90977  0.53190  Biso   1.000  O
  O59      1.0000 0.94884  0.85666  0.53085  Biso   1.000  O
  C167     1.0000 0.75840  0.70330  0.52690  Biso   1.000  C
  C168     1.0000 0.79850  0.74270  0.53250  Biso   1.000  C
  C169     1.0000 0.77190  0.65050  0.51240  Biso   1.000  C
  H109     1.0000 0.80490  0.64070  0.50310  Biso   1.000  H
  C170     1.0000 0.73010  0.61640  0.51410  Biso   1.000  C
  H110     1.0000 0.73580  0.58120  0.51520  Biso   1.000  H
  C171     1.0000 0.67150  0.68950  0.51500  Biso   1.000  C
  H111     1.0000 0.63900  0.70250  0.50790  Biso   1.000  H
  C172     1.0000 0.85260  0.73160  0.53270  Biso   1.000  C
  H112     1.0000 0.86430  0.69790  0.53260  Biso   1.000  H
  C173     1.0000 0.88360  0.76820  0.53290  Biso   1.000  C
  H113     1.0000 0.91850  0.76150  0.53070  Biso   1.000  H
  C174     1.0000 0.81420  0.82860  0.53540  Biso   1.000  C
  H114     1.0000 0.80110  0.86170  0.53670  Biso   1.000  H
  N37      1.0000 0.71040  0.72140  0.52630  Biso   1.000  N
  N38      1.0000 0.78250  0.79010  0.53250  Biso   1.000  N
  Co19     1.0000 0.70017  0.80084  0.53187  Biso   1.000  Co
  Cl37     1.0000 0.70510  0.88680  0.48380  Biso   1.000  Cl
  Cl38     1.0000 0.62190  0.79220  0.46980  Biso   1.000  Cl
  Co20     1.0000 0.70425  0.79950  0.49750  Biso   1.000  Co
  C175     1.0000 0.76720  0.65160  0.54210  Biso   1.000  C
  H115     1.0000 0.79870  0.64110  0.55520  Biso   1.000  H
  C176     1.0000 0.72680  0.61790  0.53640  Biso   1.000  C
  H116     1.0000 0.73000  0.58400  0.54720  Biso   1.000  H
  C177     1.0000 0.67740  0.68470  0.49700  Biso   1.000  C
  H117     1.0000 0.64810  0.69480  0.47940  Biso   1.000  H
  C178     1.0000 0.84580  0.73500  0.55430  Biso   1.000  C
  H118     1.0000 0.85340  0.70390  0.57000  Biso   1.000  H
  C179     1.0000 0.88270  0.77450  0.55280  Biso   1.000  C
  H119     1.0000 0.91660  0.76880  0.56240  Biso   1.000  H
  C180     1.0000 0.81620  0.82930  0.51860  Biso   1.000  C
  H120     1.0000 0.80700  0.86200  0.50770  Biso   1.000  H
  N39      1.0000 0.71380  0.71860  0.50450  Biso   1.000  N
  N40      1.0000 0.77850  0.79010  0.51580  Biso   1.000  N
  O60      1.0000 0.52640  0.46210  0.55140  Biso   1.000  O
  Cl39     1.0000 0.70970  0.85110  0.45860  Biso   1.000  Cl
  Cl40     1.0000 0.61330  0.80090  0.53760  Biso   1.000  Cl
  Zr11     1.0000 0.90759  0.51313  0.01530  Biso   1.000  Zr
  O61      1.0000 0.96440  0.55050  0.06830  Biso   1.000  O
  C181     1.0000 0.81957  0.36473  0.01400  Biso   1.000  C
  C182     1.0000 0.86352  0.39961  0.00625  Biso   1.000  C
  O62      1.0000 0.90551  0.37834  0.99359  Biso   1.000  O
  O63      1.0000 0.85497  0.44708  0.01265  Biso   1.000  O
  C183     1.0000 0.63380  0.17820  0.03650  Biso   1.000  C
  C184     1.0000 0.59846  0.13410  0.03280  Biso   1.000  C
  O64      1.0000 0.62041  0.09023  0.03190  Biso   1.000  O
  O65      1.0000 0.55116  0.14334  0.03085  Biso   1.000  O
  C185     1.0000 0.74160  0.29670  0.02690  Biso   1.000  C
  C186     1.0000 0.70150  0.25730  0.03250  Biso   1.000  C
  C187     1.0000 0.72810  0.34950  0.01240  Biso   1.000  C
  H121     1.0000 0.69510  0.35930  0.00310  Biso   1.000  H
  C188     1.0000 0.76990  0.38360  0.01410  Biso   1.000  C
  H122     1.0000 0.76420  0.41880  0.01520  Biso   1.000  H
  C189     1.0000 0.82850  0.31050  0.01500  Biso   1.000  C
  H123     1.0000 0.86100  0.29750  0.00790  Biso   1.000  H
  C190     1.0000 0.64740  0.26840  0.03270  Biso   1.000  C
  H124     1.0000 0.63570  0.30210  0.03260  Biso   1.000  H
  C191     1.0000 0.61640  0.23180  0.03290  Biso   1.000  C
  H125     1.0000 0.58150  0.23850  0.03070  Biso   1.000  H
  C192     1.0000 0.68580  0.17140  0.03540  Biso   1.000  C
  H126     1.0000 0.69890  0.13830  0.03670  Biso   1.000  H
  N41      1.0000 0.78960  0.27860  0.02630  Biso   1.000  N
  N42      1.0000 0.71750  0.20990  0.03250  Biso   1.000  N
  Co21     1.0000 0.79983  0.19916  0.03187  Biso   1.000  Co
  Cl41     1.0000 0.79490  0.11320  0.98380  Biso   1.000  Cl
  Cl42     1.0000 0.87810  0.20780  0.96980  Biso   1.000  Cl
  Co22     1.0000 0.79575  0.20050  0.99750  Biso   1.000  Co
  C193     1.0000 0.73280  0.34840  0.04210  Biso   1.000  C
  H127     1.0000 0.70130  0.35890  0.05520  Biso   1.000  H
  C194     1.0000 0.77320  0.38210  0.03640  Biso   1.000  C
  H128     1.0000 0.77000  0.41600  0.04720  Biso   1.000  H
  C195     1.0000 0.82260  0.31530  0.99700  Biso   1.000  C
  H129     1.0000 0.85190  0.30520  0.97940  Biso   1.000  H
  C196     1.0000 0.65420  0.26500  0.05430  Biso   1.000  C
  H130     1.0000 0.64660  0.29610  0.07000  Biso   1.000  H
  C197     1.0000 0.61730  0.22550  0.05280  Biso   1.000  C
  H131     1.0000 0.58340  0.23120  0.06240  Biso   1.000  H
  C198     1.0000 0.68380  0.17070  0.01860  Biso   1.000  C
  H132     1.0000 0.69300  0.13800  0.00770  Biso   1.000  H
  N43      1.0000 0.78620  0.28140  0.00450  Biso   1.000  N
  N44      1.0000 0.72150  0.20990  0.01580  Biso   1.000  N
  O66      1.0000 0.97360  0.53790  0.05140  Biso   1.000  O
  Cl43     1.0000 0.79030  0.14890  0.95860  Biso   1.000  Cl
  Cl44     1.0000 0.88670  0.19910  0.03760  Biso   1.000  Cl
  Zr12     1.0000 0.09241  0.01313  0.48470  Biso   1.000  Zr
  O67      1.0000 0.03560  0.05050  0.43170  Biso   1.000  O
  C199     1.0000 0.18043  0.86473  0.48600  Biso   1.000  C
  C200     1.0000 0.13648  0.89961  0.49375  Biso   1.000  C
  O68      1.0000 0.09449  0.87834  0.50641  Biso   1.000  O
  O69      1.0000 0.14503  0.94708  0.48735  Biso   1.000  O
  C201     1.0000 0.36620  0.67820  0.46350  Biso   1.000  C
  C202     1.0000 0.40154  0.63410  0.46720  Biso   1.000  C
  O70      1.0000 0.37959  0.59023  0.46810  Biso   1.000  O
  O71      1.0000 0.44884  0.64334  0.46915  Biso   1.000  O
  C203     1.0000 0.25840  0.79670  0.47310  Biso   1.000  C
  C204     1.0000 0.29850  0.75730  0.46750  Biso   1.000  C
  C205     1.0000 0.27190  0.84950  0.48760  Biso   1.000  C
  H133     1.0000 0.30490  0.85930  0.49690  Biso   1.000  H
  C206     1.0000 0.23010  0.88360  0.48590  Biso   1.000  C
  H134     1.0000 0.23580  0.91880  0.48480  Biso   1.000  H
  C207     1.0000 0.17150  0.81050  0.48500  Biso   1.000  C
  H135     1.0000 0.13900  0.79750  0.49210  Biso   1.000  H
  C208     1.0000 0.35260  0.76840  0.46730  Biso   1.000  C
  H136     1.0000 0.36430  0.80210  0.46740  Biso   1.000  H
  C209     1.0000 0.38360  0.73180  0.46710  Biso   1.000  C
  H137     1.0000 0.41850  0.73850  0.46930  Biso   1.000  H
  C210     1.0000 0.31420  0.67140  0.46460  Biso   1.000  C
  H138     1.0000 0.30110  0.63830  0.46330  Biso   1.000  H
  N45      1.0000 0.21040  0.77860  0.47370  Biso   1.000  N
  N46      1.0000 0.28250  0.70990  0.46750  Biso   1.000  N
  Co23     1.0000 0.20017  0.69916  0.46813  Biso   1.000  Co
  Cl45     1.0000 0.20510  0.61320  0.51620  Biso   1.000  Cl
  Cl46     1.0000 0.12190  0.70780  0.53020  Biso   1.000  Cl
  Co24     1.0000 0.20425  0.70050  0.50250  Biso   1.000  Co
  C211     1.0000 0.26720  0.84840  0.45790  Biso   1.000  C
  H139     1.0000 0.29870  0.85890  0.44480  Biso   1.000  H
  C212     1.0000 0.22680  0.88210  0.46360  Biso   1.000  C
  H140     1.0000 0.23000  0.91600  0.45280  Biso   1.000  H
  C213     1.0000 0.17740  0.81530  0.50300  Biso   1.000  C
  H141     1.0000 0.14810  0.80520  0.52060  Biso   1.000  H
  C214     1.0000 0.34580  0.76500  0.44570  Biso   1.000  C
  H142     1.0000 0.35340  0.79610  0.43000  Biso   1.000  H
  C215     1.0000 0.38270  0.72550  0.44720  Biso   1.000  C
  H143     1.0000 0.41660  0.73120  0.43760  Biso   1.000  H
  C216     1.0000 0.31620  0.67070  0.48140  Biso   1.000  C
  H144     1.0000 0.30700  0.63800  0.49230  Biso   1.000  H
  N47      1.0000 0.21380  0.78140  0.49550  Biso   1.000  N
  N48      1.0000 0.27850  0.70990  0.48420  Biso   1.000  N
  O72      1.0000 0.02640  0.03790  0.44860  Biso   1.000  O
  Cl47     1.0000 0.20970  0.64890  0.54140  Biso   1.000  Cl
  Cl48     1.0000 0.11330  0.69910  0.46240  Biso   1.000  Cl
  Zr13     1.0000 0.01530  0.59241  0.01313  Biso   1.000  Zr
  O73      1.0000 0.06830  0.53560  0.05050  Biso   1.000  O
  C217     1.0000 0.01400  0.68043  0.86473  Biso   1.000  C
  C218     1.0000 0.00625  0.63648  0.89961  Biso   1.000  C
  O74      1.0000 0.99359  0.59449  0.87834  Biso   1.000  O
  O75      1.0000 0.01265  0.64503  0.94708  Biso   1.000  O
  C219     1.0000 0.03650  0.86620  0.67820  Biso   1.000  C
  C220     1.0000 0.03280  0.90154  0.63410  Biso   1.000  C
  O76      1.0000 0.03190  0.87959  0.59023  Biso   1.000  O
  O77      1.0000 0.03085  0.94884  0.64334  Biso   1.000  O
  C221     1.0000 0.02690  0.75840  0.79670  Biso   1.000  C
  C222     1.0000 0.03250  0.79850  0.75730  Biso   1.000  C
  C223     1.0000 0.01240  0.77190  0.84950  Biso   1.000  C
  H145     1.0000 0.00310  0.80490  0.85930  Biso   1.000  H
  C224     1.0000 0.01410  0.73010  0.88360  Biso   1.000  C
  H146     1.0000 0.01520  0.73580  0.91880  Biso   1.000  H
  C225     1.0000 0.01500  0.67150  0.81050  Biso   1.000  C
  H147     1.0000 0.00790  0.63900  0.79750  Biso   1.000  H
  C226     1.0000 0.03270  0.85260  0.76840  Biso   1.000  C
  H148     1.0000 0.03260  0.86430  0.80210  Biso   1.000  H
  C227     1.0000 0.03290  0.88360  0.73180  Biso   1.000  C
  H149     1.0000 0.03070  0.91850  0.73850  Biso   1.000  H
  C228     1.0000 0.03540  0.81420  0.67140  Biso   1.000  C
  H150     1.0000 0.03670  0.80110  0.63830  Biso   1.000  H
  N49      1.0000 0.02630  0.71040  0.77860  Biso   1.000  N
  N50      1.0000 0.03250  0.78250  0.70990  Biso   1.000  N
  Co25     1.0000 0.03187  0.70017  0.69916  Biso   1.000  Co
  Cl49     1.0000 0.98380  0.70510  0.61320  Biso   1.000  Cl
  Cl50     1.0000 0.96980  0.62190  0.70780  Biso   1.000  Cl
  Co26     1.0000 0.99750  0.70425  0.70050  Biso   1.000  Co
  C229     1.0000 0.04210  0.76720  0.84840  Biso   1.000  C
  H151     1.0000 0.05520  0.79870  0.85890  Biso   1.000  H
  C230     1.0000 0.03640  0.72680  0.88210  Biso   1.000  C
  H152     1.0000 0.04720  0.73000  0.91600  Biso   1.000  H
  C231     1.0000 0.99700  0.67740  0.81530  Biso   1.000  C
  H153     1.0000 0.97940  0.64810  0.80520  Biso   1.000  H
  C232     1.0000 0.05430  0.84580  0.76500  Biso   1.000  C
  H154     1.0000 0.07000  0.85340  0.79610  Biso   1.000  H
  C233     1.0000 0.05280  0.88270  0.72550  Biso   1.000  C
  H155     1.0000 0.06240  0.91660  0.73120  Biso   1.000  H
  C234     1.0000 0.01860  0.81620  0.67070  Biso   1.000  C
  H156     1.0000 0.00770  0.80700  0.63800  Biso   1.000  H
  N51      1.0000 0.00450  0.71380  0.78140  Biso   1.000  N
  N52      1.0000 0.01580  0.77850  0.70990  Biso   1.000  N
  O78      1.0000 0.05140  0.52640  0.03790  Biso   1.000  O
  Cl51     1.0000 0.95860  0.70970  0.64890  Biso   1.000  Cl
  Cl52     1.0000 0.03760  0.61330  0.69910  Biso   1.000  Cl
  Zr14     1.0000 0.48470  0.40759  0.51313  Biso   1.000  Zr
  O79      1.0000 0.43170  0.46440  0.55050  Biso   1.000  O
  C235     1.0000 0.48600  0.31957  0.36473  Biso   1.000  C
  C236     1.0000 0.49375  0.36352  0.39961  Biso   1.000  C
  O80      1.0000 0.50641  0.40551  0.37834  Biso   1.000  O
  O81      1.0000 0.48735  0.35497  0.44708  Biso   1.000  O
  C237     1.0000 0.46350  0.13380  0.17820  Biso   1.000  C
  C238     1.0000 0.46720  0.09846  0.13410  Biso   1.000  C
  O82      1.0000 0.46810  0.12041  0.09023  Biso   1.000  O
  O83      1.0000 0.46915  0.05116  0.14334  Biso   1.000  O
  C239     1.0000 0.47310  0.24160  0.29670  Biso   1.000  C
  C240     1.0000 0.46750  0.20150  0.25730  Biso   1.000  C
  C241     1.0000 0.48760  0.22810  0.34950  Biso   1.000  C
  H157     1.0000 0.49690  0.19510  0.35930  Biso   1.000  H
  C242     1.0000 0.48590  0.26990  0.38360  Biso   1.000  C
  H158     1.0000 0.48480  0.26420  0.41880  Biso   1.000  H
  C243     1.0000 0.48500  0.32850  0.31050  Biso   1.000  C
  H159     1.0000 0.49210  0.36100  0.29750  Biso   1.000  H
  C244     1.0000 0.46730  0.14740  0.26840  Biso   1.000  C
  H160     1.0000 0.46740  0.13570  0.30210  Biso   1.000  H
  C245     1.0000 0.46710  0.11640  0.23180  Biso   1.000  C
  H161     1.0000 0.46930  0.08150  0.23850  Biso   1.000  H
  C246     1.0000 0.46460  0.18580  0.17140  Biso   1.000  C
  H162     1.0000 0.46330  0.19890  0.13830  Biso   1.000  H
  N53      1.0000 0.47370  0.28960  0.27860  Biso   1.000  N
  N54      1.0000 0.46750  0.21750  0.20990  Biso   1.000  N
  Co27     1.0000 0.46813  0.29983  0.19916  Biso   1.000  Co
  Cl53     1.0000 0.51620  0.29490  0.11320  Biso   1.000  Cl
  Cl54     1.0000 0.53020  0.37810  0.20780  Biso   1.000  Cl
  Co28     1.0000 0.50250  0.29575  0.20050  Biso   1.000  Co
  C247     1.0000 0.45790  0.23280  0.34840  Biso   1.000  C
  H163     1.0000 0.44480  0.20130  0.35890  Biso   1.000  H
  C248     1.0000 0.46360  0.27320  0.38210  Biso   1.000  C
  H164     1.0000 0.45280  0.27000  0.41600  Biso   1.000  H
  C249     1.0000 0.50300  0.32260  0.31530  Biso   1.000  C
  H165     1.0000 0.52060  0.35190  0.30520  Biso   1.000  H
  C250     1.0000 0.44570  0.15420  0.26500  Biso   1.000  C
  H166     1.0000 0.43000  0.14660  0.29610  Biso   1.000  H
  C251     1.0000 0.44720  0.11730  0.22550  Biso   1.000  C
  H167     1.0000 0.43760  0.08340  0.23120  Biso   1.000  H
  C252     1.0000 0.48140  0.18380  0.17070  Biso   1.000  C
  H168     1.0000 0.49230  0.19300  0.13800  Biso   1.000  H
  N55      1.0000 0.49550  0.28620  0.28140  Biso   1.000  N
  N56      1.0000 0.48420  0.22150  0.20990  Biso   1.000  N
  O84      1.0000 0.44860  0.47360  0.53790  Biso   1.000  O
  Cl55     1.0000 0.54140  0.29030  0.14890  Biso   1.000  Cl
  Cl56     1.0000 0.46240  0.38670  0.19910  Biso   1.000  Cl
  Zr15     1.0000 0.98470  0.09241  0.48687  Biso   1.000  Zr
  O85      1.0000 0.93170  0.03560  0.44950  Biso   1.000  O
  C253     1.0000 0.98600  0.18043  0.63527  Biso   1.000  C
  C254     1.0000 0.99375  0.13648  0.60039  Biso   1.000  C
  O86      1.0000 0.00641  0.09449  0.62166  Biso   1.000  O
  O87      1.0000 0.98735  0.14503  0.55292  Biso   1.000  O
  C255     1.0000 0.96350  0.36620  0.82180  Biso   1.000  C
  C256     1.0000 0.96720  0.40154  0.86590  Biso   1.000  C
  O88      1.0000 0.96810  0.37959  0.90977  Biso   1.000  O
  O89      1.0000 0.96915  0.44884  0.85666  Biso   1.000  O
  C257     1.0000 0.97310  0.25840  0.70330  Biso   1.000  C
  C258     1.0000 0.96750  0.29850  0.74270  Biso   1.000  C
  C259     1.0000 0.98760  0.27190  0.65050  Biso   1.000  C
  H169     1.0000 0.99690  0.30490  0.64070  Biso   1.000  H
  C260     1.0000 0.98590  0.23010  0.61640  Biso   1.000  C
  H170     1.0000 0.98480  0.23580  0.58120  Biso   1.000  H
  C261     1.0000 0.98500  0.17150  0.68950  Biso   1.000  C
  H171     1.0000 0.99210  0.13900  0.70250  Biso   1.000  H
  C262     1.0000 0.96730  0.35260  0.73160  Biso   1.000  C
  H172     1.0000 0.96740  0.36430  0.69790  Biso   1.000  H
  C263     1.0000 0.96710  0.38360  0.76820  Biso   1.000  C
  H173     1.0000 0.96930  0.41850  0.76150  Biso   1.000  H
  C264     1.0000 0.96460  0.31420  0.82860  Biso   1.000  C
  H174     1.0000 0.96330  0.30110  0.86170  Biso   1.000  H
  N57      1.0000 0.97370  0.21040  0.72140  Biso   1.000  N
  N58      1.0000 0.96750  0.28250  0.79010  Biso   1.000  N
  Co29     1.0000 0.96813  0.20017  0.80084  Biso   1.000  Co
  Cl57     1.0000 0.01620  0.20510  0.88680  Biso   1.000  Cl
  Cl58     1.0000 0.03020  0.12190  0.79220  Biso   1.000  Cl
  Co30     1.0000 0.00250  0.20425  0.79950  Biso   1.000  Co
  C265     1.0000 0.95790  0.26720  0.65160  Biso   1.000  C
  H175     1.0000 0.94480  0.29870  0.64110  Biso   1.000  H
  C266     1.0000 0.96360  0.22680  0.61790  Biso   1.000  C
  H176     1.0000 0.95280  0.23000  0.58400  Biso   1.000  H
  C267     1.0000 0.00300  0.17740  0.68470  Biso   1.000  C
  H177     1.0000 0.02060  0.14810  0.69480  Biso   1.000  H
  C268     1.0000 0.94570  0.34580  0.73500  Biso   1.000  C
  H178     1.0000 0.93000  0.35340  0.70390  Biso   1.000  H
  C269     1.0000 0.94720  0.38270  0.77450  Biso   1.000  C
  H179     1.0000 0.93760  0.41660  0.76880  Biso   1.000  H
  C270     1.0000 0.98140  0.31620  0.82930  Biso   1.000  C
  H180     1.0000 0.99230  0.30700  0.86200  Biso   1.000  H
  N59      1.0000 0.99550  0.21380  0.71860  Biso   1.000  N
  N60      1.0000 0.98420  0.27850  0.79010  Biso   1.000  N
  O90      1.0000 0.94860  0.02640  0.46210  Biso   1.000  O
  Cl59     1.0000 0.04140  0.20970  0.85110  Biso   1.000  Cl
  Cl60     1.0000 0.96240  0.11330  0.80090  Biso   1.000  Cl
  Zr16     1.0000 0.51530  0.90759  0.98687  Biso   1.000  Zr
  O91      1.0000 0.56830  0.96440  0.94950  Biso   1.000  O
  C271     1.0000 0.51400  0.81957  0.13527  Biso   1.000  C
  C272     1.0000 0.50625  0.86352  0.10039  Biso   1.000  C
  O92      1.0000 0.49359  0.90551  0.12166  Biso   1.000  O
  O93      1.0000 0.51265  0.85497  0.05292  Biso   1.000  O
  C273     1.0000 0.53650  0.63380  0.32180  Biso   1.000  C
  C274     1.0000 0.53280  0.59846  0.36590  Biso   1.000  C
  O94      1.0000 0.53190  0.62041  0.40977  Biso   1.000  O
  O95      1.0000 0.53085  0.55116  0.35666  Biso   1.000  O
  C275     1.0000 0.52690  0.74160  0.20330  Biso   1.000  C
  C276     1.0000 0.53250  0.70150  0.24270  Biso   1.000  C
  C277     1.0000 0.51240  0.72810  0.15050  Biso   1.000  C
  H181     1.0000 0.50310  0.69510  0.14070  Biso   1.000  H
  C278     1.0000 0.51410  0.76990  0.11640  Biso   1.000  C
  H182     1.0000 0.51520  0.76420  0.08120  Biso   1.000  H
  C279     1.0000 0.51500  0.82850  0.18950  Biso   1.000  C
  H183     1.0000 0.50790  0.86100  0.20250  Biso   1.000  H
  C280     1.0000 0.53270  0.64740  0.23160  Biso   1.000  C
  H184     1.0000 0.53260  0.63570  0.19790  Biso   1.000  H
  C281     1.0000 0.53290  0.61640  0.26820  Biso   1.000  C
  H185     1.0000 0.53070  0.58150  0.26150  Biso   1.000  H
  C282     1.0000 0.53540  0.68580  0.32860  Biso   1.000  C
  H186     1.0000 0.53670  0.69890  0.36170  Biso   1.000  H
  N61      1.0000 0.52630  0.78960  0.22140  Biso   1.000  N
  N62      1.0000 0.53250  0.71750  0.29010  Biso   1.000  N
  Co31     1.0000 0.53187  0.79983  0.30084  Biso   1.000  Co
  Cl61     1.0000 0.48380  0.79490  0.38680  Biso   1.000  Cl
  Cl62     1.0000 0.46980  0.87810  0.29220  Biso   1.000  Cl
  Co32     1.0000 0.49750  0.79575  0.29950  Biso   1.000  Co
  C283     1.0000 0.54210  0.73280  0.15160  Biso   1.000  C
  H187     1.0000 0.55520  0.70130  0.14110  Biso   1.000  H
  C284     1.0000 0.53640  0.77320  0.11790  Biso   1.000  C
  H188     1.0000 0.54720  0.77000  0.08400  Biso   1.000  H
  C285     1.0000 0.49700  0.82260  0.18470  Biso   1.000  C
  H189     1.0000 0.47940  0.85190  0.19480  Biso   1.000  H
  C286     1.0000 0.55430  0.65420  0.23500  Biso   1.000  C
  H190     1.0000 0.57000  0.64660  0.20390  Biso   1.000  H
  C287     1.0000 0.55280  0.61730  0.27450  Biso   1.000  C
  H191     1.0000 0.56240  0.58340  0.26880  Biso   1.000  H
  C288     1.0000 0.51860  0.68380  0.32930  Biso   1.000  C
  H192     1.0000 0.50770  0.69300  0.36200  Biso   1.000  H
  N63      1.0000 0.50450  0.78620  0.21860  Biso   1.000  N
  N64      1.0000 0.51580  0.72150  0.29010  Biso   1.000  N
  O96      1.0000 0.55140  0.97360  0.96210  Biso   1.000  O
  Cl63     1.0000 0.45860  0.79030  0.35110  Biso   1.000  Cl
  Cl64     1.0000 0.53760  0.88670  0.30090  Biso   1.000  Cl
  Zr17     1.0000 0.01313  0.01530  0.59241  Biso   1.000  Zr
  O97      1.0000 0.05050  0.06830  0.53560  Biso   1.000  O
  C289     1.0000 0.86473  0.01400  0.68043  Biso   1.000  C
  C290     1.0000 0.89961  0.00625  0.63648  Biso   1.000  C
  O98      1.0000 0.87834  0.99359  0.59449  Biso   1.000  O
  O99      1.0000 0.94708  0.01265  0.64503  Biso   1.000  O
  C291     1.0000 0.67820  0.03650  0.86620  Biso   1.000  C
  C292     1.0000 0.63410  0.03280  0.90154  Biso   1.000  C
  O100     1.0000 0.59023  0.03190  0.87959  Biso   1.000  O
  O101     1.0000 0.64334  0.03085  0.94884  Biso   1.000  O
  C293     1.0000 0.79670  0.02690  0.75840  Biso   1.000  C
  C294     1.0000 0.75730  0.03250  0.79850  Biso   1.000  C
  C295     1.0000 0.84950  0.01240  0.77190  Biso   1.000  C
  H193     1.0000 0.85930  0.00310  0.80490  Biso   1.000  H
  C296     1.0000 0.88360  0.01410  0.73010  Biso   1.000  C
  H194     1.0000 0.91880  0.01520  0.73580  Biso   1.000  H
  C297     1.0000 0.81050  0.01500  0.67150  Biso   1.000  C
  H195     1.0000 0.79750  0.00790  0.63900  Biso   1.000  H
  C298     1.0000 0.76840  0.03270  0.85260  Biso   1.000  C
  H196     1.0000 0.80210  0.03260  0.86430  Biso   1.000  H
  C299     1.0000 0.73180  0.03290  0.88360  Biso   1.000  C
  H197     1.0000 0.73850  0.03070  0.91850  Biso   1.000  H
  C300     1.0000 0.67140  0.03540  0.81420  Biso   1.000  C
  H198     1.0000 0.63830  0.03670  0.80110  Biso   1.000  H
  N65      1.0000 0.77860  0.02630  0.71040  Biso   1.000  N
  N66      1.0000 0.70990  0.03250  0.78250  Biso   1.000  N
  Co33     1.0000 0.69916  0.03187  0.70017  Biso   1.000  Co
  Cl65     1.0000 0.61320  0.98380  0.70510  Biso   1.000  Cl
  Cl66     1.0000 0.70780  0.96980  0.62190  Biso   1.000  Cl
  Co34     1.0000 0.70050  0.99750  0.70425  Biso   1.000  Co
  C301     1.0000 0.84840  0.04210  0.76720  Biso   1.000  C
  H199     1.0000 0.85890  0.05520  0.79870  Biso   1.000  H
  C302     1.0000 0.88210  0.03640  0.72680  Biso   1.000  C
  H200     1.0000 0.91600  0.04720  0.73000  Biso   1.000  H
  C303     1.0000 0.81530  0.99700  0.67740  Biso   1.000  C
  H201     1.0000 0.80520  0.97940  0.64810  Biso   1.000  H
  C304     1.0000 0.76500  0.05430  0.84580  Biso   1.000  C
  H202     1.0000 0.79610  0.07000  0.85340  Biso   1.000  H
  C305     1.0000 0.72550  0.05280  0.88270  Biso   1.000  C
  H203     1.0000 0.73120  0.06240  0.91660  Biso   1.000  H
  C306     1.0000 0.67070  0.01860  0.81620  Biso   1.000  C
  H204     1.0000 0.63800  0.00770  0.80700  Biso   1.000  H
  N67      1.0000 0.78140  0.00450  0.71380  Biso   1.000  N
  N68      1.0000 0.70990  0.01580  0.77850  Biso   1.000  N
  O102     1.0000 0.03790  0.05140  0.52640  Biso   1.000  O
  Cl67     1.0000 0.64890  0.95860  0.70970  Biso   1.000  Cl
  Cl68     1.0000 0.69910  0.03760  0.61330  Biso   1.000  Cl
  Zr18     1.0000 0.51313  0.48470  0.40759  Biso   1.000  Zr
  O103     1.0000 0.55050  0.43170  0.46440  Biso   1.000  O
  C307     1.0000 0.36473  0.48600  0.31957  Biso   1.000  C
  C308     1.0000 0.39961  0.49375  0.36352  Biso   1.000  C
  O104     1.0000 0.37834  0.50641  0.40551  Biso   1.000  O
  O105     1.0000 0.44708  0.48735  0.35497  Biso   1.000  O
  C309     1.0000 0.17820  0.46350  0.13380  Biso   1.000  C
  C310     1.0000 0.13410  0.46720  0.09846  Biso   1.000  C
  O106     1.0000 0.09023  0.46810  0.12041  Biso   1.000  O
  O107     1.0000 0.14334  0.46915  0.05116  Biso   1.000  O
  C311     1.0000 0.29670  0.47310  0.24160  Biso   1.000  C
  C312     1.0000 0.25730  0.46750  0.20150  Biso   1.000  C
  C313     1.0000 0.34950  0.48760  0.22810  Biso   1.000  C
  H205     1.0000 0.35930  0.49690  0.19510  Biso   1.000  H
  C314     1.0000 0.38360  0.48590  0.26990  Biso   1.000  C
  H206     1.0000 0.41880  0.48480  0.26420  Biso   1.000  H
  C315     1.0000 0.31050  0.48500  0.32850  Biso   1.000  C
  H207     1.0000 0.29750  0.49210  0.36100  Biso   1.000  H
  C316     1.0000 0.26840  0.46730  0.14740  Biso   1.000  C
  H208     1.0000 0.30210  0.46740  0.13570  Biso   1.000  H
  C317     1.0000 0.23180  0.46710  0.11640  Biso   1.000  C
  H209     1.0000 0.23850  0.46930  0.08150  Biso   1.000  H
  C318     1.0000 0.17140  0.46460  0.18580  Biso   1.000  C
  H210     1.0000 0.13830  0.46330  0.19890  Biso   1.000  H
  N69      1.0000 0.27860  0.47370  0.28960  Biso   1.000  N
  N70      1.0000 0.20990  0.46750  0.21750  Biso   1.000  N
  Co35     1.0000 0.19916  0.46813  0.29983  Biso   1.000  Co
  Cl69     1.0000 0.11320  0.51620  0.29490  Biso   1.000  Cl
  Cl70     1.0000 0.20780  0.53020  0.37810  Biso   1.000  Cl
  Co36     1.0000 0.20050  0.50250  0.29575  Biso   1.000  Co
  C319     1.0000 0.34840  0.45790  0.23280  Biso   1.000  C
  H211     1.0000 0.35890  0.44480  0.20130  Biso   1.000  H
  C320     1.0000 0.38210  0.46360  0.27320  Biso   1.000  C
  H212     1.0000 0.41600  0.45280  0.27000  Biso   1.000  H
  C321     1.0000 0.31530  0.50300  0.32260  Biso   1.000  C
  H213     1.0000 0.30520  0.52060  0.35190  Biso   1.000  H
  C322     1.0000 0.26500  0.44570  0.15420  Biso   1.000  C
  H214     1.0000 0.29610  0.43000  0.14660  Biso   1.000  H
  C323     1.0000 0.22550  0.44720  0.11730  Biso   1.000  C
  H215     1.0000 0.23120  0.43760  0.08340  Biso   1.000  H
  C324     1.0000 0.17070  0.48140  0.18380  Biso   1.000  C
  H216     1.0000 0.13800  0.49230  0.19300  Biso   1.000  H
  N71      1.0000 0.28140  0.49550  0.28620  Biso   1.000  N
  N72      1.0000 0.20990  0.48420  0.22150  Biso   1.000  N
  O108     1.0000 0.53790  0.44860  0.47360  Biso   1.000  O
  Cl71     1.0000 0.14890  0.54140  0.29030  Biso   1.000  Cl
  Cl72     1.0000 0.19910  0.46240  0.38670  Biso   1.000  Cl
  Zr19     1.0000 0.48687  0.98470  0.09241  Biso   1.000  Zr
  O109     1.0000 0.44950  0.93170  0.03560  Biso   1.000  O
  C325     1.0000 0.63527  0.98600  0.18043  Biso   1.000  C
  C326     1.0000 0.60039  0.99375  0.13648  Biso   1.000  C
  O110     1.0000 0.62166  0.00641  0.09449  Biso   1.000  O
  O111     1.0000 0.55292  0.98735  0.14503  Biso   1.000  O
  C327     1.0000 0.82180  0.96350  0.36620  Biso   1.000  C
  C328     1.0000 0.86590  0.96720  0.40154  Biso   1.000  C
  O112     1.0000 0.90977  0.96810  0.37959  Biso   1.000  O
  O113     1.0000 0.85666  0.96915  0.44884  Biso   1.000  O
  C329     1.0000 0.70330  0.97310  0.25840  Biso   1.000  C
  C330     1.0000 0.74270  0.96750  0.29850  Biso   1.000  C
  C331     1.0000 0.65050  0.98760  0.27190  Biso   1.000  C
  H217     1.0000 0.64070  0.99690  0.30490  Biso   1.000  H
  C332     1.0000 0.61640  0.98590  0.23010  Biso   1.000  C
  H218     1.0000 0.58120  0.98480  0.23580  Biso   1.000  H
  C333     1.0000 0.68950  0.98500  0.17150  Biso   1.000  C
  H219     1.0000 0.70250  0.99210  0.13900  Biso   1.000  H
  C334     1.0000 0.73160  0.96730  0.35260  Biso   1.000  C
  H220     1.0000 0.69790  0.96740  0.36430  Biso   1.000  H
  C335     1.0000 0.76820  0.96710  0.38360  Biso   1.000  C
  H221     1.0000 0.76150  0.96930  0.41850  Biso   1.000  H
  C336     1.0000 0.82860  0.96460  0.31420  Biso   1.000  C
  H222     1.0000 0.86170  0.96330  0.30110  Biso   1.000  H
  N73      1.0000 0.72140  0.97370  0.21040  Biso   1.000  N
  N74      1.0000 0.79010  0.96750  0.28250  Biso   1.000  N
  Co37     1.0000 0.80084  0.96813  0.20017  Biso   1.000  Co
  Cl73     1.0000 0.88680  0.01620  0.20510  Biso   1.000  Cl
  Cl74     1.0000 0.79220  0.03020  0.12190  Biso   1.000  Cl
  Co38     1.0000 0.79950  0.00250  0.20425  Biso   1.000  Co
  C337     1.0000 0.65160  0.95790  0.26720  Biso   1.000  C
  H223     1.0000 0.64110  0.94480  0.29870  Biso   1.000  H
  C338     1.0000 0.61790  0.96360  0.22680  Biso   1.000  C
  H224     1.0000 0.58400  0.95280  0.23000  Biso   1.000  H
  C339     1.0000 0.68470  0.00300  0.17740  Biso   1.000  C
  H225     1.0000 0.69480  0.02060  0.14810  Biso   1.000  H
  C340     1.0000 0.73500  0.94570  0.34580  Biso   1.000  C
  H226     1.0000 0.70390  0.93000  0.35340  Biso   1.000  H
  C341     1.0000 0.77450  0.94720  0.38270  Biso   1.000  C
  H227     1.0000 0.76880  0.93760  0.41660  Biso   1.000  H
  C342     1.0000 0.82930  0.98140  0.31620  Biso   1.000  C
  H228     1.0000 0.86200  0.99230  0.30700  Biso   1.000  H
  N75      1.0000 0.71860  0.99550  0.21380  Biso   1.000  N
  N76      1.0000 0.79010  0.98420  0.27850  Biso   1.000  N
  O114     1.0000 0.46210  0.94860  0.02640  Biso   1.000  O
  Cl75     1.0000 0.85110  0.04140  0.20970  Biso   1.000  Cl
  Cl76     1.0000 0.80090  0.96240  0.11330  Biso   1.000  Cl
  Zr20     1.0000 0.98687  0.51530  0.90759  Biso   1.000  Zr
  O115     1.0000 0.94950  0.56830  0.96440  Biso   1.000  O
  C343     1.0000 0.13527  0.51400  0.81957  Biso   1.000  C
  C344     1.0000 0.10039  0.50625  0.86352  Biso   1.000  C
  O116     1.0000 0.12166  0.49359  0.90551  Biso   1.000  O
  O117     1.0000 0.05292  0.51265  0.85497  Biso   1.000  O
  C345     1.0000 0.32180  0.53650  0.63380  Biso   1.000  C
  C346     1.0000 0.36590  0.53280  0.59846  Biso   1.000  C
  O118     1.0000 0.40977  0.53190  0.62041  Biso   1.000  O
  O119     1.0000 0.35666  0.53085  0.55116  Biso   1.000  O
  C347     1.0000 0.20330  0.52690  0.74160  Biso   1.000  C
  C348     1.0000 0.24270  0.53250  0.70150  Biso   1.000  C
  C349     1.0000 0.15050  0.51240  0.72810  Biso   1.000  C
  H229     1.0000 0.14070  0.50310  0.69510  Biso   1.000  H
  C350     1.0000 0.11640  0.51410  0.76990  Biso   1.000  C
  H230     1.0000 0.08120  0.51520  0.76420  Biso   1.000  H
  C351     1.0000 0.18950  0.51500  0.82850  Biso   1.000  C
  H231     1.0000 0.20250  0.50790  0.86100  Biso   1.000  H
  C352     1.0000 0.23160  0.53270  0.64740  Biso   1.000  C
  H232     1.0000 0.19790  0.53260  0.63570  Biso   1.000  H
  C353     1.0000 0.26820  0.53290  0.61640  Biso   1.000  C
  H233     1.0000 0.26150  0.53070  0.58150  Biso   1.000  H
  C354     1.0000 0.32860  0.53540  0.68580  Biso   1.000  C
  H234     1.0000 0.36170  0.53670  0.69890  Biso   1.000  H
  N77      1.0000 0.22140  0.52630  0.78960  Biso   1.000  N
  N78      1.0000 0.29010  0.53250  0.71750  Biso   1.000  N
  Co39     1.0000 0.30084  0.53187  0.79983  Biso   1.000  Co
  Cl77     1.0000 0.38680  0.48380  0.79490  Biso   1.000  Cl
  Cl78     1.0000 0.29220  0.46980  0.87810  Biso   1.000  Cl
  Co40     1.0000 0.29950  0.49750  0.79575  Biso   1.000  Co
  C355     1.0000 0.15160  0.54210  0.73280  Biso   1.000  C
  H235     1.0000 0.14110  0.55520  0.70130  Biso   1.000  H
  C356     1.0000 0.11790  0.53640  0.77320  Biso   1.000  C
  H236     1.0000 0.08400  0.54720  0.77000  Biso   1.000  H
  C357     1.0000 0.18470  0.49700  0.82260  Biso   1.000  C
  H237     1.0000 0.19480  0.47940  0.85190  Biso   1.000  H
  C358     1.0000 0.23500  0.55430  0.65420  Biso   1.000  C
  H238     1.0000 0.20390  0.57000  0.64660  Biso   1.000  H
  C359     1.0000 0.27450  0.55280  0.61730  Biso   1.000  C
  H239     1.0000 0.26880  0.56240  0.58340  Biso   1.000  H
  C360     1.0000 0.32930  0.51860  0.68380  Biso   1.000  C
  H240     1.0000 0.36200  0.50770  0.69300  Biso   1.000  H
  N79      1.0000 0.21860  0.50450  0.78620  Biso   1.000  N
  N80      1.0000 0.29010  0.51580  0.72150  Biso   1.000  N
  O120     1.0000 0.96210  0.55140  0.97360  Biso   1.000  O
  Cl79     1.0000 0.35110  0.45860  0.79030  Biso   1.000  Cl
  Cl80     1.0000 0.30090  0.53760  0.88670  Biso   1.000  Cl
  Zr21     1.0000 0.59241  0.01313  0.01530  Biso   1.000  Zr
  O121     1.0000 0.53560  0.05050  0.06830  Biso   1.000  O
  C361     1.0000 0.68043  0.86473  0.01400  Biso   1.000  C
  C362     1.0000 0.63648  0.89961  0.00625  Biso   1.000  C
  O122     1.0000 0.59449  0.87834  0.99359  Biso   1.000  O
  O123     1.0000 0.64503  0.94708  0.01265  Biso   1.000  O
  C363     1.0000 0.86620  0.67820  0.03650  Biso   1.000  C
  C364     1.0000 0.90154  0.63410  0.03280  Biso   1.000  C
  O124     1.0000 0.87959  0.59023  0.03190  Biso   1.000  O
  O125     1.0000 0.94884  0.64334  0.03085  Biso   1.000  O
  C365     1.0000 0.75840  0.79670  0.02690  Biso   1.000  C
  C366     1.0000 0.79850  0.75730  0.03250  Biso   1.000  C
  C367     1.0000 0.77190  0.84950  0.01240  Biso   1.000  C
  H241     1.0000 0.80490  0.85930  0.00310  Biso   1.000  H
  C368     1.0000 0.73010  0.88360  0.01410  Biso   1.000  C
  H242     1.0000 0.73580  0.91880  0.01520  Biso   1.000  H
  C369     1.0000 0.67150  0.81050  0.01500  Biso   1.000  C
  H243     1.0000 0.63900  0.79750  0.00790  Biso   1.000  H
  C370     1.0000 0.85260  0.76840  0.03270  Biso   1.000  C
  H244     1.0000 0.86430  0.80210  0.03260  Biso   1.000  H
  C371     1.0000 0.88360  0.73180  0.03290  Biso   1.000  C
  H245     1.0000 0.91850  0.73850  0.03070  Biso   1.000  H
  C372     1.0000 0.81420  0.67140  0.03540  Biso   1.000  C
  H246     1.0000 0.80110  0.63830  0.03670  Biso   1.000  H
  N81      1.0000 0.71040  0.77860  0.02630  Biso   1.000  N
  N82      1.0000 0.78250  0.70990  0.03250  Biso   1.000  N
  Co41     1.0000 0.70017  0.69916  0.03187  Biso   1.000  Co
  Cl81     1.0000 0.70510  0.61320  0.98380  Biso   1.000  Cl
  Cl82     1.0000 0.62190  0.70780  0.96980  Biso   1.000  Cl
  Co42     1.0000 0.70425  0.70050  0.99750  Biso   1.000  Co
  C373     1.0000 0.76720  0.84840  0.04210  Biso   1.000  C
  H247     1.0000 0.79870  0.85890  0.05520  Biso   1.000  H
  C374     1.0000 0.72680  0.88210  0.03640  Biso   1.000  C
  H248     1.0000 0.73000  0.91600  0.04720  Biso   1.000  H
  C375     1.0000 0.67740  0.81530  0.99700  Biso   1.000  C
  H249     1.0000 0.64810  0.80520  0.97940  Biso   1.000  H
  C376     1.0000 0.84580  0.76500  0.05430  Biso   1.000  C
  H250     1.0000 0.85340  0.79610  0.07000  Biso   1.000  H
  C377     1.0000 0.88270  0.72550  0.05280  Biso   1.000  C
  H251     1.0000 0.91660  0.73120  0.06240  Biso   1.000  H
  C378     1.0000 0.81620  0.67070  0.01860  Biso   1.000  C
  H252     1.0000 0.80700  0.63800  0.00770  Biso   1.000  H
  N83      1.0000 0.71380  0.78140  0.00450  Biso   1.000  N
  N84      1.0000 0.77850  0.70990  0.01580  Biso   1.000  N
  O126     1.0000 0.52640  0.03790  0.05140  Biso   1.000  O
  Cl83     1.0000 0.70970  0.64890  0.95860  Biso   1.000  Cl
  Cl84     1.0000 0.61330  0.69910  0.03760  Biso   1.000  Cl
  Zr22     1.0000 0.40759  0.51313  0.48470  Biso   1.000  Zr
  O127     1.0000 0.46440  0.55050  0.43170  Biso   1.000  O
  C379     1.0000 0.31957  0.36473  0.48600  Biso   1.000  C
  C380     1.0000 0.36352  0.39961  0.49375  Biso   1.000  C
  O128     1.0000 0.40551  0.37834  0.50641  Biso   1.000  O
  O129     1.0000 0.35497  0.44708  0.48735  Biso   1.000  O
  C381     1.0000 0.13380  0.17820  0.46350  Biso   1.000  C
  C382     1.0000 0.09846  0.13410  0.46720  Biso   1.000  C
  O130     1.0000 0.12041  0.09023  0.46810  Biso   1.000  O
  O131     1.0000 0.05116  0.14334  0.46915  Biso   1.000  O
  C383     1.0000 0.24160  0.29670  0.47310  Biso   1.000  C
  C384     1.0000 0.20150  0.25730  0.46750  Biso   1.000  C
  C385     1.0000 0.22810  0.34950  0.48760  Biso   1.000  C
  H253     1.0000 0.19510  0.35930  0.49690  Biso   1.000  H
  C386     1.0000 0.26990  0.38360  0.48590  Biso   1.000  C
  H254     1.0000 0.26420  0.41880  0.48480  Biso   1.000  H
  C387     1.0000 0.32850  0.31050  0.48500  Biso   1.000  C
  H255     1.0000 0.36100  0.29750  0.49210  Biso   1.000  H
  C388     1.0000 0.14740  0.26840  0.46730  Biso   1.000  C
  H256     1.0000 0.13570  0.30210  0.46740  Biso   1.000  H
  C389     1.0000 0.11640  0.23180  0.46710  Biso   1.000  C
  H257     1.0000 0.08150  0.23850  0.46930  Biso   1.000  H
  C390     1.0000 0.18580  0.17140  0.46460  Biso   1.000  C
  H258     1.0000 0.19890  0.13830  0.46330  Biso   1.000  H
  N85      1.0000 0.28960  0.27860  0.47370  Biso   1.000  N
  N86      1.0000 0.21750  0.20990  0.46750  Biso   1.000  N
  Co43     1.0000 0.29983  0.19916  0.46813  Biso   1.000  Co
  Cl85     1.0000 0.29490  0.11320  0.51620  Biso   1.000  Cl
  Cl86     1.0000 0.37810  0.20780  0.53020  Biso   1.000  Cl
  Co44     1.0000 0.29575  0.20050  0.50250  Biso   1.000  Co
  C391     1.0000 0.23280  0.34840  0.45790  Biso   1.000  C
  H259     1.0000 0.20130  0.35890  0.44480  Biso   1.000  H
  C392     1.0000 0.27320  0.38210  0.46360  Biso   1.000  C
  H260     1.0000 0.27000  0.41600  0.45280  Biso   1.000  H
  C393     1.0000 0.32260  0.31530  0.50300  Biso   1.000  C
  H261     1.0000 0.35190  0.30520  0.52060  Biso   1.000  H
  C394     1.0000 0.15420  0.26500  0.44570  Biso   1.000  C
  H262     1.0000 0.14660  0.29610  0.43000  Biso   1.000  H
  C395     1.0000 0.11730  0.22550  0.44720  Biso   1.000  C
  H263     1.0000 0.08340  0.23120  0.43760  Biso   1.000  H
  C396     1.0000 0.18380  0.17070  0.48140  Biso   1.000  C
  H264     1.0000 0.19300  0.13800  0.49230  Biso   1.000  H
  N87      1.0000 0.28620  0.28140  0.49550  Biso   1.000  N
  N88      1.0000 0.22150  0.20990  0.48420  Biso   1.000  N
  O132     1.0000 0.47360  0.53790  0.44860  Biso   1.000  O
  Cl87     1.0000 0.29030  0.14890  0.54140  Biso   1.000  Cl
  Cl88     1.0000 0.38670  0.19910  0.46240  Biso   1.000  Cl
  Zr23     1.0000 0.09241  0.48687  0.98470  Biso   1.000  Zr
  O133     1.0000 0.03560  0.44950  0.93170  Biso   1.000  O
  C397     1.0000 0.18043  0.63527  0.98600  Biso   1.000  C
  C398     1.0000 0.13648  0.60039  0.99375  Biso   1.000  C
  O134     1.0000 0.09449  0.62166  0.00641  Biso   1.000  O
  O135     1.0000 0.14503  0.55292  0.98735  Biso   1.000  O
  C399     1.0000 0.36620  0.82180  0.96350  Biso   1.000  C
  C400     1.0000 0.40154  0.86590  0.96720  Biso   1.000  C
  O136     1.0000 0.37959  0.90977  0.96810  Biso   1.000  O
  O137     1.0000 0.44884  0.85666  0.96915  Biso   1.000  O
  C401     1.0000 0.25840  0.70330  0.97310  Biso   1.000  C
  C402     1.0000 0.29850  0.74270  0.96750  Biso   1.000  C
  C403     1.0000 0.27190  0.65050  0.98760  Biso   1.000  C
  H265     1.0000 0.30490  0.64070  0.99690  Biso   1.000  H
  C404     1.0000 0.23010  0.61640  0.98590  Biso   1.000  C
  H266     1.0000 0.23580  0.58120  0.98480  Biso   1.000  H
  C405     1.0000 0.17150  0.68950  0.98500  Biso   1.000  C
  H267     1.0000 0.13900  0.70250  0.99210  Biso   1.000  H
  C406     1.0000 0.35260  0.73160  0.96730  Biso   1.000  C
  H268     1.0000 0.36430  0.69790  0.96740  Biso   1.000  H
  C407     1.0000 0.38360  0.76820  0.96710  Biso   1.000  C
  H269     1.0000 0.41850  0.76150  0.96930  Biso   1.000  H
  C408     1.0000 0.31420  0.82860  0.96460  Biso   1.000  C
  H270     1.0000 0.30110  0.86170  0.96330  Biso   1.000  H
  N89      1.0000 0.21040  0.72140  0.97370  Biso   1.000  N
  N90      1.0000 0.28250  0.79010  0.96750  Biso   1.000  N
  Co45     1.0000 0.20017  0.80084  0.96813  Biso   1.000  Co
  Cl89     1.0000 0.20510  0.88680  0.01620  Biso   1.000  Cl
  Cl90     1.0000 0.12190  0.79220  0.03020  Biso   1.000  Cl
  Co46     1.0000 0.20425  0.79950  0.00250  Biso   1.000  Co
  C409     1.0000 0.26720  0.65160  0.95790  Biso   1.000  C
  H271     1.0000 0.29870  0.64110  0.94480  Biso   1.000  H
  C410     1.0000 0.22680  0.61790  0.96360  Biso   1.000  C
  H272     1.0000 0.23000  0.58400  0.95280  Biso   1.000  H
  C411     1.0000 0.17740  0.68470  0.00300  Biso   1.000  C
  H273     1.0000 0.14810  0.69480  0.02060  Biso   1.000  H
  C412     1.0000 0.34580  0.73500  0.94570  Biso   1.000  C
  H274     1.0000 0.35340  0.70390  0.93000  Biso   1.000  H
  C413     1.0000 0.38270  0.77450  0.94720  Biso   1.000  C
  H275     1.0000 0.41660  0.76880  0.93760  Biso   1.000  H
  C414     1.0000 0.31620  0.82930  0.98140  Biso   1.000  C
  H276     1.0000 0.30700  0.86200  0.99230  Biso   1.000  H
  N91      1.0000 0.21380  0.71860  0.99550  Biso   1.000  N
  N92      1.0000 0.27850  0.79010  0.98420  Biso   1.000  N
  O138     1.0000 0.02640  0.46210  0.94860  Biso   1.000  O
  Cl91     1.0000 0.20970  0.85110  0.04140  Biso   1.000  Cl
  Cl92     1.0000 0.11330  0.80090  0.96240  Biso   1.000  Cl
  Zr24     1.0000 0.90759  0.98687  0.51530  Biso   1.000  Zr
  O139     1.0000 0.96440  0.94950  0.56830  Biso   1.000  O
  C415     1.0000 0.81957  0.13527  0.51400  Biso   1.000  C
  C416     1.0000 0.86352  0.10039  0.50625  Biso   1.000  C
  O140     1.0000 0.90551  0.12166  0.49359  Biso   1.000  O
  O141     1.0000 0.85497  0.05292  0.51265  Biso   1.000  O
  C417     1.0000 0.63380  0.32180  0.53650  Biso   1.000  C
  C418     1.0000 0.59846  0.36590  0.53280  Biso   1.000  C
  O142     1.0000 0.62041  0.40977  0.53190  Biso   1.000  O
  O143     1.0000 0.55116  0.35666  0.53085  Biso   1.000  O
  C419     1.0000 0.74160  0.20330  0.52690  Biso   1.000  C
  C420     1.0000 0.70150  0.24270  0.53250  Biso   1.000  C
  C421     1.0000 0.72810  0.15050  0.51240  Biso   1.000  C
  H277     1.0000 0.69510  0.14070  0.50310  Biso   1.000  H
  C422     1.0000 0.76990  0.11640  0.51410  Biso   1.000  C
  H278     1.0000 0.76420  0.08120  0.51520  Biso   1.000  H
  C423     1.0000 0.82850  0.18950  0.51500  Biso   1.000  C
  H279     1.0000 0.86100  0.20250  0.50790  Biso   1.000  H
  C424     1.0000 0.64740  0.23160  0.53270  Biso   1.000  C
  H280     1.0000 0.63570  0.19790  0.53260  Biso   1.000  H
  C425     1.0000 0.61640  0.26820  0.53290  Biso   1.000  C
  H281     1.0000 0.58150  0.26150  0.53070  Biso   1.000  H
  C426     1.0000 0.68580  0.32860  0.53540  Biso   1.000  C
  H282     1.0000 0.69890  0.36170  0.53670  Biso   1.000  H
  N93      1.0000 0.78960  0.22140  0.52630  Biso   1.000  N
  N94      1.0000 0.71750  0.29010  0.53250  Biso   1.000  N
  Co47     1.0000 0.79983  0.30084  0.53187  Biso   1.000  Co
  Cl93     1.0000 0.79490  0.38680  0.48380  Biso   1.000  Cl
  Cl94     1.0000 0.87810  0.29220  0.46980  Biso   1.000  Cl
  Co48     1.0000 0.79575  0.29950  0.49750  Biso   1.000  Co
  C427     1.0000 0.73280  0.15160  0.54210  Biso   1.000  C
  H283     1.0000 0.70130  0.14110  0.55520  Biso   1.000  H
  C428     1.0000 0.77320  0.11790  0.53640  Biso   1.000  C
  H284     1.0000 0.77000  0.08400  0.54720  Biso   1.000  H
  C429     1.0000 0.82260  0.18470  0.49700  Biso   1.000  C
  H285     1.0000 0.85190  0.19480  0.47940  Biso   1.000  H
  C430     1.0000 0.65420  0.23500  0.55430  Biso   1.000  C
  H286     1.0000 0.64660  0.20390  0.57000  Biso   1.000  H
  C431     1.0000 0.61730  0.27450  0.55280  Biso   1.000  C
  H287     1.0000 0.58340  0.26880  0.56240  Biso   1.000  H
  C432     1.0000 0.68380  0.32930  0.51860  Biso   1.000  C
  H288     1.0000 0.69300  0.36200  0.50770  Biso   1.000  H
  N95      1.0000 0.78620  0.21860  0.50450  Biso   1.000  N
  N96      1.0000 0.72150  0.29010  0.51580  Biso   1.000  N
  O144     1.0000 0.97360  0.96210  0.55140  Biso   1.000  O
  Cl95     1.0000 0.79030  0.35110  0.45860  Biso   1.000  Cl
  Cl96     1.0000 0.88670  0.30090  0.53760  Biso   1.000  Cl
  O145     1.0000 0.94740  0.44740  0.05260  Biso   1.000  O
  O146     1.0000 0.96110  0.46110  0.03890  Biso   1.000  O
  O147     1.0000 0.55260  0.55260  0.55260  Biso   1.000  O
  O148     1.0000 0.53890  0.53890  0.53890  Biso   1.000  O
  O149     1.0000 0.05260  0.94740  0.44740  Biso   1.000  O
  O150     1.0000 0.03890  0.96110  0.46110  Biso   1.000  O
  O151     1.0000 0.44740  0.05260  0.94740  Biso   1.000  O
  O152     1.0000 0.46110  0.03890  0.96110  Biso   1.000  O
  O153     1.0000 0.05260  0.55260  0.94740  Biso   1.000  O
  O154     1.0000 0.03890  0.53890  0.96110  Biso   1.000  O
  O155     1.0000 0.44740  0.44740  0.44740  Biso   1.000  O
  O156     1.0000 0.46110  0.46110  0.46110  Biso   1.000  O
  O157     1.0000 0.94740  0.05260  0.55260  Biso   1.000  O
  O158     1.0000 0.96110  0.03890  0.53890  Biso   1.000  O
  O159     1.0000 0.55260  0.94740  0.05260  Biso   1.000  O
  O160     1.0000 0.53890  0.96110  0.03890  Biso   1.000  O
