data_image0
_cell_length_a       26.0483
_cell_length_b       26.0483
_cell_length_c       26.0483
_cell_angle_alpha    90
_cell_angle_beta     90
_cell_angle_gamma    90

_symmetry_space_group_name_H-M    "P 1"
_symmetry_int_tables_number       1

loop_
  _symmetry_equiv_pos_as_xyz
  'x, y, z'

loop_
  _atom_site_label
  _atom_site_occupancy
  _atom_site_fract_x
  _atom_site_fract_y
  _atom_site_fract_z
  _atom_site_thermal_displace_type
  _atom_site_B_iso_or_equiv
  _atom_site_type_symbol
  Zr1      1.0000 0.51432  0.48322  0.40776  Biso   1.000  Zr
  Cu1      1.0000 0.20629  0.48587  0.29169  Biso   1.000  Cu
  Cl1      1.0000 0.13111  0.52495  0.28931  Biso   1.000  Cl
  Cl2      1.0000 0.20369  0.46074  0.37270  Biso   1.000  Cl
  O1       1.0000 0.38072  0.50620  0.40283  Biso   1.000  O
  O2       1.0000 0.44884  0.48560  0.35446  Biso   1.000  O
  O3       1.0000 0.09213  0.46600  0.11784  Biso   1.000  O
  O4       1.0000 0.14289  0.46699  0.04957  Biso   1.000  O
  N1       1.0000 0.28219  0.48054  0.28557  Biso   1.000  N
  N2       1.0000 0.21265  0.47610  0.21564  Biso   1.000  N
  C1       1.0000 0.30057  0.47142  0.23836  Biso   1.000  C
  C2       1.0000 0.35234  0.46640  0.22833  Biso   1.000  C
  H1       1.0000 0.36420  0.45780  0.19490  Biso   1.000  H
  C3       1.0000 0.38672  0.47410  0.26865  Biso   1.000  C
  H2       1.0000 0.42270  0.47160  0.26310  Biso   1.000  H
  C4       1.0000 0.36765  0.48555  0.31693  Biso   1.000  C
  C5       1.0000 0.31475  0.48792  0.32384  Biso   1.000  C
  H3       1.0000 0.30160  0.49510  0.35710  Biso   1.000  H
  C6       1.0000 0.26077  0.46700  0.19800  Biso   1.000  C
  C7       1.0000 0.27034  0.45670  0.14722  Biso   1.000  C
  H4       1.0000 0.30440  0.45070  0.13570  Biso   1.000  H
  C8       1.0000 0.22955  0.45520  0.11284  Biso   1.000  C
  H5       1.0000 0.23530  0.44840  0.07750  Biso   1.000  H
  C9       1.0000 0.18034  0.46367  0.13117  Biso   1.000  C
  C10      1.0000 0.17322  0.47388  0.18279  Biso   1.000  C
  H6       1.0000 0.13940  0.47950  0.19530  Biso   1.000  H
  C11      1.0000 0.40197  0.49347  0.36174  Biso   1.000  C
  C12      1.0000 0.13504  0.46551  0.09665  Biso   1.000  C
  O5       1.0000 0.53778  0.44789  0.47422  Biso   1.000  O
  O6       1.0000 0.36840  0.51070  0.40870  Biso   1.000  O
  O7       1.0000 0.45200  0.49460  0.35300  Biso   1.000  O
  O8       1.0000 0.08700  0.46450  0.13020  Biso   1.000  O
  O9       1.0000 0.15390  0.46850  0.04210  Biso   1.000  O
  O10      1.0000 0.55105  0.43034  0.46566  Biso   1.000  O
  Zr2      1.0000 0.98568  0.51678  0.90776  Biso   1.000  Zr
  Cu2      1.0000 0.29371  0.51413  0.79169  Biso   1.000  Cu
  Cl3      1.0000 0.36889  0.47505  0.78931  Biso   1.000  Cl
  Cl4      1.0000 0.29631  0.53926  0.87270  Biso   1.000  Cl
  O11      1.0000 0.11928  0.49380  0.90283  Biso   1.000  O
  O12      1.0000 0.05116  0.51440  0.85446  Biso   1.000  O
  O13      1.0000 0.40787  0.53400  0.61784  Biso   1.000  O
  O14      1.0000 0.35711  0.53301  0.54957  Biso   1.000  O
  N3       1.0000 0.21781  0.51946  0.78557  Biso   1.000  N
  N4       1.0000 0.28735  0.52390  0.71564  Biso   1.000  N
  C13      1.0000 0.19943  0.52858  0.73836  Biso   1.000  C
  C14      1.0000 0.14766  0.53360  0.72833  Biso   1.000  C
  H7       1.0000 0.13580  0.54220  0.69490  Biso   1.000  H
  C15      1.0000 0.11328  0.52590  0.76865  Biso   1.000  C
  H8       1.0000 0.07730  0.52840  0.76310  Biso   1.000  H
  C16      1.0000 0.13235  0.51445  0.81693  Biso   1.000  C
  C17      1.0000 0.18525  0.51208  0.82384  Biso   1.000  C
  H9       1.0000 0.19840  0.50490  0.85710  Biso   1.000  H
  C18      1.0000 0.23923  0.53300  0.69800  Biso   1.000  C
  C19      1.0000 0.22966  0.54330  0.64722  Biso   1.000  C
  H10      1.0000 0.19560  0.54930  0.63570  Biso   1.000  H
  C20      1.0000 0.27045  0.54480  0.61284  Biso   1.000  C
  H11      1.0000 0.26470  0.55160  0.57750  Biso   1.000  H
  C21      1.0000 0.31966  0.53633  0.63117  Biso   1.000  C
  C22      1.0000 0.32678  0.52612  0.68279  Biso   1.000  C
  H12      1.0000 0.36060  0.52050  0.69530  Biso   1.000  H
  C23      1.0000 0.09803  0.50653  0.86174  Biso   1.000  C
  C24      1.0000 0.36496  0.53449  0.59665  Biso   1.000  C
  O15      1.0000 0.96222  0.55211  0.97422  Biso   1.000  O
  O16      1.0000 0.13160  0.48930  0.90870  Biso   1.000  O
  O17      1.0000 0.04800  0.50540  0.85300  Biso   1.000  O
  O18      1.0000 0.41300  0.53550  0.63020  Biso   1.000  O
  O19      1.0000 0.34610  0.53150  0.54210  Biso   1.000  O
  O20      1.0000 0.94895  0.56966  0.96566  Biso   1.000  O
  Zr3      1.0000 0.48568  0.98322  0.09224  Biso   1.000  Zr
  Cu3      1.0000 0.79371  0.98587  0.20831  Biso   1.000  Cu
  Cl5      1.0000 0.86889  0.02495  0.21069  Biso   1.000  Cl
  Cl6      1.0000 0.79631  0.96074  0.12730  Biso   1.000  Cl
  O21      1.0000 0.61928  0.00620  0.09717  Biso   1.000  O
  O22      1.0000 0.55116  0.98560  0.14554  Biso   1.000  O
  O23      1.0000 0.90787  0.96600  0.38216  Biso   1.000  O
  O24      1.0000 0.85711  0.96699  0.45043  Biso   1.000  O
  N5       1.0000 0.71781  0.98054  0.21443  Biso   1.000  N
  N6       1.0000 0.78735  0.97610  0.28436  Biso   1.000  N
  C25      1.0000 0.69943  0.97142  0.26164  Biso   1.000  C
  C26      1.0000 0.64766  0.96640  0.27167  Biso   1.000  C
  H13      1.0000 0.63580  0.95780  0.30510  Biso   1.000  H
  C27      1.0000 0.61328  0.97410  0.23135  Biso   1.000  C
  H14      1.0000 0.57730  0.97160  0.23690  Biso   1.000  H
  C28      1.0000 0.63235  0.98555  0.18307  Biso   1.000  C
  C29      1.0000 0.68525  0.98792  0.17616  Biso   1.000  C
  H15      1.0000 0.69840  0.99510  0.14290  Biso   1.000  H
  C30      1.0000 0.73923  0.96700  0.30200  Biso   1.000  C
  C31      1.0000 0.72966  0.95670  0.35278  Biso   1.000  C
  H16      1.0000 0.69560  0.95070  0.36430  Biso   1.000  H
  C32      1.0000 0.77045  0.95520  0.38716  Biso   1.000  C
  H17      1.0000 0.76470  0.94840  0.42250  Biso   1.000  H
  C33      1.0000 0.81966  0.96367  0.36883  Biso   1.000  C
  C34      1.0000 0.82678  0.97388  0.31721  Biso   1.000  C
  H18      1.0000 0.86060  0.97950  0.30470  Biso   1.000  H
  C35      1.0000 0.59803  0.99347  0.13826  Biso   1.000  C
  C36      1.0000 0.86496  0.96551  0.40335  Biso   1.000  C
  O25      1.0000 0.46222  0.94789  0.02578  Biso   1.000  O
  O26      1.0000 0.63160  0.01070  0.09130  Biso   1.000  O
  O27      1.0000 0.54800  0.99460  0.14700  Biso   1.000  O
  O28      1.0000 0.91300  0.96450  0.36980  Biso   1.000  O
  O29      1.0000 0.84610  0.96850  0.45790  Biso   1.000  O
  O30      1.0000 0.44895  0.93034  0.03434  Biso   1.000  O
  Zr4      1.0000 0.01432  0.01678  0.59224  Biso   1.000  Zr
  Cu4      1.0000 0.70629  0.01413  0.70831  Biso   1.000  Cu
  Cl7      1.0000 0.63111  0.97505  0.71069  Biso   1.000  Cl
  Cl8      1.0000 0.70369  0.03926  0.62730  Biso   1.000  Cl
  O31      1.0000 0.88072  0.99380  0.59717  Biso   1.000  O
  O32      1.0000 0.94884  0.01440  0.64554  Biso   1.000  O
  O33      1.0000 0.59213  0.03400  0.88216  Biso   1.000  O
  O34      1.0000 0.64289  0.03301  0.95043  Biso   1.000  O
  N7       1.0000 0.78219  0.01946  0.71443  Biso   1.000  N
  N8       1.0000 0.71265  0.02390  0.78436  Biso   1.000  N
  C37      1.0000 0.80057  0.02858  0.76164  Biso   1.000  C
  C38      1.0000 0.85234  0.03360  0.77167  Biso   1.000  C
  H19      1.0000 0.86420  0.04220  0.80510  Biso   1.000  H
  C39      1.0000 0.88672  0.02590  0.73135  Biso   1.000  C
  H20      1.0000 0.92270  0.02840  0.73690  Biso   1.000  H
  C40      1.0000 0.86765  0.01445  0.68307  Biso   1.000  C
  C41      1.0000 0.81475  0.01208  0.67616  Biso   1.000  C
  H21      1.0000 0.80160  0.00490  0.64290  Biso   1.000  H
  C42      1.0000 0.76077  0.03300  0.80200  Biso   1.000  C
  C43      1.0000 0.77034  0.04330  0.85278  Biso   1.000  C
  H22      1.0000 0.80440  0.04930  0.86430  Biso   1.000  H
  C44      1.0000 0.72955  0.04480  0.88716  Biso   1.000  C
  H23      1.0000 0.73530  0.05160  0.92250  Biso   1.000  H
  C45      1.0000 0.68034  0.03633  0.86883  Biso   1.000  C
  C46      1.0000 0.67322  0.02612  0.81721  Biso   1.000  C
  H24      1.0000 0.63940  0.02050  0.80470  Biso   1.000  H
  C47      1.0000 0.90197  0.00653  0.63826  Biso   1.000  C
  C48      1.0000 0.63504  0.03449  0.90335  Biso   1.000  C
  O35      1.0000 0.03778  0.05211  0.52578  Biso   1.000  O
  O36      1.0000 0.86840  0.98930  0.59130  Biso   1.000  O
  O37      1.0000 0.95200  0.00540  0.64700  Biso   1.000  O
  O38      1.0000 0.58700  0.03550  0.86980  Biso   1.000  O
  O39      1.0000 0.65390  0.03150  0.95790  Biso   1.000  O
  O40      1.0000 0.05105  0.06966  0.53434  Biso   1.000  O
  Zr5      1.0000 0.40776  0.51432  0.48322  Biso   1.000  Zr
  Cu5      1.0000 0.29169  0.20629  0.48587  Biso   1.000  Cu
  Cl9      1.0000 0.28931  0.13111  0.52495  Biso   1.000  Cl
  Cl10     1.0000 0.37270  0.20369  0.46074  Biso   1.000  Cl
  O41      1.0000 0.40283  0.38072  0.50620  Biso   1.000  O
  O42      1.0000 0.35446  0.44884  0.48560  Biso   1.000  O
  O43      1.0000 0.11784  0.09213  0.46600  Biso   1.000  O
  O44      1.0000 0.04957  0.14289  0.46699  Biso   1.000  O
  N9       1.0000 0.28557  0.28219  0.48054  Biso   1.000  N
  N10      1.0000 0.21564  0.21265  0.47610  Biso   1.000  N
  C49      1.0000 0.23836  0.30057  0.47142  Biso   1.000  C
  C50      1.0000 0.22833  0.35234  0.46640  Biso   1.000  C
  H25      1.0000 0.19490  0.36420  0.45780  Biso   1.000  H
  C51      1.0000 0.26865  0.38672  0.47410  Biso   1.000  C
  H26      1.0000 0.26310  0.42270  0.47160  Biso   1.000  H
  C52      1.0000 0.31693  0.36765  0.48555  Biso   1.000  C
  C53      1.0000 0.32384  0.31475  0.48792  Biso   1.000  C
  H27      1.0000 0.35710  0.30160  0.49510  Biso   1.000  H
  C54      1.0000 0.19800  0.26077  0.46700  Biso   1.000  C
  C55      1.0000 0.14722  0.27034  0.45670  Biso   1.000  C
  H28      1.0000 0.13570  0.30440  0.45070  Biso   1.000  H
  C56      1.0000 0.11284  0.22955  0.45520  Biso   1.000  C
  H29      1.0000 0.07750  0.23530  0.44840  Biso   1.000  H
  C57      1.0000 0.13117  0.18034  0.46367  Biso   1.000  C
  C58      1.0000 0.18279  0.17322  0.47388  Biso   1.000  C
  H30      1.0000 0.19530  0.13940  0.47950  Biso   1.000  H
  C59      1.0000 0.36174  0.40197  0.49347  Biso   1.000  C
  C60      1.0000 0.09665  0.13504  0.46551  Biso   1.000  C
  O45      1.0000 0.47422  0.53778  0.44789  Biso   1.000  O
  O46      1.0000 0.40870  0.36840  0.51070  Biso   1.000  O
  O47      1.0000 0.35300  0.45200  0.49460  Biso   1.000  O
  O48      1.0000 0.13020  0.08700  0.46450  Biso   1.000  O
  O49      1.0000 0.04210  0.15390  0.46850  Biso   1.000  O
  O50      1.0000 0.46566  0.55105  0.43034  Biso   1.000  O
  Zr6      1.0000 0.90776  0.98568  0.51678  Biso   1.000  Zr
  Cu6      1.0000 0.79169  0.29371  0.51413  Biso   1.000  Cu
  Cl11     1.0000 0.78931  0.36889  0.47505  Biso   1.000  Cl
  Cl12     1.0000 0.87270  0.29631  0.53926  Biso   1.000  Cl
  O51      1.0000 0.90283  0.11928  0.49380  Biso   1.000  O
  O52      1.0000 0.85446  0.05116  0.51440  Biso   1.000  O
  O53      1.0000 0.61784  0.40787  0.53400  Biso   1.000  O
  O54      1.0000 0.54957  0.35711  0.53301  Biso   1.000  O
  N11      1.0000 0.78557  0.21781  0.51946  Biso   1.000  N
  N12      1.0000 0.71564  0.28735  0.52390  Biso   1.000  N
  C61      1.0000 0.73836  0.19943  0.52858  Biso   1.000  C
  C62      1.0000 0.72833  0.14766  0.53360  Biso   1.000  C
  H31      1.0000 0.69490  0.13580  0.54220  Biso   1.000  H
  C63      1.0000 0.76865  0.11328  0.52590  Biso   1.000  C
  H32      1.0000 0.76310  0.07730  0.52840  Biso   1.000  H
  C64      1.0000 0.81693  0.13235  0.51445  Biso   1.000  C
  C65      1.0000 0.82384  0.18525  0.51208  Biso   1.000  C
  H33      1.0000 0.85710  0.19840  0.50490  Biso   1.000  H
  C66      1.0000 0.69800  0.23923  0.53300  Biso   1.000  C
  C67      1.0000 0.64722  0.22966  0.54330  Biso   1.000  C
  H34      1.0000 0.63570  0.19560  0.54930  Biso   1.000  H
  C68      1.0000 0.61284  0.27045  0.54480  Biso   1.000  C
  H35      1.0000 0.57750  0.26470  0.55160  Biso   1.000  H
  C69      1.0000 0.63117  0.31966  0.53633  Biso   1.000  C
  C70      1.0000 0.68279  0.32678  0.52612  Biso   1.000  C
  H36      1.0000 0.69530  0.36060  0.52050  Biso   1.000  H
  C71      1.0000 0.86174  0.09803  0.50653  Biso   1.000  C
  C72      1.0000 0.59665  0.36496  0.53449  Biso   1.000  C
  O55      1.0000 0.97422  0.96222  0.55211  Biso   1.000  O
  O56      1.0000 0.90870  0.13160  0.48930  Biso   1.000  O
  O57      1.0000 0.85300  0.04800  0.50540  Biso   1.000  O
  O58      1.0000 0.63020  0.41300  0.53550  Biso   1.000  O
  O59      1.0000 0.54210  0.34610  0.53150  Biso   1.000  O
  O60      1.0000 0.96566  0.94895  0.56966  Biso   1.000  O
  Zr7      1.0000 0.09224  0.48568  0.98322  Biso   1.000  Zr
  Cu7      1.0000 0.20831  0.79371  0.98587  Biso   1.000  Cu
  Cl13     1.0000 0.21069  0.86889  0.02495  Biso   1.000  Cl
  Cl14     1.0000 0.12730  0.79631  0.96074  Biso   1.000  Cl
  O61      1.0000 0.09717  0.61928  0.00620  Biso   1.000  O
  O62      1.0000 0.14554  0.55116  0.98560  Biso   1.000  O
  O63      1.0000 0.38216  0.90787  0.96600  Biso   1.000  O
  O64      1.0000 0.45043  0.85711  0.96699  Biso   1.000  O
  N13      1.0000 0.21443  0.71781  0.98054  Biso   1.000  N
  N14      1.0000 0.28436  0.78735  0.97610  Biso   1.000  N
  C73      1.0000 0.26164  0.69943  0.97142  Biso   1.000  C
  C74      1.0000 0.27167  0.64766  0.96640  Biso   1.000  C
  H37      1.0000 0.30510  0.63580  0.95780  Biso   1.000  H
  C75      1.0000 0.23135  0.61328  0.97410  Biso   1.000  C
  H38      1.0000 0.23690  0.57730  0.97160  Biso   1.000  H
  C76      1.0000 0.18307  0.63235  0.98555  Biso   1.000  C
  C77      1.0000 0.17616  0.68525  0.98792  Biso   1.000  C
  H39      1.0000 0.14290  0.69840  0.99510  Biso   1.000  H
  C78      1.0000 0.30200  0.73923  0.96700  Biso   1.000  C
  C79      1.0000 0.35278  0.72966  0.95670  Biso   1.000  C
  H40      1.0000 0.36430  0.69560  0.95070  Biso   1.000  H
  C80      1.0000 0.38716  0.77045  0.95520  Biso   1.000  C
  H41      1.0000 0.42250  0.76470  0.94840  Biso   1.000  H
  C81      1.0000 0.36883  0.81966  0.96367  Biso   1.000  C
  C82      1.0000 0.31721  0.82678  0.97388  Biso   1.000  C
  H42      1.0000 0.30470  0.86060  0.97950  Biso   1.000  H
  C83      1.0000 0.13826  0.59803  0.99347  Biso   1.000  C
  C84      1.0000 0.40335  0.86496  0.96551  Biso   1.000  C
  O65      1.0000 0.02578  0.46222  0.94789  Biso   1.000  O
  O66      1.0000 0.09130  0.63160  0.01070  Biso   1.000  O
  O67      1.0000 0.14700  0.54800  0.99460  Biso   1.000  O
  O68      1.0000 0.36980  0.91300  0.96450  Biso   1.000  O
  O69      1.0000 0.45790  0.84610  0.96850  Biso   1.000  O
  O70      1.0000 0.03434  0.44895  0.93034  Biso   1.000  O
  Zr8      1.0000 0.59224  0.01432  0.01678  Biso   1.000  Zr
  Cu8      1.0000 0.70831  0.70629  0.01413  Biso   1.000  Cu
  Cl15     1.0000 0.71069  0.63111  0.97505  Biso   1.000  Cl
  Cl16     1.0000 0.62730  0.70369  0.03926  Biso   1.000  Cl
  O71      1.0000 0.59717  0.88072  0.99380  Biso   1.000  O
  O72      1.0000 0.64554  0.94884  0.01440  Biso   1.000  O
  O73      1.0000 0.88216  0.59213  0.03400  Biso   1.000  O
  O74      1.0000 0.95043  0.64289  0.03301  Biso   1.000  O
  N15      1.0000 0.71443  0.78219  0.01946  Biso   1.000  N
  N16      1.0000 0.78436  0.71265  0.02390  Biso   1.000  N
  C85      1.0000 0.76164  0.80057  0.02858  Biso   1.000  C
  C86      1.0000 0.77167  0.85234  0.03360  Biso   1.000  C
  H43      1.0000 0.80510  0.86420  0.04220  Biso   1.000  H
  C87      1.0000 0.73135  0.88672  0.02590  Biso   1.000  C
  H44      1.0000 0.73690  0.92270  0.02840  Biso   1.000  H
  C88      1.0000 0.68307  0.86765  0.01445  Biso   1.000  C
  C89      1.0000 0.67616  0.81475  0.01208  Biso   1.000  C
  H45      1.0000 0.64290  0.80160  0.00490  Biso   1.000  H
  C90      1.0000 0.80200  0.76077  0.03300  Biso   1.000  C
  C91      1.0000 0.85278  0.77034  0.04330  Biso   1.000  C
  H46      1.0000 0.86430  0.80440  0.04930  Biso   1.000  H
  C92      1.0000 0.88716  0.72955  0.04480  Biso   1.000  C
  H47      1.0000 0.92250  0.73530  0.05160  Biso   1.000  H
  C93      1.0000 0.86883  0.68034  0.03633  Biso   1.000  C
  C94      1.0000 0.81721  0.67322  0.02612  Biso   1.000  C
  H48      1.0000 0.80470  0.63940  0.02050  Biso   1.000  H
  C95      1.0000 0.63826  0.90197  0.00653  Biso   1.000  C
  C96      1.0000 0.90335  0.63504  0.03449  Biso   1.000  C
  O75      1.0000 0.52578  0.03778  0.05211  Biso   1.000  O
  O76      1.0000 0.59130  0.86840  0.98930  Biso   1.000  O
  O77      1.0000 0.64700  0.95200  0.00540  Biso   1.000  O
  O78      1.0000 0.86980  0.58700  0.03550  Biso   1.000  O
  O79      1.0000 0.95790  0.65390  0.03150  Biso   1.000  O
  O80      1.0000 0.53434  0.05105  0.06966  Biso   1.000  O
  Zr9      1.0000 0.48322  0.40776  0.51432  Biso   1.000  Zr
  Cu9      1.0000 0.48587  0.29169  0.20629  Biso   1.000  Cu
  Cl17     1.0000 0.52495  0.28931  0.13111  Biso   1.000  Cl
  Cl18     1.0000 0.46074  0.37270  0.20369  Biso   1.000  Cl
  O81      1.0000 0.50620  0.40283  0.38072  Biso   1.000  O
  O82      1.0000 0.48560  0.35446  0.44884  Biso   1.000  O
  O83      1.0000 0.46600  0.11784  0.09213  Biso   1.000  O
  O84      1.0000 0.46699  0.04957  0.14289  Biso   1.000  O
  N17      1.0000 0.48054  0.28557  0.28219  Biso   1.000  N
  N18      1.0000 0.47610  0.21564  0.21265  Biso   1.000  N
  C97      1.0000 0.47142  0.23836  0.30057  Biso   1.000  C
  C98      1.0000 0.46640  0.22833  0.35234  Biso   1.000  C
  H49      1.0000 0.45780  0.19490  0.36420  Biso   1.000  H
  C99      1.0000 0.47410  0.26865  0.38672  Biso   1.000  C
  H50      1.0000 0.47160  0.26310  0.42270  Biso   1.000  H
  C100     1.0000 0.48555  0.31693  0.36765  Biso   1.000  C
  C101     1.0000 0.48792  0.32384  0.31475  Biso   1.000  C
  H51      1.0000 0.49510  0.35710  0.30160  Biso   1.000  H
  C102     1.0000 0.46700  0.19800  0.26077  Biso   1.000  C
  C103     1.0000 0.45670  0.14722  0.27034  Biso   1.000  C
  H52      1.0000 0.45070  0.13570  0.30440  Biso   1.000  H
  C104     1.0000 0.45520  0.11284  0.22955  Biso   1.000  C
  H53      1.0000 0.44840  0.07750  0.23530  Biso   1.000  H
  C105     1.0000 0.46367  0.13117  0.18034  Biso   1.000  C
  C106     1.0000 0.47388  0.18279  0.17322  Biso   1.000  C
  H54      1.0000 0.47950  0.19530  0.13940  Biso   1.000  H
  C107     1.0000 0.49347  0.36174  0.40197  Biso   1.000  C
  C108     1.0000 0.46551  0.09665  0.13504  Biso   1.000  C
  O85      1.0000 0.44789  0.47422  0.53778  Biso   1.000  O
  O86      1.0000 0.51070  0.40870  0.36840  Biso   1.000  O
  O87      1.0000 0.49460  0.35300  0.45200  Biso   1.000  O
  O88      1.0000 0.46450  0.13020  0.08700  Biso   1.000  O
  O89      1.0000 0.46850  0.04210  0.15390  Biso   1.000  O
  O90      1.0000 0.43034  0.46566  0.55105  Biso   1.000  O
  Zr10     1.0000 0.51678  0.90776  0.98568  Biso   1.000  Zr
  Cu10     1.0000 0.51413  0.79169  0.29371  Biso   1.000  Cu
  Cl19     1.0000 0.47505  0.78931  0.36889  Biso   1.000  Cl
  Cl20     1.0000 0.53926  0.87270  0.29631  Biso   1.000  Cl
  O91      1.0000 0.49380  0.90283  0.11928  Biso   1.000  O
  O92      1.0000 0.51440  0.85446  0.05116  Biso   1.000  O
  O93      1.0000 0.53400  0.61784  0.40787  Biso   1.000  O
  O94      1.0000 0.53301  0.54957  0.35711  Biso   1.000  O
  N19      1.0000 0.51946  0.78557  0.21781  Biso   1.000  N
  N20      1.0000 0.52390  0.71564  0.28735  Biso   1.000  N
  C109     1.0000 0.52858  0.73836  0.19943  Biso   1.000  C
  C110     1.0000 0.53360  0.72833  0.14766  Biso   1.000  C
  H55      1.0000 0.54220  0.69490  0.13580  Biso   1.000  H
  C111     1.0000 0.52590  0.76865  0.11328  Biso   1.000  C
  H56      1.0000 0.52840  0.76310  0.07730  Biso   1.000  H
  C112     1.0000 0.51445  0.81693  0.13235  Biso   1.000  C
  C113     1.0000 0.51208  0.82384  0.18525  Biso   1.000  C
  H57      1.0000 0.50490  0.85710  0.19840  Biso   1.000  H
  C114     1.0000 0.53300  0.69800  0.23923  Biso   1.000  C
  C115     1.0000 0.54330  0.64722  0.22966  Biso   1.000  C
  H58      1.0000 0.54930  0.63570  0.19560  Biso   1.000  H
  C116     1.0000 0.54480  0.61284  0.27045  Biso   1.000  C
  H59      1.0000 0.55160  0.57750  0.26470  Biso   1.000  H
  C117     1.0000 0.53633  0.63117  0.31966  Biso   1.000  C
  C118     1.0000 0.52612  0.68279  0.32678  Biso   1.000  C
  H60      1.0000 0.52050  0.69530  0.36060  Biso   1.000  H
  C119     1.0000 0.50653  0.86174  0.09803  Biso   1.000  C
  C120     1.0000 0.53449  0.59665  0.36496  Biso   1.000  C
  O95      1.0000 0.55211  0.97422  0.96222  Biso   1.000  O
  O96      1.0000 0.48930  0.90870  0.13160  Biso   1.000  O
  O97      1.0000 0.50540  0.85300  0.04800  Biso   1.000  O
  O98      1.0000 0.53550  0.63020  0.41300  Biso   1.000  O
  O99      1.0000 0.53150  0.54210  0.34610  Biso   1.000  O
  O100     1.0000 0.56966  0.96566  0.94895  Biso   1.000  O
  Zr11     1.0000 0.98322  0.09224  0.48568  Biso   1.000  Zr
  Cu11     1.0000 0.98587  0.20831  0.79371  Biso   1.000  Cu
  Cl21     1.0000 0.02495  0.21069  0.86889  Biso   1.000  Cl
  Cl22     1.0000 0.96074  0.12730  0.79631  Biso   1.000  Cl
  O101     1.0000 0.00620  0.09717  0.61928  Biso   1.000  O
  O102     1.0000 0.98560  0.14554  0.55116  Biso   1.000  O
  O103     1.0000 0.96600  0.38216  0.90787  Biso   1.000  O
  O104     1.0000 0.96699  0.45043  0.85711  Biso   1.000  O
  N21      1.0000 0.98054  0.21443  0.71781  Biso   1.000  N
  N22      1.0000 0.97610  0.28436  0.78735  Biso   1.000  N
  C121     1.0000 0.97142  0.26164  0.69943  Biso   1.000  C
  C122     1.0000 0.96640  0.27167  0.64766  Biso   1.000  C
  H61      1.0000 0.95780  0.30510  0.63580  Biso   1.000  H
  C123     1.0000 0.97410  0.23135  0.61328  Biso   1.000  C
  H62      1.0000 0.97160  0.23690  0.57730  Biso   1.000  H
  C124     1.0000 0.98555  0.18307  0.63235  Biso   1.000  C
  C125     1.0000 0.98792  0.17616  0.68525  Biso   1.000  C
  H63      1.0000 0.99510  0.14290  0.69840  Biso   1.000  H
  C126     1.0000 0.96700  0.30200  0.73923  Biso   1.000  C
  C127     1.0000 0.95670  0.35278  0.72966  Biso   1.000  C
  H64      1.0000 0.95070  0.36430  0.69560  Biso   1.000  H
  C128     1.0000 0.95520  0.38716  0.77045  Biso   1.000  C
  H65      1.0000 0.94840  0.42250  0.76470  Biso   1.000  H
  C129     1.0000 0.96367  0.36883  0.81966  Biso   1.000  C
  C130     1.0000 0.97388  0.31721  0.82678  Biso   1.000  C
  H66      1.0000 0.97950  0.30470  0.86060  Biso   1.000  H
  C131     1.0000 0.99347  0.13826  0.59803  Biso   1.000  C
  C132     1.0000 0.96551  0.40335  0.86496  Biso   1.000  C
  O105     1.0000 0.94789  0.02578  0.46222  Biso   1.000  O
  O106     1.0000 0.01070  0.09130  0.63160  Biso   1.000  O
  O107     1.0000 0.99460  0.14700  0.54800  Biso   1.000  O
  O108     1.0000 0.96450  0.36980  0.91300  Biso   1.000  O
  O109     1.0000 0.96850  0.45790  0.84610  Biso   1.000  O
  O110     1.0000 0.93034  0.03434  0.44895  Biso   1.000  O
  Zr12     1.0000 0.01678  0.59224  0.01432  Biso   1.000  Zr
  Cu12     1.0000 0.01413  0.70831  0.70629  Biso   1.000  Cu
  Cl23     1.0000 0.97505  0.71069  0.63111  Biso   1.000  Cl
  Cl24     1.0000 0.03926  0.62730  0.70369  Biso   1.000  Cl
  O111     1.0000 0.99380  0.59717  0.88072  Biso   1.000  O
  O112     1.0000 0.01440  0.64554  0.94884  Biso   1.000  O
  O113     1.0000 0.03400  0.88216  0.59213  Biso   1.000  O
  O114     1.0000 0.03301  0.95043  0.64289  Biso   1.000  O
  N23      1.0000 0.01946  0.71443  0.78219  Biso   1.000  N
  N24      1.0000 0.02390  0.78436  0.71265  Biso   1.000  N
  C133     1.0000 0.02858  0.76164  0.80057  Biso   1.000  C
  C134     1.0000 0.03360  0.77167  0.85234  Biso   1.000  C
  H67      1.0000 0.04220  0.80510  0.86420  Biso   1.000  H
  C135     1.0000 0.02590  0.73135  0.88672  Biso   1.000  C
  H68      1.0000 0.02840  0.73690  0.92270  Biso   1.000  H
  C136     1.0000 0.01445  0.68307  0.86765  Biso   1.000  C
  C137     1.0000 0.01208  0.67616  0.81475  Biso   1.000  C
  H69      1.0000 0.00490  0.64290  0.80160  Biso   1.000  H
  C138     1.0000 0.03300  0.80200  0.76077  Biso   1.000  C
  C139     1.0000 0.04330  0.85278  0.77034  Biso   1.000  C
  H70      1.0000 0.04930  0.86430  0.80440  Biso   1.000  H
  C140     1.0000 0.04480  0.88716  0.72955  Biso   1.000  C
  H71      1.0000 0.05160  0.92250  0.73530  Biso   1.000  H
  C141     1.0000 0.03633  0.86883  0.68034  Biso   1.000  C
  C142     1.0000 0.02612  0.81721  0.67322  Biso   1.000  C
  H72      1.0000 0.02050  0.80470  0.63940  Biso   1.000  H
  C143     1.0000 0.00653  0.63826  0.90197  Biso   1.000  C
  C144     1.0000 0.03449  0.90335  0.63504  Biso   1.000  C
  O115     1.0000 0.05211  0.52578  0.03778  Biso   1.000  O
  O116     1.0000 0.98930  0.59130  0.86840  Biso   1.000  O
  O117     1.0000 0.00540  0.64700  0.95200  Biso   1.000  O
  O118     1.0000 0.03550  0.86980  0.58700  Biso   1.000  O
  O119     1.0000 0.03150  0.95790  0.65390  Biso   1.000  O
  O120     1.0000 0.06966  0.53434  0.05105  Biso   1.000  O
  Zr13     1.0000 0.48568  0.51678  0.59224  Biso   1.000  Zr
  Cu13     1.0000 0.79371  0.51413  0.70831  Biso   1.000  Cu
  Cl25     1.0000 0.86889  0.47505  0.71069  Biso   1.000  Cl
  Cl26     1.0000 0.79631  0.53926  0.62730  Biso   1.000  Cl
  O121     1.0000 0.61928  0.49380  0.59717  Biso   1.000  O
  O122     1.0000 0.55116  0.51440  0.64554  Biso   1.000  O
  O123     1.0000 0.90787  0.53400  0.88216  Biso   1.000  O
  O124     1.0000 0.85711  0.53301  0.95043  Biso   1.000  O
  N25      1.0000 0.71781  0.51946  0.71443  Biso   1.000  N
  N26      1.0000 0.78735  0.52390  0.78436  Biso   1.000  N
  C145     1.0000 0.69943  0.52858  0.76164  Biso   1.000  C
  C146     1.0000 0.64766  0.53360  0.77167  Biso   1.000  C
  H73      1.0000 0.63580  0.54220  0.80510  Biso   1.000  H
  C147     1.0000 0.61328  0.52590  0.73135  Biso   1.000  C
  H74      1.0000 0.57730  0.52840  0.73690  Biso   1.000  H
  C148     1.0000 0.63235  0.51445  0.68307  Biso   1.000  C
  C149     1.0000 0.68525  0.51208  0.67616  Biso   1.000  C
  H75      1.0000 0.69840  0.50490  0.64290  Biso   1.000  H
  C150     1.0000 0.73923  0.53300  0.80200  Biso   1.000  C
  C151     1.0000 0.72966  0.54330  0.85278  Biso   1.000  C
  H76      1.0000 0.69560  0.54930  0.86430  Biso   1.000  H
  C152     1.0000 0.77045  0.54480  0.88716  Biso   1.000  C
  H77      1.0000 0.76470  0.55160  0.92250  Biso   1.000  H
  C153     1.0000 0.81966  0.53633  0.86883  Biso   1.000  C
  C154     1.0000 0.82678  0.52612  0.81721  Biso   1.000  C
  H78      1.0000 0.86060  0.52050  0.80470  Biso   1.000  H
  C155     1.0000 0.59803  0.50653  0.63826  Biso   1.000  C
  C156     1.0000 0.86496  0.53449  0.90335  Biso   1.000  C
  O125     1.0000 0.46222  0.55211  0.52578  Biso   1.000  O
  O126     1.0000 0.63160  0.48930  0.59130  Biso   1.000  O
  O127     1.0000 0.54800  0.50540  0.64700  Biso   1.000  O
  O128     1.0000 0.91300  0.53550  0.86980  Biso   1.000  O
  O129     1.0000 0.84610  0.53150  0.95790  Biso   1.000  O
  O130     1.0000 0.44895  0.56966  0.53434  Biso   1.000  O
  Zr14     1.0000 0.01432  0.48322  0.09224  Biso   1.000  Zr
  Cu14     1.0000 0.70629  0.48587  0.20831  Biso   1.000  Cu
  Cl27     1.0000 0.63111  0.52495  0.21069  Biso   1.000  Cl
  Cl28     1.0000 0.70369  0.46074  0.12730  Biso   1.000  Cl
  O131     1.0000 0.88072  0.50620  0.09717  Biso   1.000  O
  O132     1.0000 0.94884  0.48560  0.14554  Biso   1.000  O
  O133     1.0000 0.59213  0.46600  0.38216  Biso   1.000  O
  O134     1.0000 0.64289  0.46699  0.45043  Biso   1.000  O
  N27      1.0000 0.78219  0.48054  0.21443  Biso   1.000  N
  N28      1.0000 0.71265  0.47610  0.28436  Biso   1.000  N
  C157     1.0000 0.80057  0.47142  0.26164  Biso   1.000  C
  C158     1.0000 0.85234  0.46640  0.27167  Biso   1.000  C
  H79      1.0000 0.86420  0.45780  0.30510  Biso   1.000  H
  C159     1.0000 0.88672  0.47410  0.23135  Biso   1.000  C
  H80      1.0000 0.92270  0.47160  0.23690  Biso   1.000  H
  C160     1.0000 0.86765  0.48555  0.18307  Biso   1.000  C
  C161     1.0000 0.81475  0.48792  0.17616  Biso   1.000  C
  H81      1.0000 0.80160  0.49510  0.14290  Biso   1.000  H
  C162     1.0000 0.76077  0.46700  0.30200  Biso   1.000  C
  C163     1.0000 0.77034  0.45670  0.35278  Biso   1.000  C
  H82      1.0000 0.80440  0.45070  0.36430  Biso   1.000  H
  C164     1.0000 0.72955  0.45520  0.38716  Biso   1.000  C
  H83      1.0000 0.73530  0.44840  0.42250  Biso   1.000  H
  C165     1.0000 0.68034  0.46367  0.36883  Biso   1.000  C
  C166     1.0000 0.67322  0.47388  0.31721  Biso   1.000  C
  H84      1.0000 0.63940  0.47950  0.30470  Biso   1.000  H
  C167     1.0000 0.90197  0.49347  0.13826  Biso   1.000  C
  C168     1.0000 0.63504  0.46551  0.40335  Biso   1.000  C
  O135     1.0000 0.03778  0.44789  0.02578  Biso   1.000  O
  O136     1.0000 0.86840  0.51070  0.09130  Biso   1.000  O
  O137     1.0000 0.95200  0.49460  0.14700  Biso   1.000  O
  O138     1.0000 0.58700  0.46450  0.36980  Biso   1.000  O
  O139     1.0000 0.65390  0.46850  0.45790  Biso   1.000  O
  O140     1.0000 0.05105  0.43034  0.03434  Biso   1.000  O
  Zr15     1.0000 0.51432  0.01678  0.90776  Biso   1.000  Zr
  Cu15     1.0000 0.20629  0.01413  0.79169  Biso   1.000  Cu
  Cl29     1.0000 0.13111  0.97505  0.78931  Biso   1.000  Cl
  Cl30     1.0000 0.20369  0.03926  0.87270  Biso   1.000  Cl
  O141     1.0000 0.38072  0.99380  0.90283  Biso   1.000  O
  O142     1.0000 0.44884  0.01440  0.85446  Biso   1.000  O
  O143     1.0000 0.09213  0.03400  0.61784  Biso   1.000  O
  O144     1.0000 0.14289  0.03301  0.54957  Biso   1.000  O
  N29      1.0000 0.28219  0.01946  0.78557  Biso   1.000  N
  N30      1.0000 0.21265  0.02390  0.71564  Biso   1.000  N
  C169     1.0000 0.30057  0.02858  0.73836  Biso   1.000  C
  C170     1.0000 0.35234  0.03360  0.72833  Biso   1.000  C
  H85      1.0000 0.36420  0.04220  0.69490  Biso   1.000  H
  C171     1.0000 0.38672  0.02590  0.76865  Biso   1.000  C
  H86      1.0000 0.42270  0.02840  0.76310  Biso   1.000  H
  C172     1.0000 0.36765  0.01445  0.81693  Biso   1.000  C
  C173     1.0000 0.31475  0.01208  0.82384  Biso   1.000  C
  H87      1.0000 0.30160  0.00490  0.85710  Biso   1.000  H
  C174     1.0000 0.26077  0.03300  0.69800  Biso   1.000  C
  C175     1.0000 0.27034  0.04330  0.64722  Biso   1.000  C
  H88      1.0000 0.30440  0.04930  0.63570  Biso   1.000  H
  C176     1.0000 0.22955  0.04480  0.61284  Biso   1.000  C
  H89      1.0000 0.23530  0.05160  0.57750  Biso   1.000  H
  C177     1.0000 0.18034  0.03633  0.63117  Biso   1.000  C
  C178     1.0000 0.17322  0.02612  0.68279  Biso   1.000  C
  H90      1.0000 0.13940  0.02050  0.69530  Biso   1.000  H
  C179     1.0000 0.40197  0.00653  0.86174  Biso   1.000  C
  C180     1.0000 0.13504  0.03449  0.59665  Biso   1.000  C
  O145     1.0000 0.53778  0.05211  0.97422  Biso   1.000  O
  O146     1.0000 0.36840  0.98930  0.90870  Biso   1.000  O
  O147     1.0000 0.45200  0.00540  0.85300  Biso   1.000  O
  O148     1.0000 0.08700  0.03550  0.63020  Biso   1.000  O
  O149     1.0000 0.15390  0.03150  0.54210  Biso   1.000  O
  O150     1.0000 0.55105  0.06966  0.96566  Biso   1.000  O
  Zr16     1.0000 0.98568  0.98322  0.40776  Biso   1.000  Zr
  Cu16     1.0000 0.29371  0.98587  0.29169  Biso   1.000  Cu
  Cl31     1.0000 0.36889  0.02495  0.28931  Biso   1.000  Cl
  Cl32     1.0000 0.29631  0.96074  0.37270  Biso   1.000  Cl
  O151     1.0000 0.11928  0.00620  0.40283  Biso   1.000  O
  O152     1.0000 0.05116  0.98560  0.35446  Biso   1.000  O
  O153     1.0000 0.40787  0.96600  0.11784  Biso   1.000  O
  O154     1.0000 0.35711  0.96699  0.04957  Biso   1.000  O
  N31      1.0000 0.21781  0.98054  0.28557  Biso   1.000  N
  N32      1.0000 0.28735  0.97610  0.21564  Biso   1.000  N
  C181     1.0000 0.19943  0.97142  0.23836  Biso   1.000  C
  C182     1.0000 0.14766  0.96640  0.22833  Biso   1.000  C
  H91      1.0000 0.13580  0.95780  0.19490  Biso   1.000  H
  C183     1.0000 0.11328  0.97410  0.26865  Biso   1.000  C
  H92      1.0000 0.07730  0.97160  0.26310  Biso   1.000  H
  C184     1.0000 0.13235  0.98555  0.31693  Biso   1.000  C
  C185     1.0000 0.18525  0.98792  0.32384  Biso   1.000  C
  H93      1.0000 0.19840  0.99510  0.35710  Biso   1.000  H
  C186     1.0000 0.23923  0.96700  0.19800  Biso   1.000  C
  C187     1.0000 0.22966  0.95670  0.14722  Biso   1.000  C
  H94      1.0000 0.19560  0.95070  0.13570  Biso   1.000  H
  C188     1.0000 0.27045  0.95520  0.11284  Biso   1.000  C
  H95      1.0000 0.26470  0.94840  0.07750  Biso   1.000  H
  C189     1.0000 0.31966  0.96367  0.13117  Biso   1.000  C
  C190     1.0000 0.32678  0.97388  0.18279  Biso   1.000  C
  H96      1.0000 0.36060  0.97950  0.19530  Biso   1.000  H
  C191     1.0000 0.09803  0.99347  0.36174  Biso   1.000  C
  C192     1.0000 0.36496  0.96551  0.09665  Biso   1.000  C
  O155     1.0000 0.96222  0.94789  0.47422  Biso   1.000  O
  O156     1.0000 0.13160  0.01070  0.40870  Biso   1.000  O
  O157     1.0000 0.04800  0.99460  0.35300  Biso   1.000  O
  O158     1.0000 0.41300  0.96450  0.13020  Biso   1.000  O
  O159     1.0000 0.34610  0.96850  0.04210  Biso   1.000  O
  O160     1.0000 0.94895  0.93034  0.46566  Biso   1.000  O
  Zr17     1.0000 0.59224  0.48568  0.51678  Biso   1.000  Zr
  Cu17     1.0000 0.70831  0.79371  0.51413  Biso   1.000  Cu
  Cl33     1.0000 0.71069  0.86889  0.47505  Biso   1.000  Cl
  Cl34     1.0000 0.62730  0.79631  0.53926  Biso   1.000  Cl
  O161     1.0000 0.59717  0.61928  0.49380  Biso   1.000  O
  O162     1.0000 0.64554  0.55116  0.51440  Biso   1.000  O
  O163     1.0000 0.88216  0.90787  0.53400  Biso   1.000  O
  O164     1.0000 0.95043  0.85711  0.53301  Biso   1.000  O
  N33      1.0000 0.71443  0.71781  0.51946  Biso   1.000  N
  N34      1.0000 0.78436  0.78735  0.52390  Biso   1.000  N
  C193     1.0000 0.76164  0.69943  0.52858  Biso   1.000  C
  C194     1.0000 0.77167  0.64766  0.53360  Biso   1.000  C
  H97      1.0000 0.80510  0.63580  0.54220  Biso   1.000  H
  C195     1.0000 0.73135  0.61328  0.52590  Biso   1.000  C
  H98      1.0000 0.73690  0.57730  0.52840  Biso   1.000  H
  C196     1.0000 0.68307  0.63235  0.51445  Biso   1.000  C
  C197     1.0000 0.67616  0.68525  0.51208  Biso   1.000  C
  H99      1.0000 0.64290  0.69840  0.50490  Biso   1.000  H
  C198     1.0000 0.80200  0.73923  0.53300  Biso   1.000  C
  C199     1.0000 0.85278  0.72966  0.54330  Biso   1.000  C
  H100     1.0000 0.86430  0.69560  0.54930  Biso   1.000  H
  C200     1.0000 0.88716  0.77045  0.54480  Biso   1.000  C
  H101     1.0000 0.92250  0.76470  0.55160  Biso   1.000  H
  C201     1.0000 0.86883  0.81966  0.53633  Biso   1.000  C
  C202     1.0000 0.81721  0.82678  0.52612  Biso   1.000  C
  H102     1.0000 0.80470  0.86060  0.52050  Biso   1.000  H
  C203     1.0000 0.63826  0.59803  0.50653  Biso   1.000  C
  C204     1.0000 0.90335  0.86496  0.53449  Biso   1.000  C
  O165     1.0000 0.52578  0.46222  0.55211  Biso   1.000  O
  O166     1.0000 0.59130  0.63160  0.48930  Biso   1.000  O
  O167     1.0000 0.64700  0.54800  0.50540  Biso   1.000  O
  O168     1.0000 0.86980  0.91300  0.53550  Biso   1.000  O
  O169     1.0000 0.95790  0.84610  0.53150  Biso   1.000  O
  O170     1.0000 0.53434  0.44895  0.56966  Biso   1.000  O
  Zr18     1.0000 0.09224  0.01432  0.48322  Biso   1.000  Zr
  Cu18     1.0000 0.20831  0.70629  0.48587  Biso   1.000  Cu
  Cl35     1.0000 0.21069  0.63111  0.52495  Biso   1.000  Cl
  Cl36     1.0000 0.12730  0.70369  0.46074  Biso   1.000  Cl
  O171     1.0000 0.09717  0.88072  0.50620  Biso   1.000  O
  O172     1.0000 0.14554  0.94884  0.48560  Biso   1.000  O
  O173     1.0000 0.38216  0.59213  0.46600  Biso   1.000  O
  O174     1.0000 0.45043  0.64289  0.46699  Biso   1.000  O
  N35      1.0000 0.21443  0.78219  0.48054  Biso   1.000  N
  N36      1.0000 0.28436  0.71265  0.47610  Biso   1.000  N
  C205     1.0000 0.26164  0.80057  0.47142  Biso   1.000  C
  C206     1.0000 0.27167  0.85234  0.46640  Biso   1.000  C
  H103     1.0000 0.30510  0.86420  0.45780  Biso   1.000  H
  C207     1.0000 0.23135  0.88672  0.47410  Biso   1.000  C
  H104     1.0000 0.23690  0.92270  0.47160  Biso   1.000  H
  C208     1.0000 0.18307  0.86765  0.48555  Biso   1.000  C
  C209     1.0000 0.17616  0.81475  0.48792  Biso   1.000  C
  H105     1.0000 0.14290  0.80160  0.49510  Biso   1.000  H
  C210     1.0000 0.30200  0.76077  0.46700  Biso   1.000  C
  C211     1.0000 0.35278  0.77034  0.45670  Biso   1.000  C
  H106     1.0000 0.36430  0.80440  0.45070  Biso   1.000  H
  C212     1.0000 0.38716  0.72955  0.45520  Biso   1.000  C
  H107     1.0000 0.42250  0.73530  0.44840  Biso   1.000  H
  C213     1.0000 0.36883  0.68034  0.46367  Biso   1.000  C
  C214     1.0000 0.31721  0.67322  0.47388  Biso   1.000  C
  H108     1.0000 0.30470  0.63940  0.47950  Biso   1.000  H
  C215     1.0000 0.13826  0.90197  0.49347  Biso   1.000  C
  C216     1.0000 0.40335  0.63504  0.46551  Biso   1.000  C
  O175     1.0000 0.02578  0.03778  0.44789  Biso   1.000  O
  O176     1.0000 0.09130  0.86840  0.51070  Biso   1.000  O
  O177     1.0000 0.14700  0.95200  0.49460  Biso   1.000  O
  O178     1.0000 0.36980  0.58700  0.46450  Biso   1.000  O
  O179     1.0000 0.45790  0.65390  0.46850  Biso   1.000  O
  O180     1.0000 0.03434  0.05105  0.43034  Biso   1.000  O
  Zr19     1.0000 0.90776  0.51432  0.01678  Biso   1.000  Zr
  Cu19     1.0000 0.79169  0.20629  0.01413  Biso   1.000  Cu
  Cl37     1.0000 0.78931  0.13111  0.97505  Biso   1.000  Cl
  Cl38     1.0000 0.87270  0.20369  0.03926  Biso   1.000  Cl
  O181     1.0000 0.90283  0.38072  0.99380  Biso   1.000  O
  O182     1.0000 0.85446  0.44884  0.01440  Biso   1.000  O
  O183     1.0000 0.61784  0.09213  0.03400  Biso   1.000  O
  O184     1.0000 0.54957  0.14289  0.03301  Biso   1.000  O
  N37      1.0000 0.78557  0.28219  0.01946  Biso   1.000  N
  N38      1.0000 0.71564  0.21265  0.02390  Biso   1.000  N
  C217     1.0000 0.73836  0.30057  0.02858  Biso   1.000  C
  C218     1.0000 0.72833  0.35234  0.03360  Biso   1.000  C
  H109     1.0000 0.69490  0.36420  0.04220  Biso   1.000  H
  C219     1.0000 0.76865  0.38672  0.02590  Biso   1.000  C
  H110     1.0000 0.76310  0.42270  0.02840  Biso   1.000  H
  C220     1.0000 0.81693  0.36765  0.01445  Biso   1.000  C
  C221     1.0000 0.82384  0.31475  0.01208  Biso   1.000  C
  H111     1.0000 0.85710  0.30160  0.00490  Biso   1.000  H
  C222     1.0000 0.69800  0.26077  0.03300  Biso   1.000  C
  C223     1.0000 0.64722  0.27034  0.04330  Biso   1.000  C
  H112     1.0000 0.63570  0.30440  0.04930  Biso   1.000  H
  C224     1.0000 0.61284  0.22955  0.04480  Biso   1.000  C
  H113     1.0000 0.57750  0.23530  0.05160  Biso   1.000  H
  C225     1.0000 0.63117  0.18034  0.03633  Biso   1.000  C
  C226     1.0000 0.68279  0.17322  0.02612  Biso   1.000  C
  H114     1.0000 0.69530  0.13940  0.02050  Biso   1.000  H
  C227     1.0000 0.86174  0.40197  0.00653  Biso   1.000  C
  C228     1.0000 0.59665  0.13504  0.03449  Biso   1.000  C
  O185     1.0000 0.97422  0.53778  0.05211  Biso   1.000  O
  O186     1.0000 0.90870  0.36840  0.98930  Biso   1.000  O
  O187     1.0000 0.85300  0.45200  0.00540  Biso   1.000  O
  O188     1.0000 0.63020  0.08700  0.03550  Biso   1.000  O
  O189     1.0000 0.54210  0.15390  0.03150  Biso   1.000  O
  O190     1.0000 0.96566  0.55105  0.06966  Biso   1.000  O
  Zr20     1.0000 0.40776  0.98568  0.98322  Biso   1.000  Zr
  Cu20     1.0000 0.29169  0.29371  0.98587  Biso   1.000  Cu
  Cl39     1.0000 0.28931  0.36889  0.02495  Biso   1.000  Cl
  Cl40     1.0000 0.37270  0.29631  0.96074  Biso   1.000  Cl
  O191     1.0000 0.40283  0.11928  0.00620  Biso   1.000  O
  O192     1.0000 0.35446  0.05116  0.98560  Biso   1.000  O
  O193     1.0000 0.11784  0.40787  0.96600  Biso   1.000  O
  O194     1.0000 0.04957  0.35711  0.96699  Biso   1.000  O
  N39      1.0000 0.28557  0.21781  0.98054  Biso   1.000  N
  N40      1.0000 0.21564  0.28735  0.97610  Biso   1.000  N
  C229     1.0000 0.23836  0.19943  0.97142  Biso   1.000  C
  C230     1.0000 0.22833  0.14766  0.96640  Biso   1.000  C
  H115     1.0000 0.19490  0.13580  0.95780  Biso   1.000  H
  C231     1.0000 0.26865  0.11328  0.97410  Biso   1.000  C
  H116     1.0000 0.26310  0.07730  0.97160  Biso   1.000  H
  C232     1.0000 0.31693  0.13235  0.98555  Biso   1.000  C
  C233     1.0000 0.32384  0.18525  0.98792  Biso   1.000  C
  H117     1.0000 0.35710  0.19840  0.99510  Biso   1.000  H
  C234     1.0000 0.19800  0.23923  0.96700  Biso   1.000  C
  C235     1.0000 0.14722  0.22966  0.95670  Biso   1.000  C
  H118     1.0000 0.13570  0.19560  0.95070  Biso   1.000  H
  C236     1.0000 0.11284  0.27045  0.95520  Biso   1.000  C
  H119     1.0000 0.07750  0.26470  0.94840  Biso   1.000  H
  C237     1.0000 0.13117  0.31966  0.96367  Biso   1.000  C
  C238     1.0000 0.18279  0.32678  0.97388  Biso   1.000  C
  H120     1.0000 0.19530  0.36060  0.97950  Biso   1.000  H
  C239     1.0000 0.36174  0.09803  0.99347  Biso   1.000  C
  C240     1.0000 0.09665  0.36496  0.96551  Biso   1.000  C
  O195     1.0000 0.47422  0.96222  0.94789  Biso   1.000  O
  O196     1.0000 0.40870  0.13160  0.01070  Biso   1.000  O
  O197     1.0000 0.35300  0.04800  0.99460  Biso   1.000  O
  O198     1.0000 0.13020  0.41300  0.96450  Biso   1.000  O
  O199     1.0000 0.04210  0.34610  0.96850  Biso   1.000  O
  O200     1.0000 0.46566  0.94895  0.93034  Biso   1.000  O
  Zr21     1.0000 0.51678  0.59224  0.48568  Biso   1.000  Zr
  Cu21     1.0000 0.51413  0.70831  0.79371  Biso   1.000  Cu
  Cl41     1.0000 0.47505  0.71069  0.86889  Biso   1.000  Cl
  Cl42     1.0000 0.53926  0.62730  0.79631  Biso   1.000  Cl
  O201     1.0000 0.49380  0.59717  0.61928  Biso   1.000  O
  O202     1.0000 0.51440  0.64554  0.55116  Biso   1.000  O
  O203     1.0000 0.53400  0.88216  0.90787  Biso   1.000  O
  O204     1.0000 0.53301  0.95043  0.85711  Biso   1.000  O
  N41      1.0000 0.51946  0.71443  0.71781  Biso   1.000  N
  N42      1.0000 0.52390  0.78436  0.78735  Biso   1.000  N
  C241     1.0000 0.52858  0.76164  0.69943  Biso   1.000  C
  C242     1.0000 0.53360  0.77167  0.64766  Biso   1.000  C
  H121     1.0000 0.54220  0.80510  0.63580  Biso   1.000  H
  C243     1.0000 0.52590  0.73135  0.61328  Biso   1.000  C
  H122     1.0000 0.52840  0.73690  0.57730  Biso   1.000  H
  C244     1.0000 0.51445  0.68307  0.63235  Biso   1.000  C
  C245     1.0000 0.51208  0.67616  0.68525  Biso   1.000  C
  H123     1.0000 0.50490  0.64290  0.69840  Biso   1.000  H
  C246     1.0000 0.53300  0.80200  0.73923  Biso   1.000  C
  C247     1.0000 0.54330  0.85278  0.72966  Biso   1.000  C
  H124     1.0000 0.54930  0.86430  0.69560  Biso   1.000  H
  C248     1.0000 0.54480  0.88716  0.77045  Biso   1.000  C
  H125     1.0000 0.55160  0.92250  0.76470  Biso   1.000  H
  C249     1.0000 0.53633  0.86883  0.81966  Biso   1.000  C
  C250     1.0000 0.52612  0.81721  0.82678  Biso   1.000  C
  H126     1.0000 0.52050  0.80470  0.86060  Biso   1.000  H
  C251     1.0000 0.50653  0.63826  0.59803  Biso   1.000  C
  C252     1.0000 0.53449  0.90335  0.86496  Biso   1.000  C
  O205     1.0000 0.55211  0.52578  0.46222  Biso   1.000  O
  O206     1.0000 0.48930  0.59130  0.63160  Biso   1.000  O
  O207     1.0000 0.50540  0.64700  0.54800  Biso   1.000  O
  O208     1.0000 0.53550  0.86980  0.91300  Biso   1.000  O
  O209     1.0000 0.53150  0.95790  0.84610  Biso   1.000  O
  O210     1.0000 0.56966  0.53434  0.44895  Biso   1.000  O
  Zr22     1.0000 0.48322  0.09224  0.01432  Biso   1.000  Zr
  Cu22     1.0000 0.48587  0.20831  0.70629  Biso   1.000  Cu
  Cl43     1.0000 0.52495  0.21069  0.63111  Biso   1.000  Cl
  Cl44     1.0000 0.46074  0.12730  0.70369  Biso   1.000  Cl
  O211     1.0000 0.50620  0.09717  0.88072  Biso   1.000  O
  O212     1.0000 0.48560  0.14554  0.94884  Biso   1.000  O
  O213     1.0000 0.46600  0.38216  0.59213  Biso   1.000  O
  O214     1.0000 0.46699  0.45043  0.64289  Biso   1.000  O
  N43      1.0000 0.48054  0.21443  0.78219  Biso   1.000  N
  N44      1.0000 0.47610  0.28436  0.71265  Biso   1.000  N
  C253     1.0000 0.47142  0.26164  0.80057  Biso   1.000  C
  C254     1.0000 0.46640  0.27167  0.85234  Biso   1.000  C
  H127     1.0000 0.45780  0.30510  0.86420  Biso   1.000  H
  C255     1.0000 0.47410  0.23135  0.88672  Biso   1.000  C
  H128     1.0000 0.47160  0.23690  0.92270  Biso   1.000  H
  C256     1.0000 0.48555  0.18307  0.86765  Biso   1.000  C
  C257     1.0000 0.48792  0.17616  0.81475  Biso   1.000  C
  H129     1.0000 0.49510  0.14290  0.80160  Biso   1.000  H
  C258     1.0000 0.46700  0.30200  0.76077  Biso   1.000  C
  C259     1.0000 0.45670  0.35278  0.77034  Biso   1.000  C
  H130     1.0000 0.45070  0.36430  0.80440  Biso   1.000  H
  C260     1.0000 0.45520  0.38716  0.72955  Biso   1.000  C
  H131     1.0000 0.44840  0.42250  0.73530  Biso   1.000  H
  C261     1.0000 0.46367  0.36883  0.68034  Biso   1.000  C
  C262     1.0000 0.47388  0.31721  0.67322  Biso   1.000  C
  H132     1.0000 0.47950  0.30470  0.63940  Biso   1.000  H
  C263     1.0000 0.49347  0.13826  0.90197  Biso   1.000  C
  C264     1.0000 0.46551  0.40335  0.63504  Biso   1.000  C
  O215     1.0000 0.44789  0.02578  0.03778  Biso   1.000  O
  O216     1.0000 0.51070  0.09130  0.86840  Biso   1.000  O
  O217     1.0000 0.49460  0.14700  0.95200  Biso   1.000  O
  O218     1.0000 0.46450  0.36980  0.58700  Biso   1.000  O
  O219     1.0000 0.46850  0.45790  0.65390  Biso   1.000  O
  O220     1.0000 0.43034  0.03434  0.05105  Biso   1.000  O
  Zr23     1.0000 0.01678  0.90776  0.51432  Biso   1.000  Zr
  Cu23     1.0000 0.01413  0.79169  0.20629  Biso   1.000  Cu
  Cl45     1.0000 0.97505  0.78931  0.13111  Biso   1.000  Cl
  Cl46     1.0000 0.03926  0.87270  0.20369  Biso   1.000  Cl
  O221     1.0000 0.99380  0.90283  0.38072  Biso   1.000  O
  O222     1.0000 0.01440  0.85446  0.44884  Biso   1.000  O
  O223     1.0000 0.03400  0.61784  0.09213  Biso   1.000  O
  O224     1.0000 0.03301  0.54957  0.14289  Biso   1.000  O
  N45      1.0000 0.01946  0.78557  0.28219  Biso   1.000  N
  N46      1.0000 0.02390  0.71564  0.21265  Biso   1.000  N
  C265     1.0000 0.02858  0.73836  0.30057  Biso   1.000  C
  C266     1.0000 0.03360  0.72833  0.35234  Biso   1.000  C
  H133     1.0000 0.04220  0.69490  0.36420  Biso   1.000  H
  C267     1.0000 0.02590  0.76865  0.38672  Biso   1.000  C
  H134     1.0000 0.02840  0.76310  0.42270  Biso   1.000  H
  C268     1.0000 0.01445  0.81693  0.36765  Biso   1.000  C
  C269     1.0000 0.01208  0.82384  0.31475  Biso   1.000  C
  H135     1.0000 0.00490  0.85710  0.30160  Biso   1.000  H
  C270     1.0000 0.03300  0.69800  0.26077  Biso   1.000  C
  C271     1.0000 0.04330  0.64722  0.27034  Biso   1.000  C
  H136     1.0000 0.04930  0.63570  0.30440  Biso   1.000  H
  C272     1.0000 0.04480  0.61284  0.22955  Biso   1.000  C
  H137     1.0000 0.05160  0.57750  0.23530  Biso   1.000  H
  C273     1.0000 0.03633  0.63117  0.18034  Biso   1.000  C
  C274     1.0000 0.02612  0.68279  0.17322  Biso   1.000  C
  H138     1.0000 0.02050  0.69530  0.13940  Biso   1.000  H
  C275     1.0000 0.00653  0.86174  0.40197  Biso   1.000  C
  C276     1.0000 0.03449  0.59665  0.13504  Biso   1.000  C
  O225     1.0000 0.05211  0.97422  0.53778  Biso   1.000  O
  O226     1.0000 0.98930  0.90870  0.36840  Biso   1.000  O
  O227     1.0000 0.00540  0.85300  0.45200  Biso   1.000  O
  O228     1.0000 0.03550  0.63020  0.08700  Biso   1.000  O
  O229     1.0000 0.03150  0.54210  0.15390  Biso   1.000  O
  O230     1.0000 0.06966  0.96566  0.55105  Biso   1.000  O
  Zr24     1.0000 0.98322  0.40776  0.98568  Biso   1.000  Zr
  Cu24     1.0000 0.98587  0.29169  0.29371  Biso   1.000  Cu
  Cl47     1.0000 0.02495  0.28931  0.36889  Biso   1.000  Cl
  Cl48     1.0000 0.96074  0.37270  0.29631  Biso   1.000  Cl
  O231     1.0000 0.00620  0.40283  0.11928  Biso   1.000  O
  O232     1.0000 0.98560  0.35446  0.05116  Biso   1.000  O
  O233     1.0000 0.96600  0.11784  0.40787  Biso   1.000  O
  O234     1.0000 0.96699  0.04957  0.35711  Biso   1.000  O
  N47      1.0000 0.98054  0.28557  0.21781  Biso   1.000  N
  N48      1.0000 0.97610  0.21564  0.28735  Biso   1.000  N
  C277     1.0000 0.97142  0.23836  0.19943  Biso   1.000  C
  C278     1.0000 0.96640  0.22833  0.14766  Biso   1.000  C
  H139     1.0000 0.95780  0.19490  0.13580  Biso   1.000  H
  C279     1.0000 0.97410  0.26865  0.11328  Biso   1.000  C
  H140     1.0000 0.97160  0.26310  0.07730  Biso   1.000  H
  C280     1.0000 0.98555  0.31693  0.13235  Biso   1.000  C
  C281     1.0000 0.98792  0.32384  0.18525  Biso   1.000  C
  H141     1.0000 0.99510  0.35710  0.19840  Biso   1.000  H
  C282     1.0000 0.96700  0.19800  0.23923  Biso   1.000  C
  C283     1.0000 0.95670  0.14722  0.22966  Biso   1.000  C
  H142     1.0000 0.95070  0.13570  0.19560  Biso   1.000  H
  C284     1.0000 0.95520  0.11284  0.27045  Biso   1.000  C
  H143     1.0000 0.94840  0.07750  0.26470  Biso   1.000  H
  C285     1.0000 0.96367  0.13117  0.31966  Biso   1.000  C
  C286     1.0000 0.97388  0.18279  0.32678  Biso   1.000  C
  H144     1.0000 0.97950  0.19530  0.36060  Biso   1.000  H
  C287     1.0000 0.99347  0.36174  0.09803  Biso   1.000  C
  C288     1.0000 0.96551  0.09665  0.36496  Biso   1.000  C
  O235     1.0000 0.94789  0.47422  0.96222  Biso   1.000  O
  O236     1.0000 0.01070  0.40870  0.13160  Biso   1.000  O
  O237     1.0000 0.99460  0.35300  0.04800  Biso   1.000  O
  O238     1.0000 0.96450  0.13020  0.41300  Biso   1.000  O
  O239     1.0000 0.96850  0.04210  0.34610  Biso   1.000  O
  O240     1.0000 0.93034  0.46566  0.94895  Biso   1.000  O
  O241     1.0000 0.45998  0.45998  0.45998  Biso   1.000  O
  O242     1.0000 0.44607  0.44607  0.44607  Biso   1.000  O
  O243     1.0000 0.04002  0.54002  0.95998  Biso   1.000  O
  O244     1.0000 0.05393  0.55393  0.94607  Biso   1.000  O
  O245     1.0000 0.54002  0.95998  0.04002  Biso   1.000  O
  O246     1.0000 0.55393  0.94607  0.05393  Biso   1.000  O
  O247     1.0000 0.95998  0.04002  0.54002  Biso   1.000  O
  O248     1.0000 0.94607  0.05393  0.55393  Biso   1.000  O
  O249     1.0000 0.54002  0.54002  0.54002  Biso   1.000  O
  O250     1.0000 0.55393  0.55393  0.55393  Biso   1.000  O
  O251     1.0000 0.95998  0.45998  0.04002  Biso   1.000  O
  O252     1.0000 0.94607  0.44607  0.05393  Biso   1.000  O
  O253     1.0000 0.45998  0.04002  0.95998  Biso   1.000  O
  O254     1.0000 0.44607  0.05393  0.94607  Biso   1.000  O
  O255     1.0000 0.04002  0.95998  0.45998  Biso   1.000  O
  O256     1.0000 0.05393  0.94607  0.44607  Biso   1.000  O
