data_image0
_cell_length_a       26.255
_cell_length_b       26.255
_cell_length_c       26.255
_cell_angle_alpha    90
_cell_angle_beta     90
_cell_angle_gamma    90

_symmetry_space_group_name_H-M    "P 1"
_symmetry_int_tables_number       1

loop_
  _symmetry_equiv_pos_as_xyz
  'x, y, z'

loop_
  _atom_site_label
  _atom_site_occupancy
  _atom_site_fract_x
  _atom_site_fract_y
  _atom_site_fract_z
  _atom_site_thermal_displace_type
  _atom_site_B_iso_or_equiv
  _atom_site_type_symbol
  Zr1      1.0000 0.51192  0.51385  0.09265  Biso   1.000  Zr
  O1       1.0000 0.55110  0.56770  0.03760  Biso   1.000  O
  O2       1.0000 0.58880  0.52930  0.12109  Biso   1.000  O
  O3       1.0000 0.64260  0.52820  0.05353  Biso   1.000  O
  O4       1.0000 0.87680  0.49460  0.40761  Biso   1.000  O
  O5       1.0000 0.94481  0.51060  0.35570  Biso   1.000  O
  C1       1.0000 0.75540  0.53660  0.20450  Biso   1.000  C
  C2       1.0000 0.76430  0.54830  0.15550  Biso   1.000  C
  H1       1.0000 0.79700  0.55760  0.14550  Biso   1.000  H
  C3       1.0000 0.72550  0.54660  0.11930  Biso   1.000  C
  H2       1.0000 0.73240  0.55130  0.08480  Biso   1.000  H
  C4       1.0000 0.67640  0.53780  0.13640  Biso   1.000  C
  C5       1.0000 0.66810  0.53160  0.18870  Biso   1.000  C
  H3       1.0000 0.63480  0.52950  0.20070  Biso   1.000  H
  C6       1.0000 0.79430  0.53240  0.24530  Biso   1.000  C
  C7       1.0000 0.84570  0.53820  0.23520  Biso   1.000  C
  H4       1.0000 0.85680  0.54680  0.20270  Biso   1.000  H
  C8       1.0000 0.88000  0.53100  0.27380  Biso   1.000  C
  H5       1.0000 0.91460  0.53620  0.26840  Biso   1.000  H
  C9       1.0000 0.86210  0.51570  0.32160  Biso   1.000  C
  C10      1.0000 0.81000  0.50990  0.32900  Biso   1.000  C
  H6       1.0000 0.79720  0.49980  0.36050  Biso   1.000  H
  C11      1.0000 0.63320  0.53120  0.10020  Biso   1.000  C
  C12      1.0000 0.89780  0.50630  0.36520  Biso   1.000  C
  N1       1.0000 0.70710  0.52850  0.22220  Biso   1.000  N
  N2       1.0000 0.77860  0.51910  0.29030  Biso   1.000  N
  Fe1      1.0000 0.69656  0.51619  0.30068  Biso   1.000  Fe
  Br1      1.0000 0.66010  0.43420  0.30270  Biso   1.000  Br
  Br2      1.0000 0.68430  0.59360  0.34610  Biso   1.000  Br
  O6       1.0000 0.53840  0.55010  0.02810  Biso   1.000  O
  Br3      1.0000 0.60610  0.49080  0.29840  Biso   1.000  Br
  Br4      1.0000 0.69370  0.53440  0.39410  Biso   1.000  Br
  Zr2      1.0000 0.98808  0.48615  0.59265  Biso   1.000  Zr
  O7       1.0000 0.94890  0.43230  0.53760  Biso   1.000  O
  O8       1.0000 0.91120  0.47070  0.62109  Biso   1.000  O
  O9       1.0000 0.85740  0.47180  0.55353  Biso   1.000  O
  O10      1.0000 0.62320  0.50540  0.90761  Biso   1.000  O
  O11      1.0000 0.55519  0.48940  0.85570  Biso   1.000  O
  C13      1.0000 0.74460  0.46340  0.70450  Biso   1.000  C
  C14      1.0000 0.73570  0.45170  0.65550  Biso   1.000  C
  H7       1.0000 0.70300  0.44240  0.64550  Biso   1.000  H
  C15      1.0000 0.77450  0.45340  0.61930  Biso   1.000  C
  H8       1.0000 0.76760  0.44870  0.58480  Biso   1.000  H
  C16      1.0000 0.82360  0.46220  0.63640  Biso   1.000  C
  C17      1.0000 0.83190  0.46840  0.68870  Biso   1.000  C
  H9       1.0000 0.86520  0.47050  0.70070  Biso   1.000  H
  C18      1.0000 0.70570  0.46760  0.74530  Biso   1.000  C
  C19      1.0000 0.65430  0.46180  0.73520  Biso   1.000  C
  H10      1.0000 0.64320  0.45320  0.70270  Biso   1.000  H
  C20      1.0000 0.62000  0.46900  0.77380  Biso   1.000  C
  H11      1.0000 0.58540  0.46380  0.76840  Biso   1.000  H
  C21      1.0000 0.63790  0.48430  0.82160  Biso   1.000  C
  C22      1.0000 0.69000  0.49010  0.82900  Biso   1.000  C
  H12      1.0000 0.70280  0.50020  0.86050  Biso   1.000  H
  C23      1.0000 0.86680  0.46880  0.60020  Biso   1.000  C
  C24      1.0000 0.60220  0.49370  0.86520  Biso   1.000  C
  N3       1.0000 0.79290  0.47150  0.72220  Biso   1.000  N
  N4       1.0000 0.72140  0.48090  0.79030  Biso   1.000  N
  Fe2      1.0000 0.80344  0.48381  0.80068  Biso   1.000  Fe
  Br5      1.0000 0.83990  0.56580  0.80270  Biso   1.000  Br
  Br6      1.0000 0.81570  0.40640  0.84610  Biso   1.000  Br
  O12      1.0000 0.96160  0.44990  0.52810  Biso   1.000  O
  Br7      1.0000 0.89390  0.50920  0.79840  Biso   1.000  Br
  Br8      1.0000 0.80630  0.46560  0.89410  Biso   1.000  Br
  Zr3      1.0000 0.48808  0.01385  0.40735  Biso   1.000  Zr
  O13      1.0000 0.44890  0.06770  0.46240  Biso   1.000  O
  O14      1.0000 0.41120  0.02930  0.37891  Biso   1.000  O
  O15      1.0000 0.35740  0.02820  0.44647  Biso   1.000  O
  O16      1.0000 0.12320  0.99460  0.09239  Biso   1.000  O
  O17      1.0000 0.05519  0.01060  0.14430  Biso   1.000  O
  C25      1.0000 0.24460  0.03660  0.29550  Biso   1.000  C
  C26      1.0000 0.23570  0.04830  0.34450  Biso   1.000  C
  H13      1.0000 0.20300  0.05760  0.35450  Biso   1.000  H
  C27      1.0000 0.27450  0.04660  0.38070  Biso   1.000  C
  H14      1.0000 0.26760  0.05130  0.41520  Biso   1.000  H
  C28      1.0000 0.32360  0.03780  0.36360  Biso   1.000  C
  C29      1.0000 0.33190  0.03160  0.31130  Biso   1.000  C
  H15      1.0000 0.36520  0.02950  0.29930  Biso   1.000  H
  C30      1.0000 0.20570  0.03240  0.25470  Biso   1.000  C
  C31      1.0000 0.15430  0.03820  0.26480  Biso   1.000  C
  H16      1.0000 0.14320  0.04680  0.29730  Biso   1.000  H
  C32      1.0000 0.12000  0.03100  0.22620  Biso   1.000  C
  H17      1.0000 0.08540  0.03620  0.23160  Biso   1.000  H
  C33      1.0000 0.13790  0.01570  0.17840  Biso   1.000  C
  C34      1.0000 0.19000  0.00990  0.17100  Biso   1.000  C
  H18      1.0000 0.20280  0.99980  0.13950  Biso   1.000  H
  C35      1.0000 0.36680  0.03120  0.39980  Biso   1.000  C
  C36      1.0000 0.10220  0.00630  0.13480  Biso   1.000  C
  N5       1.0000 0.29290  0.02850  0.27780  Biso   1.000  N
  N6       1.0000 0.22140  0.01910  0.20970  Biso   1.000  N
  Fe3      1.0000 0.30344  0.01619  0.19932  Biso   1.000  Fe
  Br9      1.0000 0.33990  0.93420  0.19730  Biso   1.000  Br
  Br10     1.0000 0.31570  0.09360  0.15390  Biso   1.000  Br
  O18      1.0000 0.46160  0.05010  0.47190  Biso   1.000  O
  Br11     1.0000 0.39390  0.99080  0.20160  Biso   1.000  Br
  Br12     1.0000 0.30630  0.03440  0.10590  Biso   1.000  Br
  Zr4      1.0000 0.01192  0.98615  0.90735  Biso   1.000  Zr
  O19      1.0000 0.05110  0.93230  0.96240  Biso   1.000  O
  O20      1.0000 0.08880  0.97070  0.87891  Biso   1.000  O
  O21      1.0000 0.14260  0.97180  0.94647  Biso   1.000  O
  O22      1.0000 0.37680  0.00540  0.59239  Biso   1.000  O
  O23      1.0000 0.44481  0.98940  0.64430  Biso   1.000  O
  C37      1.0000 0.25540  0.96340  0.79550  Biso   1.000  C
  C38      1.0000 0.26430  0.95170  0.84450  Biso   1.000  C
  H19      1.0000 0.29700  0.94240  0.85450  Biso   1.000  H
  C39      1.0000 0.22550  0.95340  0.88070  Biso   1.000  C
  H20      1.0000 0.23240  0.94870  0.91520  Biso   1.000  H
  C40      1.0000 0.17640  0.96220  0.86360  Biso   1.000  C
  C41      1.0000 0.16810  0.96840  0.81130  Biso   1.000  C
  H21      1.0000 0.13480  0.97050  0.79930  Biso   1.000  H
  C42      1.0000 0.29430  0.96760  0.75470  Biso   1.000  C
  C43      1.0000 0.34570  0.96180  0.76480  Biso   1.000  C
  H22      1.0000 0.35680  0.95320  0.79730  Biso   1.000  H
  C44      1.0000 0.38000  0.96900  0.72620  Biso   1.000  C
  H23      1.0000 0.41460  0.96380  0.73160  Biso   1.000  H
  C45      1.0000 0.36210  0.98430  0.67840  Biso   1.000  C
  C46      1.0000 0.31000  0.99010  0.67100  Biso   1.000  C
  H24      1.0000 0.29720  0.00020  0.63950  Biso   1.000  H
  C47      1.0000 0.13320  0.96880  0.89980  Biso   1.000  C
  C48      1.0000 0.39780  0.99370  0.63480  Biso   1.000  C
  N7       1.0000 0.20710  0.97150  0.77780  Biso   1.000  N
  N8       1.0000 0.27860  0.98090  0.70970  Biso   1.000  N
  Fe4      1.0000 0.19656  0.98381  0.69932  Biso   1.000  Fe
  Br13     1.0000 0.16010  0.06580  0.69730  Biso   1.000  Br
  Br14     1.0000 0.18430  0.90640  0.65390  Biso   1.000  Br
  O24      1.0000 0.03840  0.94990  0.97190  Biso   1.000  O
  Br15     1.0000 0.10610  0.00920  0.70160  Biso   1.000  Br
  Br16     1.0000 0.19370  0.96560  0.60590  Biso   1.000  Br
  Zr5      1.0000 0.09265  0.51192  0.51385  Biso   1.000  Zr
  O25      1.0000 0.03760  0.55110  0.56770  Biso   1.000  O
  O26      1.0000 0.12109  0.58880  0.52930  Biso   1.000  O
  O27      1.0000 0.05353  0.64260  0.52820  Biso   1.000  O
  O28      1.0000 0.40761  0.87680  0.49460  Biso   1.000  O
  O29      1.0000 0.35570  0.94481  0.51060  Biso   1.000  O
  C49      1.0000 0.20450  0.75540  0.53660  Biso   1.000  C
  C50      1.0000 0.15550  0.76430  0.54830  Biso   1.000  C
  H25      1.0000 0.14550  0.79700  0.55760  Biso   1.000  H
  C51      1.0000 0.11930  0.72550  0.54660  Biso   1.000  C
  H26      1.0000 0.08480  0.73240  0.55130  Biso   1.000  H
  C52      1.0000 0.13640  0.67640  0.53780  Biso   1.000  C
  C53      1.0000 0.18870  0.66810  0.53160  Biso   1.000  C
  H27      1.0000 0.20070  0.63480  0.52950  Biso   1.000  H
  C54      1.0000 0.24530  0.79430  0.53240  Biso   1.000  C
  C55      1.0000 0.23520  0.84570  0.53820  Biso   1.000  C
  H28      1.0000 0.20270  0.85680  0.54680  Biso   1.000  H
  C56      1.0000 0.27380  0.88000  0.53100  Biso   1.000  C
  H29      1.0000 0.26840  0.91460  0.53620  Biso   1.000  H
  C57      1.0000 0.32160  0.86210  0.51570  Biso   1.000  C
  C58      1.0000 0.32900  0.81000  0.50990  Biso   1.000  C
  H30      1.0000 0.36050  0.79720  0.49980  Biso   1.000  H
  C59      1.0000 0.10020  0.63320  0.53120  Biso   1.000  C
  C60      1.0000 0.36520  0.89780  0.50630  Biso   1.000  C
  N9       1.0000 0.22220  0.70710  0.52850  Biso   1.000  N
  N10      1.0000 0.29030  0.77860  0.51910  Biso   1.000  N
  Fe5      1.0000 0.30068  0.69656  0.51619  Biso   1.000  Fe
  Br17     1.0000 0.30270  0.66010  0.43420  Biso   1.000  Br
  Br18     1.0000 0.34610  0.68430  0.59360  Biso   1.000  Br
  O30      1.0000 0.02810  0.53840  0.55010  Biso   1.000  O
  Br19     1.0000 0.29840  0.60610  0.49080  Biso   1.000  Br
  Br20     1.0000 0.39410  0.69370  0.53440  Biso   1.000  Br
  Zr6      1.0000 0.59265  0.98808  0.48615  Biso   1.000  Zr
  O31      1.0000 0.53760  0.94890  0.43230  Biso   1.000  O
  O32      1.0000 0.62109  0.91120  0.47070  Biso   1.000  O
  O33      1.0000 0.55353  0.85740  0.47180  Biso   1.000  O
  O34      1.0000 0.90761  0.62320  0.50540  Biso   1.000  O
  O35      1.0000 0.85570  0.55519  0.48940  Biso   1.000  O
  C61      1.0000 0.70450  0.74460  0.46340  Biso   1.000  C
  C62      1.0000 0.65550  0.73570  0.45170  Biso   1.000  C
  H31      1.0000 0.64550  0.70300  0.44240  Biso   1.000  H
  C63      1.0000 0.61930  0.77450  0.45340  Biso   1.000  C
  H32      1.0000 0.58480  0.76760  0.44870  Biso   1.000  H
  C64      1.0000 0.63640  0.82360  0.46220  Biso   1.000  C
  C65      1.0000 0.68870  0.83190  0.46840  Biso   1.000  C
  H33      1.0000 0.70070  0.86520  0.47050  Biso   1.000  H
  C66      1.0000 0.74530  0.70570  0.46760  Biso   1.000  C
  C67      1.0000 0.73520  0.65430  0.46180  Biso   1.000  C
  H34      1.0000 0.70270  0.64320  0.45320  Biso   1.000  H
  C68      1.0000 0.77380  0.62000  0.46900  Biso   1.000  C
  H35      1.0000 0.76840  0.58540  0.46380  Biso   1.000  H
  C69      1.0000 0.82160  0.63790  0.48430  Biso   1.000  C
  C70      1.0000 0.82900  0.69000  0.49010  Biso   1.000  C
  H36      1.0000 0.86050  0.70280  0.50020  Biso   1.000  H
  C71      1.0000 0.60020  0.86680  0.46880  Biso   1.000  C
  C72      1.0000 0.86520  0.60220  0.49370  Biso   1.000  C
  N11      1.0000 0.72220  0.79290  0.47150  Biso   1.000  N
  N12      1.0000 0.79030  0.72140  0.48090  Biso   1.000  N
  Fe6      1.0000 0.80068  0.80344  0.48381  Biso   1.000  Fe
  Br21     1.0000 0.80270  0.83990  0.56580  Biso   1.000  Br
  Br22     1.0000 0.84610  0.81570  0.40640  Biso   1.000  Br
  O36      1.0000 0.52810  0.96160  0.44990  Biso   1.000  O
  Br23     1.0000 0.79840  0.89390  0.50920  Biso   1.000  Br
  Br24     1.0000 0.89410  0.80630  0.46560  Biso   1.000  Br
  Zr7      1.0000 0.40735  0.48808  0.01385  Biso   1.000  Zr
  O37      1.0000 0.46240  0.44890  0.06770  Biso   1.000  O
  O38      1.0000 0.37891  0.41120  0.02930  Biso   1.000  O
  O39      1.0000 0.44647  0.35740  0.02820  Biso   1.000  O
  O40      1.0000 0.09239  0.12320  0.99460  Biso   1.000  O
  O41      1.0000 0.14430  0.05519  0.01060  Biso   1.000  O
  C73      1.0000 0.29550  0.24460  0.03660  Biso   1.000  C
  C74      1.0000 0.34450  0.23570  0.04830  Biso   1.000  C
  H37      1.0000 0.35450  0.20300  0.05760  Biso   1.000  H
  C75      1.0000 0.38070  0.27450  0.04660  Biso   1.000  C
  H38      1.0000 0.41520  0.26760  0.05130  Biso   1.000  H
  C76      1.0000 0.36360  0.32360  0.03780  Biso   1.000  C
  C77      1.0000 0.31130  0.33190  0.03160  Biso   1.000  C
  H39      1.0000 0.29930  0.36520  0.02950  Biso   1.000  H
  C78      1.0000 0.25470  0.20570  0.03240  Biso   1.000  C
  C79      1.0000 0.26480  0.15430  0.03820  Biso   1.000  C
  H40      1.0000 0.29730  0.14320  0.04680  Biso   1.000  H
  C80      1.0000 0.22620  0.12000  0.03100  Biso   1.000  C
  H41      1.0000 0.23160  0.08540  0.03620  Biso   1.000  H
  C81      1.0000 0.17840  0.13790  0.01570  Biso   1.000  C
  C82      1.0000 0.17100  0.19000  0.00990  Biso   1.000  C
  H42      1.0000 0.13950  0.20280  0.99980  Biso   1.000  H
  C83      1.0000 0.39980  0.36680  0.03120  Biso   1.000  C
  C84      1.0000 0.13480  0.10220  0.00630  Biso   1.000  C
  N13      1.0000 0.27780  0.29290  0.02850  Biso   1.000  N
  N14      1.0000 0.20970  0.22140  0.01910  Biso   1.000  N
  Fe7      1.0000 0.19932  0.30344  0.01619  Biso   1.000  Fe
  Br25     1.0000 0.19730  0.33990  0.93420  Biso   1.000  Br
  Br26     1.0000 0.15390  0.31570  0.09360  Biso   1.000  Br
  O42      1.0000 0.47190  0.46160  0.05010  Biso   1.000  O
  Br27     1.0000 0.20160  0.39390  0.99080  Biso   1.000  Br
  Br28     1.0000 0.10590  0.30630  0.03440  Biso   1.000  Br
  Zr8      1.0000 0.90735  0.01192  0.98615  Biso   1.000  Zr
  O43      1.0000 0.96240  0.05110  0.93230  Biso   1.000  O
  O44      1.0000 0.87891  0.08880  0.97070  Biso   1.000  O
  O45      1.0000 0.94647  0.14260  0.97180  Biso   1.000  O
  O46      1.0000 0.59239  0.37680  0.00540  Biso   1.000  O
  O47      1.0000 0.64430  0.44481  0.98940  Biso   1.000  O
  C85      1.0000 0.79550  0.25540  0.96340  Biso   1.000  C
  C86      1.0000 0.84450  0.26430  0.95170  Biso   1.000  C
  H43      1.0000 0.85450  0.29700  0.94240  Biso   1.000  H
  C87      1.0000 0.88070  0.22550  0.95340  Biso   1.000  C
  H44      1.0000 0.91520  0.23240  0.94870  Biso   1.000  H
  C88      1.0000 0.86360  0.17640  0.96220  Biso   1.000  C
  C89      1.0000 0.81130  0.16810  0.96840  Biso   1.000  C
  H45      1.0000 0.79930  0.13480  0.97050  Biso   1.000  H
  C90      1.0000 0.75470  0.29430  0.96760  Biso   1.000  C
  C91      1.0000 0.76480  0.34570  0.96180  Biso   1.000  C
  H46      1.0000 0.79730  0.35680  0.95320  Biso   1.000  H
  C92      1.0000 0.72620  0.38000  0.96900  Biso   1.000  C
  H47      1.0000 0.73160  0.41460  0.96380  Biso   1.000  H
  C93      1.0000 0.67840  0.36210  0.98430  Biso   1.000  C
  C94      1.0000 0.67100  0.31000  0.99010  Biso   1.000  C
  H48      1.0000 0.63950  0.29720  0.00020  Biso   1.000  H
  C95      1.0000 0.89980  0.13320  0.96880  Biso   1.000  C
  C96      1.0000 0.63480  0.39780  0.99370  Biso   1.000  C
  N15      1.0000 0.77780  0.20710  0.97150  Biso   1.000  N
  N16      1.0000 0.70970  0.27860  0.98090  Biso   1.000  N
  Fe8      1.0000 0.69932  0.19656  0.98381  Biso   1.000  Fe
  Br29     1.0000 0.69730  0.16010  0.06580  Biso   1.000  Br
  Br30     1.0000 0.65390  0.18430  0.90640  Biso   1.000  Br
  O48      1.0000 0.97190  0.03840  0.94990  Biso   1.000  O
  Br31     1.0000 0.70160  0.10610  0.00920  Biso   1.000  Br
  Br32     1.0000 0.60590  0.19370  0.96560  Biso   1.000  Br
  Zr9      1.0000 0.51385  0.09265  0.51192  Biso   1.000  Zr
  O49      1.0000 0.56770  0.03760  0.55110  Biso   1.000  O
  O50      1.0000 0.52930  0.12109  0.58880  Biso   1.000  O
  O51      1.0000 0.52820  0.05353  0.64260  Biso   1.000  O
  O52      1.0000 0.49460  0.40761  0.87680  Biso   1.000  O
  O53      1.0000 0.51060  0.35570  0.94481  Biso   1.000  O
  C97      1.0000 0.53660  0.20450  0.75540  Biso   1.000  C
  C98      1.0000 0.54830  0.15550  0.76430  Biso   1.000  C
  H49      1.0000 0.55760  0.14550  0.79700  Biso   1.000  H
  C99      1.0000 0.54660  0.11930  0.72550  Biso   1.000  C
  H50      1.0000 0.55130  0.08480  0.73240  Biso   1.000  H
  C100     1.0000 0.53780  0.13640  0.67640  Biso   1.000  C
  C101     1.0000 0.53160  0.18870  0.66810  Biso   1.000  C
  H51      1.0000 0.52950  0.20070  0.63480  Biso   1.000  H
  C102     1.0000 0.53240  0.24530  0.79430  Biso   1.000  C
  C103     1.0000 0.53820  0.23520  0.84570  Biso   1.000  C
  H52      1.0000 0.54680  0.20270  0.85680  Biso   1.000  H
  C104     1.0000 0.53100  0.27380  0.88000  Biso   1.000  C
  H53      1.0000 0.53620  0.26840  0.91460  Biso   1.000  H
  C105     1.0000 0.51570  0.32160  0.86210  Biso   1.000  C
  C106     1.0000 0.50990  0.32900  0.81000  Biso   1.000  C
  H54      1.0000 0.49980  0.36050  0.79720  Biso   1.000  H
  C107     1.0000 0.53120  0.10020  0.63320  Biso   1.000  C
  C108     1.0000 0.50630  0.36520  0.89780  Biso   1.000  C
  N17      1.0000 0.52850  0.22220  0.70710  Biso   1.000  N
  N18      1.0000 0.51910  0.29030  0.77860  Biso   1.000  N
  Fe9      1.0000 0.51619  0.30068  0.69656  Biso   1.000  Fe
  Br33     1.0000 0.43420  0.30270  0.66010  Biso   1.000  Br
  Br34     1.0000 0.59360  0.34610  0.68430  Biso   1.000  Br
  O54      1.0000 0.55010  0.02810  0.53840  Biso   1.000  O
  Br35     1.0000 0.49080  0.29840  0.60610  Biso   1.000  Br
  Br36     1.0000 0.53440  0.39410  0.69370  Biso   1.000  Br
  Zr10     1.0000 0.48615  0.59265  0.98808  Biso   1.000  Zr
  O55      1.0000 0.43230  0.53760  0.94890  Biso   1.000  O
  O56      1.0000 0.47070  0.62109  0.91120  Biso   1.000  O
  O57      1.0000 0.47180  0.55353  0.85740  Biso   1.000  O
  O58      1.0000 0.50540  0.90761  0.62320  Biso   1.000  O
  O59      1.0000 0.48940  0.85570  0.55519  Biso   1.000  O
  C109     1.0000 0.46340  0.70450  0.74460  Biso   1.000  C
  C110     1.0000 0.45170  0.65550  0.73570  Biso   1.000  C
  H55      1.0000 0.44240  0.64550  0.70300  Biso   1.000  H
  C111     1.0000 0.45340  0.61930  0.77450  Biso   1.000  C
  H56      1.0000 0.44870  0.58480  0.76760  Biso   1.000  H
  C112     1.0000 0.46220  0.63640  0.82360  Biso   1.000  C
  C113     1.0000 0.46840  0.68870  0.83190  Biso   1.000  C
  H57      1.0000 0.47050  0.70070  0.86520  Biso   1.000  H
  C114     1.0000 0.46760  0.74530  0.70570  Biso   1.000  C
  C115     1.0000 0.46180  0.73520  0.65430  Biso   1.000  C
  H58      1.0000 0.45320  0.70270  0.64320  Biso   1.000  H
  C116     1.0000 0.46900  0.77380  0.62000  Biso   1.000  C
  H59      1.0000 0.46380  0.76840  0.58540  Biso   1.000  H
  C117     1.0000 0.48430  0.82160  0.63790  Biso   1.000  C
  C118     1.0000 0.49010  0.82900  0.69000  Biso   1.000  C
  H60      1.0000 0.50020  0.86050  0.70280  Biso   1.000  H
  C119     1.0000 0.46880  0.60020  0.86680  Biso   1.000  C
  C120     1.0000 0.49370  0.86520  0.60220  Biso   1.000  C
  N19      1.0000 0.47150  0.72220  0.79290  Biso   1.000  N
  N20      1.0000 0.48090  0.79030  0.72140  Biso   1.000  N
  Fe10     1.0000 0.48381  0.80068  0.80344  Biso   1.000  Fe
  Br37     1.0000 0.56580  0.80270  0.83990  Biso   1.000  Br
  Br38     1.0000 0.40640  0.84610  0.81570  Biso   1.000  Br
  O60      1.0000 0.44990  0.52810  0.96160  Biso   1.000  O
  Br39     1.0000 0.50920  0.79840  0.89390  Biso   1.000  Br
  Br40     1.0000 0.46560  0.89410  0.80630  Biso   1.000  Br
  Zr11     1.0000 0.01385  0.40735  0.48808  Biso   1.000  Zr
  O61      1.0000 0.06770  0.46240  0.44890  Biso   1.000  O
  O62      1.0000 0.02930  0.37891  0.41120  Biso   1.000  O
  O63      1.0000 0.02820  0.44647  0.35740  Biso   1.000  O
  O64      1.0000 0.99460  0.09239  0.12320  Biso   1.000  O
  O65      1.0000 0.01060  0.14430  0.05519  Biso   1.000  O
  C121     1.0000 0.03660  0.29550  0.24460  Biso   1.000  C
  C122     1.0000 0.04830  0.34450  0.23570  Biso   1.000  C
  H61      1.0000 0.05760  0.35450  0.20300  Biso   1.000  H
  C123     1.0000 0.04660  0.38070  0.27450  Biso   1.000  C
  H62      1.0000 0.05130  0.41520  0.26760  Biso   1.000  H
  C124     1.0000 0.03780  0.36360  0.32360  Biso   1.000  C
  C125     1.0000 0.03160  0.31130  0.33190  Biso   1.000  C
  H63      1.0000 0.02950  0.29930  0.36520  Biso   1.000  H
  C126     1.0000 0.03240  0.25470  0.20570  Biso   1.000  C
  C127     1.0000 0.03820  0.26480  0.15430  Biso   1.000  C
  H64      1.0000 0.04680  0.29730  0.14320  Biso   1.000  H
  C128     1.0000 0.03100  0.22620  0.12000  Biso   1.000  C
  H65      1.0000 0.03620  0.23160  0.08540  Biso   1.000  H
  C129     1.0000 0.01570  0.17840  0.13790  Biso   1.000  C
  C130     1.0000 0.00990  0.17100  0.19000  Biso   1.000  C
  H66      1.0000 0.99980  0.13950  0.20280  Biso   1.000  H
  C131     1.0000 0.03120  0.39980  0.36680  Biso   1.000  C
  C132     1.0000 0.00630  0.13480  0.10220  Biso   1.000  C
  N21      1.0000 0.02850  0.27780  0.29290  Biso   1.000  N
  N22      1.0000 0.01910  0.20970  0.22140  Biso   1.000  N
  Fe11     1.0000 0.01619  0.19932  0.30344  Biso   1.000  Fe
  Br41     1.0000 0.93420  0.19730  0.33990  Biso   1.000  Br
  Br42     1.0000 0.09360  0.15390  0.31570  Biso   1.000  Br
  O66      1.0000 0.05010  0.47190  0.46160  Biso   1.000  O
  Br43     1.0000 0.99080  0.20160  0.39390  Biso   1.000  Br
  Br44     1.0000 0.03440  0.10590  0.30630  Biso   1.000  Br
  Zr12     1.0000 0.98615  0.90735  0.01192  Biso   1.000  Zr
  O67      1.0000 0.93230  0.96240  0.05110  Biso   1.000  O
  O68      1.0000 0.97070  0.87891  0.08880  Biso   1.000  O
  O69      1.0000 0.97180  0.94647  0.14260  Biso   1.000  O
  O70      1.0000 0.00540  0.59239  0.37680  Biso   1.000  O
  O71      1.0000 0.98940  0.64430  0.44481  Biso   1.000  O
  C133     1.0000 0.96340  0.79550  0.25540  Biso   1.000  C
  C134     1.0000 0.95170  0.84450  0.26430  Biso   1.000  C
  H67      1.0000 0.94240  0.85450  0.29700  Biso   1.000  H
  C135     1.0000 0.95340  0.88070  0.22550  Biso   1.000  C
  H68      1.0000 0.94870  0.91520  0.23240  Biso   1.000  H
  C136     1.0000 0.96220  0.86360  0.17640  Biso   1.000  C
  C137     1.0000 0.96840  0.81130  0.16810  Biso   1.000  C
  H69      1.0000 0.97050  0.79930  0.13480  Biso   1.000  H
  C138     1.0000 0.96760  0.75470  0.29430  Biso   1.000  C
  C139     1.0000 0.96180  0.76480  0.34570  Biso   1.000  C
  H70      1.0000 0.95320  0.79730  0.35680  Biso   1.000  H
  C140     1.0000 0.96900  0.72620  0.38000  Biso   1.000  C
  H71      1.0000 0.96380  0.73160  0.41460  Biso   1.000  H
  C141     1.0000 0.98430  0.67840  0.36210  Biso   1.000  C
  C142     1.0000 0.99010  0.67100  0.31000  Biso   1.000  C
  H72      1.0000 0.00020  0.63950  0.29720  Biso   1.000  H
  C143     1.0000 0.96880  0.89980  0.13320  Biso   1.000  C
  C144     1.0000 0.99370  0.63480  0.39780  Biso   1.000  C
  N23      1.0000 0.97150  0.77780  0.20710  Biso   1.000  N
  N24      1.0000 0.98090  0.70970  0.27860  Biso   1.000  N
  Fe12     1.0000 0.98381  0.69932  0.19656  Biso   1.000  Fe
  Br45     1.0000 0.06580  0.69730  0.16010  Biso   1.000  Br
  Br46     1.0000 0.90640  0.65390  0.18430  Biso   1.000  Br
  O72      1.0000 0.94990  0.97190  0.03840  Biso   1.000  O
  Br47     1.0000 0.00920  0.70160  0.10610  Biso   1.000  Br
  Br48     1.0000 0.96560  0.60590  0.19370  Biso   1.000  Br
  Zr13     1.0000 0.48808  0.48615  0.90735  Biso   1.000  Zr
  O73      1.0000 0.44890  0.43230  0.96240  Biso   1.000  O
  O74      1.0000 0.41120  0.47070  0.87891  Biso   1.000  O
  O75      1.0000 0.35740  0.47180  0.94647  Biso   1.000  O
  O76      1.0000 0.12320  0.50540  0.59239  Biso   1.000  O
  O77      1.0000 0.05519  0.48940  0.64430  Biso   1.000  O
  C145     1.0000 0.24460  0.46340  0.79550  Biso   1.000  C
  C146     1.0000 0.23570  0.45170  0.84450  Biso   1.000  C
  H73      1.0000 0.20300  0.44240  0.85450  Biso   1.000  H
  C147     1.0000 0.27450  0.45340  0.88070  Biso   1.000  C
  H74      1.0000 0.26760  0.44870  0.91520  Biso   1.000  H
  C148     1.0000 0.32360  0.46220  0.86360  Biso   1.000  C
  C149     1.0000 0.33190  0.46840  0.81130  Biso   1.000  C
  H75      1.0000 0.36520  0.47050  0.79930  Biso   1.000  H
  C150     1.0000 0.20570  0.46760  0.75470  Biso   1.000  C
  C151     1.0000 0.15430  0.46180  0.76480  Biso   1.000  C
  H76      1.0000 0.14320  0.45320  0.79730  Biso   1.000  H
  C152     1.0000 0.12000  0.46900  0.72620  Biso   1.000  C
  H77      1.0000 0.08540  0.46380  0.73160  Biso   1.000  H
  C153     1.0000 0.13790  0.48430  0.67840  Biso   1.000  C
  C154     1.0000 0.19000  0.49010  0.67100  Biso   1.000  C
  H78      1.0000 0.20280  0.50020  0.63950  Biso   1.000  H
  C155     1.0000 0.36680  0.46880  0.89980  Biso   1.000  C
  C156     1.0000 0.10220  0.49370  0.63480  Biso   1.000  C
  N25      1.0000 0.29290  0.47150  0.77780  Biso   1.000  N
  N26      1.0000 0.22140  0.48090  0.70970  Biso   1.000  N
  Fe13     1.0000 0.30344  0.48381  0.69932  Biso   1.000  Fe
  Br49     1.0000 0.33990  0.56580  0.69730  Biso   1.000  Br
  Br50     1.0000 0.31570  0.40640  0.65390  Biso   1.000  Br
  O78      1.0000 0.46160  0.44990  0.97190  Biso   1.000  O
  Br51     1.0000 0.39390  0.50920  0.70160  Biso   1.000  Br
  Br52     1.0000 0.30630  0.46560  0.60590  Biso   1.000  Br
  Zr14     1.0000 0.01192  0.51385  0.40735  Biso   1.000  Zr
  O79      1.0000 0.05110  0.56770  0.46240  Biso   1.000  O
  O80      1.0000 0.08880  0.52930  0.37891  Biso   1.000  O
  O81      1.0000 0.14260  0.52820  0.44647  Biso   1.000  O
  O82      1.0000 0.37680  0.49460  0.09239  Biso   1.000  O
  O83      1.0000 0.44481  0.51060  0.14430  Biso   1.000  O
  C157     1.0000 0.25540  0.53660  0.29550  Biso   1.000  C
  C158     1.0000 0.26430  0.54830  0.34450  Biso   1.000  C
  H79      1.0000 0.29700  0.55760  0.35450  Biso   1.000  H
  C159     1.0000 0.22550  0.54660  0.38070  Biso   1.000  C
  H80      1.0000 0.23240  0.55130  0.41520  Biso   1.000  H
  C160     1.0000 0.17640  0.53780  0.36360  Biso   1.000  C
  C161     1.0000 0.16810  0.53160  0.31130  Biso   1.000  C
  H81      1.0000 0.13480  0.52950  0.29930  Biso   1.000  H
  C162     1.0000 0.29430  0.53240  0.25470  Biso   1.000  C
  C163     1.0000 0.34570  0.53820  0.26480  Biso   1.000  C
  H82      1.0000 0.35680  0.54680  0.29730  Biso   1.000  H
  C164     1.0000 0.38000  0.53100  0.22620  Biso   1.000  C
  H83      1.0000 0.41460  0.53620  0.23160  Biso   1.000  H
  C165     1.0000 0.36210  0.51570  0.17840  Biso   1.000  C
  C166     1.0000 0.31000  0.50990  0.17100  Biso   1.000  C
  H84      1.0000 0.29720  0.49980  0.13950  Biso   1.000  H
  C167     1.0000 0.13320  0.53120  0.39980  Biso   1.000  C
  C168     1.0000 0.39780  0.50630  0.13480  Biso   1.000  C
  N27      1.0000 0.20710  0.52850  0.27780  Biso   1.000  N
  N28      1.0000 0.27860  0.51910  0.20970  Biso   1.000  N
  Fe14     1.0000 0.19656  0.51619  0.19932  Biso   1.000  Fe
  Br53     1.0000 0.16010  0.43420  0.19730  Biso   1.000  Br
  Br54     1.0000 0.18430  0.59360  0.15390  Biso   1.000  Br
  O84      1.0000 0.03840  0.55010  0.47190  Biso   1.000  O
  Br55     1.0000 0.10610  0.49080  0.20160  Biso   1.000  Br
  Br56     1.0000 0.19370  0.53440  0.10590  Biso   1.000  Br
  Zr15     1.0000 0.51192  0.98615  0.59265  Biso   1.000  Zr
  O85      1.0000 0.55110  0.93230  0.53760  Biso   1.000  O
  O86      1.0000 0.58880  0.97070  0.62109  Biso   1.000  O
  O87      1.0000 0.64260  0.97180  0.55353  Biso   1.000  O
  O88      1.0000 0.87680  0.00540  0.90761  Biso   1.000  O
  O89      1.0000 0.94481  0.98940  0.85570  Biso   1.000  O
  C169     1.0000 0.75540  0.96340  0.70450  Biso   1.000  C
  C170     1.0000 0.76430  0.95170  0.65550  Biso   1.000  C
  H85      1.0000 0.79700  0.94240  0.64550  Biso   1.000  H
  C171     1.0000 0.72550  0.95340  0.61930  Biso   1.000  C
  H86      1.0000 0.73240  0.94870  0.58480  Biso   1.000  H
  C172     1.0000 0.67640  0.96220  0.63640  Biso   1.000  C
  C173     1.0000 0.66810  0.96840  0.68870  Biso   1.000  C
  H87      1.0000 0.63480  0.97050  0.70070  Biso   1.000  H
  C174     1.0000 0.79430  0.96760  0.74530  Biso   1.000  C
  C175     1.0000 0.84570  0.96180  0.73520  Biso   1.000  C
  H88      1.0000 0.85680  0.95320  0.70270  Biso   1.000  H
  C176     1.0000 0.88000  0.96900  0.77380  Biso   1.000  C
  H89      1.0000 0.91460  0.96380  0.76840  Biso   1.000  H
  C177     1.0000 0.86210  0.98430  0.82160  Biso   1.000  C
  C178     1.0000 0.81000  0.99010  0.82900  Biso   1.000  C
  H90      1.0000 0.79720  0.00020  0.86050  Biso   1.000  H
  C179     1.0000 0.63320  0.96880  0.60020  Biso   1.000  C
  C180     1.0000 0.89780  0.99370  0.86520  Biso   1.000  C
  N29      1.0000 0.70710  0.97150  0.72220  Biso   1.000  N
  N30      1.0000 0.77860  0.98090  0.79030  Biso   1.000  N
  Fe15     1.0000 0.69656  0.98381  0.80068  Biso   1.000  Fe
  Br57     1.0000 0.66010  0.06580  0.80270  Biso   1.000  Br
  Br58     1.0000 0.68430  0.90640  0.84610  Biso   1.000  Br
  O90      1.0000 0.53840  0.94990  0.52810  Biso   1.000  O
  Br59     1.0000 0.60610  0.00920  0.79840  Biso   1.000  Br
  Br60     1.0000 0.69370  0.96560  0.89410  Biso   1.000  Br
  Zr16     1.0000 0.98808  0.01385  0.09265  Biso   1.000  Zr
  O91      1.0000 0.94890  0.06770  0.03760  Biso   1.000  O
  O92      1.0000 0.91120  0.02930  0.12109  Biso   1.000  O
  O93      1.0000 0.85740  0.02820  0.05353  Biso   1.000  O
  O94      1.0000 0.62320  0.99460  0.40761  Biso   1.000  O
  O95      1.0000 0.55519  0.01060  0.35570  Biso   1.000  O
  C181     1.0000 0.74460  0.03660  0.20450  Biso   1.000  C
  C182     1.0000 0.73570  0.04830  0.15550  Biso   1.000  C
  H91      1.0000 0.70300  0.05760  0.14550  Biso   1.000  H
  C183     1.0000 0.77450  0.04660  0.11930  Biso   1.000  C
  H92      1.0000 0.76760  0.05130  0.08480  Biso   1.000  H
  C184     1.0000 0.82360  0.03780  0.13640  Biso   1.000  C
  C185     1.0000 0.83190  0.03160  0.18870  Biso   1.000  C
  H93      1.0000 0.86520  0.02950  0.20070  Biso   1.000  H
  C186     1.0000 0.70570  0.03240  0.24530  Biso   1.000  C
  C187     1.0000 0.65430  0.03820  0.23520  Biso   1.000  C
  H94      1.0000 0.64320  0.04680  0.20270  Biso   1.000  H
  C188     1.0000 0.62000  0.03100  0.27380  Biso   1.000  C
  H95      1.0000 0.58540  0.03620  0.26840  Biso   1.000  H
  C189     1.0000 0.63790  0.01570  0.32160  Biso   1.000  C
  C190     1.0000 0.69000  0.00990  0.32900  Biso   1.000  C
  H96      1.0000 0.70280  0.99980  0.36050  Biso   1.000  H
  C191     1.0000 0.86680  0.03120  0.10020  Biso   1.000  C
  C192     1.0000 0.60220  0.00630  0.36520  Biso   1.000  C
  N31      1.0000 0.79290  0.02850  0.22220  Biso   1.000  N
  N32      1.0000 0.72140  0.01910  0.29030  Biso   1.000  N
  Fe16     1.0000 0.80344  0.01619  0.30068  Biso   1.000  Fe
  Br61     1.0000 0.83990  0.93420  0.30270  Biso   1.000  Br
  Br62     1.0000 0.81570  0.09360  0.34610  Biso   1.000  Br
  O96      1.0000 0.96160  0.05010  0.02810  Biso   1.000  O
  Br63     1.0000 0.89390  0.99080  0.29840  Biso   1.000  Br
  Br64     1.0000 0.80630  0.03440  0.39410  Biso   1.000  Br
  Zr17     1.0000 0.90735  0.48808  0.48615  Biso   1.000  Zr
  O97      1.0000 0.96240  0.44890  0.43230  Biso   1.000  O
  O98      1.0000 0.87891  0.41120  0.47070  Biso   1.000  O
  O99      1.0000 0.94647  0.35740  0.47180  Biso   1.000  O
  O100     1.0000 0.59239  0.12320  0.50540  Biso   1.000  O
  O101     1.0000 0.64430  0.05519  0.48940  Biso   1.000  O
  C193     1.0000 0.79550  0.24460  0.46340  Biso   1.000  C
  C194     1.0000 0.84450  0.23570  0.45170  Biso   1.000  C
  H97      1.0000 0.85450  0.20300  0.44240  Biso   1.000  H
  C195     1.0000 0.88070  0.27450  0.45340  Biso   1.000  C
  H98      1.0000 0.91520  0.26760  0.44870  Biso   1.000  H
  C196     1.0000 0.86360  0.32360  0.46220  Biso   1.000  C
  C197     1.0000 0.81130  0.33190  0.46840  Biso   1.000  C
  H99      1.0000 0.79930  0.36520  0.47050  Biso   1.000  H
  C198     1.0000 0.75470  0.20570  0.46760  Biso   1.000  C
  C199     1.0000 0.76480  0.15430  0.46180  Biso   1.000  C
  H100     1.0000 0.79730  0.14320  0.45320  Biso   1.000  H
  C200     1.0000 0.72620  0.12000  0.46900  Biso   1.000  C
  H101     1.0000 0.73160  0.08540  0.46380  Biso   1.000  H
  C201     1.0000 0.67840  0.13790  0.48430  Biso   1.000  C
  C202     1.0000 0.67100  0.19000  0.49010  Biso   1.000  C
  H102     1.0000 0.63950  0.20280  0.50020  Biso   1.000  H
  C203     1.0000 0.89980  0.36680  0.46880  Biso   1.000  C
  C204     1.0000 0.63480  0.10220  0.49370  Biso   1.000  C
  N33      1.0000 0.77780  0.29290  0.47150  Biso   1.000  N
  N34      1.0000 0.70970  0.22140  0.48090  Biso   1.000  N
  Fe17     1.0000 0.69932  0.30344  0.48381  Biso   1.000  Fe
  Br65     1.0000 0.69730  0.33990  0.56580  Biso   1.000  Br
  Br66     1.0000 0.65390  0.31570  0.40640  Biso   1.000  Br
  O102     1.0000 0.97190  0.46160  0.44990  Biso   1.000  O
  Br67     1.0000 0.70160  0.39390  0.50920  Biso   1.000  Br
  Br68     1.0000 0.60590  0.30630  0.46560  Biso   1.000  Br
  Zr18     1.0000 0.40735  0.01192  0.51385  Biso   1.000  Zr
  O103     1.0000 0.46240  0.05110  0.56770  Biso   1.000  O
  O104     1.0000 0.37891  0.08880  0.52930  Biso   1.000  O
  O105     1.0000 0.44647  0.14260  0.52820  Biso   1.000  O
  O106     1.0000 0.09239  0.37680  0.49460  Biso   1.000  O
  O107     1.0000 0.14430  0.44481  0.51060  Biso   1.000  O
  C205     1.0000 0.29550  0.25540  0.53660  Biso   1.000  C
  C206     1.0000 0.34450  0.26430  0.54830  Biso   1.000  C
  H103     1.0000 0.35450  0.29700  0.55760  Biso   1.000  H
  C207     1.0000 0.38070  0.22550  0.54660  Biso   1.000  C
  H104     1.0000 0.41520  0.23240  0.55130  Biso   1.000  H
  C208     1.0000 0.36360  0.17640  0.53780  Biso   1.000  C
  C209     1.0000 0.31130  0.16810  0.53160  Biso   1.000  C
  H105     1.0000 0.29930  0.13480  0.52950  Biso   1.000  H
  C210     1.0000 0.25470  0.29430  0.53240  Biso   1.000  C
  C211     1.0000 0.26480  0.34570  0.53820  Biso   1.000  C
  H106     1.0000 0.29730  0.35680  0.54680  Biso   1.000  H
  C212     1.0000 0.22620  0.38000  0.53100  Biso   1.000  C
  H107     1.0000 0.23160  0.41460  0.53620  Biso   1.000  H
  C213     1.0000 0.17840  0.36210  0.51570  Biso   1.000  C
  C214     1.0000 0.17100  0.31000  0.50990  Biso   1.000  C
  H108     1.0000 0.13950  0.29720  0.49980  Biso   1.000  H
  C215     1.0000 0.39980  0.13320  0.53120  Biso   1.000  C
  C216     1.0000 0.13480  0.39780  0.50630  Biso   1.000  C
  N35      1.0000 0.27780  0.20710  0.52850  Biso   1.000  N
  N36      1.0000 0.20970  0.27860  0.51910  Biso   1.000  N
  Fe18     1.0000 0.19932  0.19656  0.51619  Biso   1.000  Fe
  Br69     1.0000 0.19730  0.16010  0.43420  Biso   1.000  Br
  Br70     1.0000 0.15390  0.18430  0.59360  Biso   1.000  Br
  O108     1.0000 0.47190  0.03840  0.55010  Biso   1.000  O
  Br71     1.0000 0.20160  0.10610  0.49080  Biso   1.000  Br
  Br72     1.0000 0.10590  0.19370  0.53440  Biso   1.000  Br
  Zr19     1.0000 0.59265  0.51192  0.98615  Biso   1.000  Zr
  O109     1.0000 0.53760  0.55110  0.93230  Biso   1.000  O
  O110     1.0000 0.62109  0.58880  0.97070  Biso   1.000  O
  O111     1.0000 0.55353  0.64260  0.97180  Biso   1.000  O
  O112     1.0000 0.90761  0.87680  0.00540  Biso   1.000  O
  O113     1.0000 0.85570  0.94481  0.98940  Biso   1.000  O
  C217     1.0000 0.70450  0.75540  0.96340  Biso   1.000  C
  C218     1.0000 0.65550  0.76430  0.95170  Biso   1.000  C
  H109     1.0000 0.64550  0.79700  0.94240  Biso   1.000  H
  C219     1.0000 0.61930  0.72550  0.95340  Biso   1.000  C
  H110     1.0000 0.58480  0.73240  0.94870  Biso   1.000  H
  C220     1.0000 0.63640  0.67640  0.96220  Biso   1.000  C
  C221     1.0000 0.68870  0.66810  0.96840  Biso   1.000  C
  H111     1.0000 0.70070  0.63480  0.97050  Biso   1.000  H
  C222     1.0000 0.74530  0.79430  0.96760  Biso   1.000  C
  C223     1.0000 0.73520  0.84570  0.96180  Biso   1.000  C
  H112     1.0000 0.70270  0.85680  0.95320  Biso   1.000  H
  C224     1.0000 0.77380  0.88000  0.96900  Biso   1.000  C
  H113     1.0000 0.76840  0.91460  0.96380  Biso   1.000  H
  C225     1.0000 0.82160  0.86210  0.98430  Biso   1.000  C
  C226     1.0000 0.82900  0.81000  0.99010  Biso   1.000  C
  H114     1.0000 0.86050  0.79720  0.00020  Biso   1.000  H
  C227     1.0000 0.60020  0.63320  0.96880  Biso   1.000  C
  C228     1.0000 0.86520  0.89780  0.99370  Biso   1.000  C
  N37      1.0000 0.72220  0.70710  0.97150  Biso   1.000  N
  N38      1.0000 0.79030  0.77860  0.98090  Biso   1.000  N
  Fe19     1.0000 0.80068  0.69656  0.98381  Biso   1.000  Fe
  Br73     1.0000 0.80270  0.66010  0.06580  Biso   1.000  Br
  Br74     1.0000 0.84610  0.68430  0.90640  Biso   1.000  Br
  O114     1.0000 0.52810  0.53840  0.94990  Biso   1.000  O
  Br75     1.0000 0.79840  0.60610  0.00920  Biso   1.000  Br
  Br76     1.0000 0.89410  0.69370  0.96560  Biso   1.000  Br
  Zr20     1.0000 0.09265  0.98808  0.01385  Biso   1.000  Zr
  O115     1.0000 0.03760  0.94890  0.06770  Biso   1.000  O
  O116     1.0000 0.12109  0.91120  0.02930  Biso   1.000  O
  O117     1.0000 0.05353  0.85740  0.02820  Biso   1.000  O
  O118     1.0000 0.40761  0.62320  0.99460  Biso   1.000  O
  O119     1.0000 0.35570  0.55519  0.01060  Biso   1.000  O
  C229     1.0000 0.20450  0.74460  0.03660  Biso   1.000  C
  C230     1.0000 0.15550  0.73570  0.04830  Biso   1.000  C
  H115     1.0000 0.14550  0.70300  0.05760  Biso   1.000  H
  C231     1.0000 0.11930  0.77450  0.04660  Biso   1.000  C
  H116     1.0000 0.08480  0.76760  0.05130  Biso   1.000  H
  C232     1.0000 0.13640  0.82360  0.03780  Biso   1.000  C
  C233     1.0000 0.18870  0.83190  0.03160  Biso   1.000  C
  H117     1.0000 0.20070  0.86520  0.02950  Biso   1.000  H
  C234     1.0000 0.24530  0.70570  0.03240  Biso   1.000  C
  C235     1.0000 0.23520  0.65430  0.03820  Biso   1.000  C
  H118     1.0000 0.20270  0.64320  0.04680  Biso   1.000  H
  C236     1.0000 0.27380  0.62000  0.03100  Biso   1.000  C
  H119     1.0000 0.26840  0.58540  0.03620  Biso   1.000  H
  C237     1.0000 0.32160  0.63790  0.01570  Biso   1.000  C
  C238     1.0000 0.32900  0.69000  0.00990  Biso   1.000  C
  H120     1.0000 0.36050  0.70280  0.99980  Biso   1.000  H
  C239     1.0000 0.10020  0.86680  0.03120  Biso   1.000  C
  C240     1.0000 0.36520  0.60220  0.00630  Biso   1.000  C
  N39      1.0000 0.22220  0.79290  0.02850  Biso   1.000  N
  N40      1.0000 0.29030  0.72140  0.01910  Biso   1.000  N
  Fe20     1.0000 0.30068  0.80344  0.01619  Biso   1.000  Fe
  Br77     1.0000 0.30270  0.83990  0.93420  Biso   1.000  Br
  Br78     1.0000 0.34610  0.81570  0.09360  Biso   1.000  Br
  O120     1.0000 0.02810  0.96160  0.05010  Biso   1.000  O
  Br79     1.0000 0.29840  0.89390  0.99080  Biso   1.000  Br
  Br80     1.0000 0.39410  0.80630  0.03440  Biso   1.000  Br
  Zr21     1.0000 0.48615  0.90735  0.48808  Biso   1.000  Zr
  O121     1.0000 0.43230  0.96240  0.44890  Biso   1.000  O
  O122     1.0000 0.47070  0.87891  0.41120  Biso   1.000  O
  O123     1.0000 0.47180  0.94647  0.35740  Biso   1.000  O
  O124     1.0000 0.50540  0.59239  0.12320  Biso   1.000  O
  O125     1.0000 0.48940  0.64430  0.05519  Biso   1.000  O
  C241     1.0000 0.46340  0.79550  0.24460  Biso   1.000  C
  C242     1.0000 0.45170  0.84450  0.23570  Biso   1.000  C
  H121     1.0000 0.44240  0.85450  0.20300  Biso   1.000  H
  C243     1.0000 0.45340  0.88070  0.27450  Biso   1.000  C
  H122     1.0000 0.44870  0.91520  0.26760  Biso   1.000  H
  C244     1.0000 0.46220  0.86360  0.32360  Biso   1.000  C
  C245     1.0000 0.46840  0.81130  0.33190  Biso   1.000  C
  H123     1.0000 0.47050  0.79930  0.36520  Biso   1.000  H
  C246     1.0000 0.46760  0.75470  0.20570  Biso   1.000  C
  C247     1.0000 0.46180  0.76480  0.15430  Biso   1.000  C
  H124     1.0000 0.45320  0.79730  0.14320  Biso   1.000  H
  C248     1.0000 0.46900  0.72620  0.12000  Biso   1.000  C
  H125     1.0000 0.46380  0.73160  0.08540  Biso   1.000  H
  C249     1.0000 0.48430  0.67840  0.13790  Biso   1.000  C
  C250     1.0000 0.49010  0.67100  0.19000  Biso   1.000  C
  H126     1.0000 0.50020  0.63950  0.20280  Biso   1.000  H
  C251     1.0000 0.46880  0.89980  0.36680  Biso   1.000  C
  C252     1.0000 0.49370  0.63480  0.10220  Biso   1.000  C
  N41      1.0000 0.47150  0.77780  0.29290  Biso   1.000  N
  N42      1.0000 0.48090  0.70970  0.22140  Biso   1.000  N
  Fe21     1.0000 0.48381  0.69932  0.30344  Biso   1.000  Fe
  Br81     1.0000 0.56580  0.69730  0.33990  Biso   1.000  Br
  Br82     1.0000 0.40640  0.65390  0.31570  Biso   1.000  Br
  O126     1.0000 0.44990  0.97190  0.46160  Biso   1.000  O
  Br83     1.0000 0.50920  0.70160  0.39390  Biso   1.000  Br
  Br84     1.0000 0.46560  0.60590  0.30630  Biso   1.000  Br
  Zr22     1.0000 0.51385  0.40735  0.01192  Biso   1.000  Zr
  O127     1.0000 0.56770  0.46240  0.05110  Biso   1.000  O
  O128     1.0000 0.52930  0.37891  0.08880  Biso   1.000  O
  O129     1.0000 0.52820  0.44647  0.14260  Biso   1.000  O
  O130     1.0000 0.49460  0.09239  0.37680  Biso   1.000  O
  O131     1.0000 0.51060  0.14430  0.44481  Biso   1.000  O
  C253     1.0000 0.53660  0.29550  0.25540  Biso   1.000  C
  C254     1.0000 0.54830  0.34450  0.26430  Biso   1.000  C
  H127     1.0000 0.55760  0.35450  0.29700  Biso   1.000  H
  C255     1.0000 0.54660  0.38070  0.22550  Biso   1.000  C
  H128     1.0000 0.55130  0.41520  0.23240  Biso   1.000  H
  C256     1.0000 0.53780  0.36360  0.17640  Biso   1.000  C
  C257     1.0000 0.53160  0.31130  0.16810  Biso   1.000  C
  H129     1.0000 0.52950  0.29930  0.13480  Biso   1.000  H
  C258     1.0000 0.53240  0.25470  0.29430  Biso   1.000  C
  C259     1.0000 0.53820  0.26480  0.34570  Biso   1.000  C
  H130     1.0000 0.54680  0.29730  0.35680  Biso   1.000  H
  C260     1.0000 0.53100  0.22620  0.38000  Biso   1.000  C
  H131     1.0000 0.53620  0.23160  0.41460  Biso   1.000  H
  C261     1.0000 0.51570  0.17840  0.36210  Biso   1.000  C
  C262     1.0000 0.50990  0.17100  0.31000  Biso   1.000  C
  H132     1.0000 0.49980  0.13950  0.29720  Biso   1.000  H
  C263     1.0000 0.53120  0.39980  0.13320  Biso   1.000  C
  C264     1.0000 0.50630  0.13480  0.39780  Biso   1.000  C
  N43      1.0000 0.52850  0.27780  0.20710  Biso   1.000  N
  N44      1.0000 0.51910  0.20970  0.27860  Biso   1.000  N
  Fe22     1.0000 0.51619  0.19932  0.19656  Biso   1.000  Fe
  Br85     1.0000 0.43420  0.19730  0.16010  Biso   1.000  Br
  Br86     1.0000 0.59360  0.15390  0.18430  Biso   1.000  Br
  O132     1.0000 0.55010  0.47190  0.03840  Biso   1.000  O
  Br87     1.0000 0.49080  0.20160  0.10610  Biso   1.000  Br
  Br88     1.0000 0.53440  0.10590  0.19370  Biso   1.000  Br
  Zr23     1.0000 0.98615  0.59265  0.51192  Biso   1.000  Zr
  O133     1.0000 0.93230  0.53760  0.55110  Biso   1.000  O
  O134     1.0000 0.97070  0.62109  0.58880  Biso   1.000  O
  O135     1.0000 0.97180  0.55353  0.64260  Biso   1.000  O
  O136     1.0000 0.00540  0.90761  0.87680  Biso   1.000  O
  O137     1.0000 0.98940  0.85570  0.94481  Biso   1.000  O
  C265     1.0000 0.96340  0.70450  0.75540  Biso   1.000  C
  C266     1.0000 0.95170  0.65550  0.76430  Biso   1.000  C
  H133     1.0000 0.94240  0.64550  0.79700  Biso   1.000  H
  C267     1.0000 0.95340  0.61930  0.72550  Biso   1.000  C
  H134     1.0000 0.94870  0.58480  0.73240  Biso   1.000  H
  C268     1.0000 0.96220  0.63640  0.67640  Biso   1.000  C
  C269     1.0000 0.96840  0.68870  0.66810  Biso   1.000  C
  H135     1.0000 0.97050  0.70070  0.63480  Biso   1.000  H
  C270     1.0000 0.96760  0.74530  0.79430  Biso   1.000  C
  C271     1.0000 0.96180  0.73520  0.84570  Biso   1.000  C
  H136     1.0000 0.95320  0.70270  0.85680  Biso   1.000  H
  C272     1.0000 0.96900  0.77380  0.88000  Biso   1.000  C
  H137     1.0000 0.96380  0.76840  0.91460  Biso   1.000  H
  C273     1.0000 0.98430  0.82160  0.86210  Biso   1.000  C
  C274     1.0000 0.99010  0.82900  0.81000  Biso   1.000  C
  H138     1.0000 0.00020  0.86050  0.79720  Biso   1.000  H
  C275     1.0000 0.96880  0.60020  0.63320  Biso   1.000  C
  C276     1.0000 0.99370  0.86520  0.89780  Biso   1.000  C
  N45      1.0000 0.97150  0.72220  0.70710  Biso   1.000  N
  N46      1.0000 0.98090  0.79030  0.77860  Biso   1.000  N
  Fe23     1.0000 0.98381  0.80068  0.69656  Biso   1.000  Fe
  Br89     1.0000 0.06580  0.80270  0.66010  Biso   1.000  Br
  Br90     1.0000 0.90640  0.84610  0.68430  Biso   1.000  Br
  O138     1.0000 0.94990  0.52810  0.53840  Biso   1.000  O
  Br91     1.0000 0.00920  0.79840  0.60610  Biso   1.000  Br
  Br92     1.0000 0.96560  0.89410  0.69370  Biso   1.000  Br
  Zr24     1.0000 0.01385  0.09265  0.98808  Biso   1.000  Zr
  O139     1.0000 0.06770  0.03760  0.94890  Biso   1.000  O
  O140     1.0000 0.02930  0.12109  0.91120  Biso   1.000  O
  O141     1.0000 0.02820  0.05353  0.85740  Biso   1.000  O
  O142     1.0000 0.99460  0.40761  0.62320  Biso   1.000  O
  O143     1.0000 0.01060  0.35570  0.55519  Biso   1.000  O
  C277     1.0000 0.03660  0.20450  0.74460  Biso   1.000  C
  C278     1.0000 0.04830  0.15550  0.73570  Biso   1.000  C
  H139     1.0000 0.05760  0.14550  0.70300  Biso   1.000  H
  C279     1.0000 0.04660  0.11930  0.77450  Biso   1.000  C
  H140     1.0000 0.05130  0.08480  0.76760  Biso   1.000  H
  C280     1.0000 0.03780  0.13640  0.82360  Biso   1.000  C
  C281     1.0000 0.03160  0.18870  0.83190  Biso   1.000  C
  H141     1.0000 0.02950  0.20070  0.86520  Biso   1.000  H
  C282     1.0000 0.03240  0.24530  0.70570  Biso   1.000  C
  C283     1.0000 0.03820  0.23520  0.65430  Biso   1.000  C
  H142     1.0000 0.04680  0.20270  0.64320  Biso   1.000  H
  C284     1.0000 0.03100  0.27380  0.62000  Biso   1.000  C
  H143     1.0000 0.03620  0.26840  0.58540  Biso   1.000  H
  C285     1.0000 0.01570  0.32160  0.63790  Biso   1.000  C
  C286     1.0000 0.00990  0.32900  0.69000  Biso   1.000  C
  H144     1.0000 0.99980  0.36050  0.70280  Biso   1.000  H
  C287     1.0000 0.03120  0.10020  0.86680  Biso   1.000  C
  C288     1.0000 0.00630  0.36520  0.60220  Biso   1.000  C
  N47      1.0000 0.02850  0.22220  0.79290  Biso   1.000  N
  N48      1.0000 0.01910  0.29030  0.72140  Biso   1.000  N
  Fe24     1.0000 0.01619  0.30068  0.80344  Biso   1.000  Fe
  Br93     1.0000 0.93420  0.30270  0.83990  Biso   1.000  Br
  Br94     1.0000 0.09360  0.34610  0.81570  Biso   1.000  Br
  O144     1.0000 0.05010  0.02810  0.96160  Biso   1.000  O
  Br95     1.0000 0.99080  0.29840  0.89390  Biso   1.000  Br
  Br96     1.0000 0.03440  0.39410  0.80630  Biso   1.000  Br
  O145     1.0000 0.44690  0.55310  0.05310  Biso   1.000  O
  O146     1.0000 0.46070  0.53930  0.03930  Biso   1.000  O
  O147     1.0000 0.05310  0.44690  0.55310  Biso   1.000  O
  O148     1.0000 0.03930  0.46070  0.53930  Biso   1.000  O
  O149     1.0000 0.55310  0.05310  0.44690  Biso   1.000  O
  O150     1.0000 0.53930  0.03930  0.46070  Biso   1.000  O
  O151     1.0000 0.94690  0.94690  0.94690  Biso   1.000  O
  O152     1.0000 0.96070  0.96070  0.96070  Biso   1.000  O
  O153     1.0000 0.55310  0.44690  0.94690  Biso   1.000  O
  O154     1.0000 0.53930  0.46070  0.96070  Biso   1.000  O
  O155     1.0000 0.94690  0.55310  0.44690  Biso   1.000  O
  O156     1.0000 0.96070  0.53930  0.46070  Biso   1.000  O
  O157     1.0000 0.44690  0.94690  0.55310  Biso   1.000  O
  O158     1.0000 0.46070  0.96070  0.53930  Biso   1.000  O
  O159     1.0000 0.05310  0.05310  0.05310  Biso   1.000  O
  O160     1.0000 0.03930  0.03930  0.03930  Biso   1.000  O
