data_image0
_cell_length_a       42.712
_cell_length_b       42.712
_cell_length_c       42.712
_cell_angle_alpha    90
_cell_angle_beta     90
_cell_angle_gamma    90

_symmetry_space_group_name_H-M    "P 1"
_symmetry_int_tables_number       1

loop_
  _symmetry_equiv_pos_as_xyz
  'x, y, z'

loop_
  _atom_site_label
  _atom_site_occupancy
  _atom_site_fract_x
  _atom_site_fract_y
  _atom_site_fract_z
  _atom_site_thermal_displace_type
  _atom_site_B_iso_or_equiv
  _atom_site_type_symbol
  O1       1.0000 0.15726  0.38792  0.53216  Biso   1.000  O
  O2       1.0000 0.19460  0.35100  0.53201  Biso   1.000  O
  C1       1.0000 0.18197  0.37578  0.54135  Biso   1.000  C
  C2       1.0000 0.19908  0.39256  0.56756  Biso   1.000  C
  C3       1.0000 0.22831  0.38305  0.57719  Biso   1.000  C
  H1       1.0000 0.23800  0.36570  0.56720  Biso   1.000  H
  H2       1.0000 0.33360  0.41140  0.69700  Biso   1.000  H
  H3       1.0000 0.29990  0.39880  0.68660  Biso   1.000  H
  H4       1.0000 0.31910  0.42160  0.66390  Biso   1.000  H
  H5       1.0000 0.31250  0.42090  0.65700  Biso   1.000  H
  H6       1.0000 0.33020  0.43100  0.65380  Biso   1.000  H
  H7       1.0000 0.32360  0.40990  0.69100  Biso   1.000  H
  O3       1.0000 0.15726  0.88792  0.03216  Biso   1.000  O
  O4       1.0000 0.19460  0.85100  0.03201  Biso   1.000  O
  C4       1.0000 0.18197  0.87578  0.04135  Biso   1.000  C
  C5       1.0000 0.19908  0.89256  0.06756  Biso   1.000  C
  C6       1.0000 0.22831  0.88305  0.07719  Biso   1.000  C
  H8       1.0000 0.23800  0.86570  0.06720  Biso   1.000  H
  H9       1.0000 0.33360  0.91140  0.19700  Biso   1.000  H
  H10      1.0000 0.29990  0.89880  0.18660  Biso   1.000  H
  H11      1.0000 0.31910  0.92160  0.16390  Biso   1.000  H
  H12      1.0000 0.31250  0.92090  0.15700  Biso   1.000  H
  H13      1.0000 0.33020  0.93100  0.15380  Biso   1.000  H
  H14      1.0000 0.32360  0.90990  0.19100  Biso   1.000  H
  O5       1.0000 0.65726  0.38792  0.03216  Biso   1.000  O
  O6       1.0000 0.69460  0.35100  0.03201  Biso   1.000  O
  C7       1.0000 0.68197  0.37578  0.04135  Biso   1.000  C
  C8       1.0000 0.69908  0.39256  0.06756  Biso   1.000  C
  C9       1.0000 0.72831  0.38305  0.07719  Biso   1.000  C
  H15      1.0000 0.73800  0.36570  0.06720  Biso   1.000  H
  H16      1.0000 0.83360  0.41140  0.19700  Biso   1.000  H
  H17      1.0000 0.79990  0.39880  0.18660  Biso   1.000  H
  H18      1.0000 0.81910  0.42160  0.16390  Biso   1.000  H
  H19      1.0000 0.81250  0.42090  0.15700  Biso   1.000  H
  H20      1.0000 0.83020  0.43100  0.15380  Biso   1.000  H
  H21      1.0000 0.82360  0.40990  0.19100  Biso   1.000  H
  O7       1.0000 0.65726  0.88792  0.53216  Biso   1.000  O
  O8       1.0000 0.69460  0.85100  0.53201  Biso   1.000  O
  C10      1.0000 0.68197  0.87578  0.54135  Biso   1.000  C
  C11      1.0000 0.69908  0.89256  0.56756  Biso   1.000  C
  C12      1.0000 0.72831  0.88305  0.57719  Biso   1.000  C
  H22      1.0000 0.73800  0.86570  0.56720  Biso   1.000  H
  H23      1.0000 0.83360  0.91140  0.69700  Biso   1.000  H
  H24      1.0000 0.79990  0.89880  0.68660  Biso   1.000  H
  H25      1.0000 0.81910  0.92160  0.66390  Biso   1.000  H
  H26      1.0000 0.81250  0.92090  0.65700  Biso   1.000  H
  H27      1.0000 0.83020  0.93100  0.65380  Biso   1.000  H
  H28      1.0000 0.82360  0.90990  0.69100  Biso   1.000  H
  O9       1.0000 0.84274  0.61208  0.53216  Biso   1.000  O
  O10      1.0000 0.80540  0.64900  0.53201  Biso   1.000  O
  C13      1.0000 0.81803  0.62422  0.54135  Biso   1.000  C
  C14      1.0000 0.80092  0.60744  0.56756  Biso   1.000  C
  C15      1.0000 0.77169  0.61695  0.57719  Biso   1.000  C
  H29      1.0000 0.76200  0.63430  0.56720  Biso   1.000  H
  H30      1.0000 0.66640  0.58860  0.69700  Biso   1.000  H
  H31      1.0000 0.70010  0.60120  0.68660  Biso   1.000  H
  H32      1.0000 0.68090  0.57840  0.66390  Biso   1.000  H
  H33      1.0000 0.68750  0.57910  0.65700  Biso   1.000  H
  H34      1.0000 0.66980  0.56900  0.65380  Biso   1.000  H
  H35      1.0000 0.67640  0.59010  0.69100  Biso   1.000  H
  O11      1.0000 0.84274  0.11208  0.03216  Biso   1.000  O
  O12      1.0000 0.80540  0.14900  0.03201  Biso   1.000  O
  C16      1.0000 0.81803  0.12422  0.04135  Biso   1.000  C
  C17      1.0000 0.80092  0.10744  0.06756  Biso   1.000  C
  C18      1.0000 0.77169  0.11695  0.07719  Biso   1.000  C
  H36      1.0000 0.76200  0.13430  0.06720  Biso   1.000  H
  H37      1.0000 0.66640  0.08860  0.19700  Biso   1.000  H
  H38      1.0000 0.70010  0.10120  0.18660  Biso   1.000  H
  H39      1.0000 0.68090  0.07840  0.16390  Biso   1.000  H
  H40      1.0000 0.68750  0.07910  0.15700  Biso   1.000  H
  H41      1.0000 0.66980  0.06900  0.15380  Biso   1.000  H
  H42      1.0000 0.67640  0.09010  0.19100  Biso   1.000  H
  O13      1.0000 0.34274  0.61208  0.03216  Biso   1.000  O
  O14      1.0000 0.30540  0.64900  0.03201  Biso   1.000  O
  C19      1.0000 0.31803  0.62422  0.04135  Biso   1.000  C
  C20      1.0000 0.30092  0.60744  0.06756  Biso   1.000  C
  C21      1.0000 0.27169  0.61695  0.07719  Biso   1.000  C
  H43      1.0000 0.26200  0.63430  0.06720  Biso   1.000  H
  H44      1.0000 0.16640  0.58860  0.19700  Biso   1.000  H
  H45      1.0000 0.20010  0.60120  0.18660  Biso   1.000  H
  H46      1.0000 0.18090  0.57840  0.16390  Biso   1.000  H
  H47      1.0000 0.18750  0.57910  0.15700  Biso   1.000  H
  H48      1.0000 0.16980  0.56900  0.15380  Biso   1.000  H
  H49      1.0000 0.17640  0.59010  0.19100  Biso   1.000  H
  O15      1.0000 0.34274  0.11208  0.53216  Biso   1.000  O
  O16      1.0000 0.30540  0.14900  0.53201  Biso   1.000  O
  C22      1.0000 0.31803  0.12422  0.54135  Biso   1.000  C
  C23      1.0000 0.30092  0.10744  0.56756  Biso   1.000  C
  C24      1.0000 0.27169  0.11695  0.57719  Biso   1.000  C
  H50      1.0000 0.26200  0.13430  0.56720  Biso   1.000  H
  H51      1.0000 0.16640  0.08860  0.69700  Biso   1.000  H
  H52      1.0000 0.20010  0.10120  0.68660  Biso   1.000  H
  H53      1.0000 0.18090  0.07840  0.66390  Biso   1.000  H
  H54      1.0000 0.18750  0.07910  0.65700  Biso   1.000  H
  H55      1.0000 0.16980  0.06900  0.65380  Biso   1.000  H
  H56      1.0000 0.17640  0.09010  0.69100  Biso   1.000  H
  O17      1.0000 0.84274  0.38792  0.46784  Biso   1.000  O
  O18      1.0000 0.80540  0.35100  0.46799  Biso   1.000  O
  C25      1.0000 0.81803  0.37578  0.45865  Biso   1.000  C
  C26      1.0000 0.80092  0.39256  0.43244  Biso   1.000  C
  C27      1.0000 0.77169  0.38305  0.42281  Biso   1.000  C
  H57      1.0000 0.76200  0.36570  0.43280  Biso   1.000  H
  H58      1.0000 0.66640  0.41140  0.30300  Biso   1.000  H
  H59      1.0000 0.70010  0.39880  0.31340  Biso   1.000  H
  H60      1.0000 0.68090  0.42160  0.33610  Biso   1.000  H
  H61      1.0000 0.68750  0.42090  0.34300  Biso   1.000  H
  H62      1.0000 0.66980  0.43100  0.34620  Biso   1.000  H
  H63      1.0000 0.67640  0.40990  0.30900  Biso   1.000  H
  O19      1.0000 0.84274  0.88792  0.96784  Biso   1.000  O
  O20      1.0000 0.80540  0.85100  0.96799  Biso   1.000  O
  C28      1.0000 0.81803  0.87578  0.95865  Biso   1.000  C
  C29      1.0000 0.80092  0.89256  0.93244  Biso   1.000  C
  C30      1.0000 0.77169  0.88305  0.92281  Biso   1.000  C
  H64      1.0000 0.76200  0.86570  0.93280  Biso   1.000  H
  H65      1.0000 0.66640  0.91140  0.80300  Biso   1.000  H
  H66      1.0000 0.70010  0.89880  0.81340  Biso   1.000  H
  H67      1.0000 0.68090  0.92160  0.83610  Biso   1.000  H
  H68      1.0000 0.68750  0.92090  0.84300  Biso   1.000  H
  H69      1.0000 0.66980  0.93100  0.84620  Biso   1.000  H
  H70      1.0000 0.67640  0.90990  0.80900  Biso   1.000  H
  O21      1.0000 0.34274  0.38792  0.96784  Biso   1.000  O
  O22      1.0000 0.30540  0.35100  0.96799  Biso   1.000  O
  C31      1.0000 0.31803  0.37578  0.95865  Biso   1.000  C
  C32      1.0000 0.30092  0.39256  0.93244  Biso   1.000  C
  C33      1.0000 0.27169  0.38305  0.92281  Biso   1.000  C
  H71      1.0000 0.26200  0.36570  0.93280  Biso   1.000  H
  H72      1.0000 0.16640  0.41140  0.80300  Biso   1.000  H
  H73      1.0000 0.20010  0.39880  0.81340  Biso   1.000  H
  H74      1.0000 0.18090  0.42160  0.83610  Biso   1.000  H
  H75      1.0000 0.18750  0.42090  0.84300  Biso   1.000  H
  H76      1.0000 0.16980  0.43100  0.84620  Biso   1.000  H
  H77      1.0000 0.17640  0.40990  0.80900  Biso   1.000  H
  O23      1.0000 0.34274  0.88792  0.46784  Biso   1.000  O
  O24      1.0000 0.30540  0.85100  0.46799  Biso   1.000  O
  C34      1.0000 0.31803  0.87578  0.45865  Biso   1.000  C
  C35      1.0000 0.30092  0.89256  0.43244  Biso   1.000  C
  C36      1.0000 0.27169  0.88305  0.42281  Biso   1.000  C
  H78      1.0000 0.26200  0.86570  0.43280  Biso   1.000  H
  H79      1.0000 0.16640  0.91140  0.30300  Biso   1.000  H
  H80      1.0000 0.20010  0.89880  0.31340  Biso   1.000  H
  H81      1.0000 0.18090  0.92160  0.33610  Biso   1.000  H
  H82      1.0000 0.18750  0.92090  0.34300  Biso   1.000  H
  H83      1.0000 0.16980  0.93100  0.34620  Biso   1.000  H
  H84      1.0000 0.17640  0.90990  0.30900  Biso   1.000  H
  O25      1.0000 0.15726  0.61208  0.46784  Biso   1.000  O
  O26      1.0000 0.19460  0.64900  0.46799  Biso   1.000  O
  C37      1.0000 0.18197  0.62422  0.45865  Biso   1.000  C
  C38      1.0000 0.19908  0.60744  0.43244  Biso   1.000  C
  C39      1.0000 0.22831  0.61695  0.42281  Biso   1.000  C
  H85      1.0000 0.23800  0.63430  0.43280  Biso   1.000  H
  H86      1.0000 0.33360  0.58860  0.30300  Biso   1.000  H
  H87      1.0000 0.29990  0.60120  0.31340  Biso   1.000  H
  H88      1.0000 0.31910  0.57840  0.33610  Biso   1.000  H
  H89      1.0000 0.31250  0.57910  0.34300  Biso   1.000  H
  H90      1.0000 0.33020  0.56900  0.34620  Biso   1.000  H
  H91      1.0000 0.32360  0.59010  0.30900  Biso   1.000  H
  O27      1.0000 0.15726  0.11208  0.96784  Biso   1.000  O
  O28      1.0000 0.19460  0.14900  0.96799  Biso   1.000  O
  C40      1.0000 0.18197  0.12422  0.95865  Biso   1.000  C
  C41      1.0000 0.19908  0.10744  0.93244  Biso   1.000  C
  C42      1.0000 0.22831  0.11695  0.92281  Biso   1.000  C
  H92      1.0000 0.23800  0.13430  0.93280  Biso   1.000  H
  H93      1.0000 0.33360  0.08860  0.80300  Biso   1.000  H
  H94      1.0000 0.29990  0.10120  0.81340  Biso   1.000  H
  H95      1.0000 0.31910  0.07840  0.83610  Biso   1.000  H
  H96      1.0000 0.31250  0.07910  0.84300  Biso   1.000  H
  H97      1.0000 0.33020  0.06900  0.84620  Biso   1.000  H
  H98      1.0000 0.32360  0.09010  0.80900  Biso   1.000  H
  O29      1.0000 0.65726  0.61208  0.96784  Biso   1.000  O
  O30      1.0000 0.69460  0.64900  0.96799  Biso   1.000  O
  C43      1.0000 0.68197  0.62422  0.95865  Biso   1.000  C
  C44      1.0000 0.69908  0.60744  0.93244  Biso   1.000  C
  C45      1.0000 0.72831  0.61695  0.92281  Biso   1.000  C
  H99      1.0000 0.73800  0.63430  0.93280  Biso   1.000  H
  H100     1.0000 0.83360  0.58860  0.80300  Biso   1.000  H
  H101     1.0000 0.79990  0.60120  0.81340  Biso   1.000  H
  H102     1.0000 0.81910  0.57840  0.83610  Biso   1.000  H
  H103     1.0000 0.81250  0.57910  0.84300  Biso   1.000  H
  H104     1.0000 0.83020  0.56900  0.84620  Biso   1.000  H
  H105     1.0000 0.82360  0.59010  0.80900  Biso   1.000  H
  O31      1.0000 0.65726  0.11208  0.46784  Biso   1.000  O
  O32      1.0000 0.69460  0.14900  0.46799  Biso   1.000  O
  C46      1.0000 0.68197  0.12422  0.45865  Biso   1.000  C
  C47      1.0000 0.69908  0.10744  0.43244  Biso   1.000  C
  C48      1.0000 0.72831  0.11695  0.42281  Biso   1.000  C
  H106     1.0000 0.73800  0.13430  0.43280  Biso   1.000  H
  H107     1.0000 0.83360  0.08860  0.30300  Biso   1.000  H
  H108     1.0000 0.79990  0.10120  0.31340  Biso   1.000  H
  H109     1.0000 0.81910  0.07840  0.33610  Biso   1.000  H
  H110     1.0000 0.81250  0.07910  0.34300  Biso   1.000  H
  H111     1.0000 0.83020  0.06900  0.34620  Biso   1.000  H
  H112     1.0000 0.82360  0.09010  0.30900  Biso   1.000  H
  O33      1.0000 0.53216  0.15726  0.38792  Biso   1.000  O
  O34      1.0000 0.53201  0.19460  0.35100  Biso   1.000  O
  C49      1.0000 0.54135  0.18197  0.37578  Biso   1.000  C
  C50      1.0000 0.56756  0.19908  0.39256  Biso   1.000  C
  C51      1.0000 0.57719  0.22831  0.38305  Biso   1.000  C
  H113     1.0000 0.56720  0.23800  0.36570  Biso   1.000  H
  H114     1.0000 0.69700  0.33360  0.41140  Biso   1.000  H
  H115     1.0000 0.68660  0.29990  0.39880  Biso   1.000  H
  H116     1.0000 0.66390  0.31910  0.42160  Biso   1.000  H
  H117     1.0000 0.65700  0.31250  0.42090  Biso   1.000  H
  H118     1.0000 0.65380  0.33020  0.43100  Biso   1.000  H
  H119     1.0000 0.69100  0.32360  0.40990  Biso   1.000  H
  O35      1.0000 0.53216  0.65726  0.88792  Biso   1.000  O
  O36      1.0000 0.53201  0.69460  0.85100  Biso   1.000  O
  C52      1.0000 0.54135  0.68197  0.87578  Biso   1.000  C
  C53      1.0000 0.56756  0.69908  0.89256  Biso   1.000  C
  C54      1.0000 0.57719  0.72831  0.88305  Biso   1.000  C
  H120     1.0000 0.56720  0.73800  0.86570  Biso   1.000  H
  H121     1.0000 0.69700  0.83360  0.91140  Biso   1.000  H
  H122     1.0000 0.68660  0.79990  0.89880  Biso   1.000  H
  H123     1.0000 0.66390  0.81910  0.92160  Biso   1.000  H
  H124     1.0000 0.65700  0.81250  0.92090  Biso   1.000  H
  H125     1.0000 0.65380  0.83020  0.93100  Biso   1.000  H
  H126     1.0000 0.69100  0.82360  0.90990  Biso   1.000  H
  O37      1.0000 0.03216  0.15726  0.88792  Biso   1.000  O
  O38      1.0000 0.03201  0.19460  0.85100  Biso   1.000  O
  C55      1.0000 0.04135  0.18197  0.87578  Biso   1.000  C
  C56      1.0000 0.06756  0.19908  0.89256  Biso   1.000  C
  C57      1.0000 0.07719  0.22831  0.88305  Biso   1.000  C
  H127     1.0000 0.06720  0.23800  0.86570  Biso   1.000  H
  H128     1.0000 0.19700  0.33360  0.91140  Biso   1.000  H
  H129     1.0000 0.18660  0.29990  0.89880  Biso   1.000  H
  H130     1.0000 0.16390  0.31910  0.92160  Biso   1.000  H
  H131     1.0000 0.15700  0.31250  0.92090  Biso   1.000  H
  H132     1.0000 0.15380  0.33020  0.93100  Biso   1.000  H
  H133     1.0000 0.19100  0.32360  0.90990  Biso   1.000  H
  O39      1.0000 0.03216  0.65726  0.38792  Biso   1.000  O
  O40      1.0000 0.03201  0.69460  0.35100  Biso   1.000  O
  C58      1.0000 0.04135  0.68197  0.37578  Biso   1.000  C
  C59      1.0000 0.06756  0.69908  0.39256  Biso   1.000  C
  C60      1.0000 0.07719  0.72831  0.38305  Biso   1.000  C
  H134     1.0000 0.06720  0.73800  0.36570  Biso   1.000  H
  H135     1.0000 0.19700  0.83360  0.41140  Biso   1.000  H
  H136     1.0000 0.18660  0.79990  0.39880  Biso   1.000  H
  H137     1.0000 0.16390  0.81910  0.42160  Biso   1.000  H
  H138     1.0000 0.15700  0.81250  0.42090  Biso   1.000  H
  H139     1.0000 0.15380  0.83020  0.43100  Biso   1.000  H
  H140     1.0000 0.19100  0.82360  0.40990  Biso   1.000  H
  O41      1.0000 0.53216  0.84274  0.61208  Biso   1.000  O
  O42      1.0000 0.53201  0.80540  0.64900  Biso   1.000  O
  C61      1.0000 0.54135  0.81803  0.62422  Biso   1.000  C
  C62      1.0000 0.56756  0.80092  0.60744  Biso   1.000  C
  C63      1.0000 0.57719  0.77169  0.61695  Biso   1.000  C
  H141     1.0000 0.56720  0.76200  0.63430  Biso   1.000  H
  H142     1.0000 0.69700  0.66640  0.58860  Biso   1.000  H
  H143     1.0000 0.68660  0.70010  0.60120  Biso   1.000  H
  H144     1.0000 0.66390  0.68090  0.57840  Biso   1.000  H
  H145     1.0000 0.65700  0.68750  0.57910  Biso   1.000  H
  H146     1.0000 0.65380  0.66980  0.56900  Biso   1.000  H
  H147     1.0000 0.69100  0.67640  0.59010  Biso   1.000  H
  O43      1.0000 0.53216  0.34274  0.11208  Biso   1.000  O
  O44      1.0000 0.53201  0.30540  0.14900  Biso   1.000  O
  C64      1.0000 0.54135  0.31803  0.12422  Biso   1.000  C
  C65      1.0000 0.56756  0.30092  0.10744  Biso   1.000  C
  C66      1.0000 0.57719  0.27169  0.11695  Biso   1.000  C
  H148     1.0000 0.56720  0.26200  0.13430  Biso   1.000  H
  H149     1.0000 0.69700  0.16640  0.08860  Biso   1.000  H
  H150     1.0000 0.68660  0.20010  0.10120  Biso   1.000  H
  H151     1.0000 0.66390  0.18090  0.07840  Biso   1.000  H
  H152     1.0000 0.65700  0.18750  0.07910  Biso   1.000  H
  H153     1.0000 0.65380  0.16980  0.06900  Biso   1.000  H
  H154     1.0000 0.69100  0.17640  0.09010  Biso   1.000  H
  O45      1.0000 0.03216  0.84274  0.11208  Biso   1.000  O
  O46      1.0000 0.03201  0.80540  0.14900  Biso   1.000  O
  C67      1.0000 0.04135  0.81803  0.12422  Biso   1.000  C
  C68      1.0000 0.06756  0.80092  0.10744  Biso   1.000  C
  C69      1.0000 0.07719  0.77169  0.11695  Biso   1.000  C
  H155     1.0000 0.06720  0.76200  0.13430  Biso   1.000  H
  H156     1.0000 0.19700  0.66640  0.08860  Biso   1.000  H
  H157     1.0000 0.18660  0.70010  0.10120  Biso   1.000  H
  H158     1.0000 0.16390  0.68090  0.07840  Biso   1.000  H
  H159     1.0000 0.15700  0.68750  0.07910  Biso   1.000  H
  H160     1.0000 0.15380  0.66980  0.06900  Biso   1.000  H
  H161     1.0000 0.19100  0.67640  0.09010  Biso   1.000  H
  O47      1.0000 0.03216  0.34274  0.61208  Biso   1.000  O
  O48      1.0000 0.03201  0.30540  0.64900  Biso   1.000  O
  C70      1.0000 0.04135  0.31803  0.62422  Biso   1.000  C
  C71      1.0000 0.06756  0.30092  0.60744  Biso   1.000  C
  C72      1.0000 0.07719  0.27169  0.61695  Biso   1.000  C
  H162     1.0000 0.06720  0.26200  0.63430  Biso   1.000  H
  H163     1.0000 0.19700  0.16640  0.58860  Biso   1.000  H
  H164     1.0000 0.18660  0.20010  0.60120  Biso   1.000  H
  H165     1.0000 0.16390  0.18090  0.57840  Biso   1.000  H
  H166     1.0000 0.15700  0.18750  0.57910  Biso   1.000  H
  H167     1.0000 0.15380  0.16980  0.56900  Biso   1.000  H
  H168     1.0000 0.19100  0.17640  0.59010  Biso   1.000  H
  O49      1.0000 0.46784  0.84274  0.38792  Biso   1.000  O
  O50      1.0000 0.46799  0.80540  0.35100  Biso   1.000  O
  C73      1.0000 0.45865  0.81803  0.37578  Biso   1.000  C
  C74      1.0000 0.43244  0.80092  0.39256  Biso   1.000  C
  C75      1.0000 0.42281  0.77169  0.38305  Biso   1.000  C
  H169     1.0000 0.43280  0.76200  0.36570  Biso   1.000  H
  H170     1.0000 0.30300  0.66640  0.41140  Biso   1.000  H
  H171     1.0000 0.31340  0.70010  0.39880  Biso   1.000  H
  H172     1.0000 0.33610  0.68090  0.42160  Biso   1.000  H
  H173     1.0000 0.34300  0.68750  0.42090  Biso   1.000  H
  H174     1.0000 0.34620  0.66980  0.43100  Biso   1.000  H
  H175     1.0000 0.30900  0.67640  0.40990  Biso   1.000  H
  O51      1.0000 0.46784  0.34274  0.88792  Biso   1.000  O
  O52      1.0000 0.46799  0.30540  0.85100  Biso   1.000  O
  C76      1.0000 0.45865  0.31803  0.87578  Biso   1.000  C
  C77      1.0000 0.43244  0.30092  0.89256  Biso   1.000  C
  C78      1.0000 0.42281  0.27169  0.88305  Biso   1.000  C
  H176     1.0000 0.43280  0.26200  0.86570  Biso   1.000  H
  H177     1.0000 0.30300  0.16640  0.91140  Biso   1.000  H
  H178     1.0000 0.31340  0.20010  0.89880  Biso   1.000  H
  H179     1.0000 0.33610  0.18090  0.92160  Biso   1.000  H
  H180     1.0000 0.34300  0.18750  0.92090  Biso   1.000  H
  H181     1.0000 0.34620  0.16980  0.93100  Biso   1.000  H
  H182     1.0000 0.30900  0.17640  0.90990  Biso   1.000  H
  O53      1.0000 0.96784  0.84274  0.88792  Biso   1.000  O
  O54      1.0000 0.96799  0.80540  0.85100  Biso   1.000  O
  C79      1.0000 0.95865  0.81803  0.87578  Biso   1.000  C
  C80      1.0000 0.93244  0.80092  0.89256  Biso   1.000  C
  C81      1.0000 0.92281  0.77169  0.88305  Biso   1.000  C
  H183     1.0000 0.93280  0.76200  0.86570  Biso   1.000  H
  H184     1.0000 0.80300  0.66640  0.91140  Biso   1.000  H
  H185     1.0000 0.81340  0.70010  0.89880  Biso   1.000  H
  H186     1.0000 0.83610  0.68090  0.92160  Biso   1.000  H
  H187     1.0000 0.84300  0.68750  0.92090  Biso   1.000  H
  H188     1.0000 0.84620  0.66980  0.93100  Biso   1.000  H
  H189     1.0000 0.80900  0.67640  0.90990  Biso   1.000  H
  O55      1.0000 0.96784  0.34274  0.38792  Biso   1.000  O
  O56      1.0000 0.96799  0.30540  0.35100  Biso   1.000  O
  C82      1.0000 0.95865  0.31803  0.37578  Biso   1.000  C
  C83      1.0000 0.93244  0.30092  0.39256  Biso   1.000  C
  C84      1.0000 0.92281  0.27169  0.38305  Biso   1.000  C
  H190     1.0000 0.93280  0.26200  0.36570  Biso   1.000  H
  H191     1.0000 0.80300  0.16640  0.41140  Biso   1.000  H
  H192     1.0000 0.81340  0.20010  0.39880  Biso   1.000  H
  H193     1.0000 0.83610  0.18090  0.42160  Biso   1.000  H
  H194     1.0000 0.84300  0.18750  0.42090  Biso   1.000  H
  H195     1.0000 0.84620  0.16980  0.43100  Biso   1.000  H
  H196     1.0000 0.80900  0.17640  0.40990  Biso   1.000  H
  O57      1.0000 0.46784  0.15726  0.61208  Biso   1.000  O
  O58      1.0000 0.46799  0.19460  0.64900  Biso   1.000  O
  C85      1.0000 0.45865  0.18197  0.62422  Biso   1.000  C
  C86      1.0000 0.43244  0.19908  0.60744  Biso   1.000  C
  C87      1.0000 0.42281  0.22831  0.61695  Biso   1.000  C
  H197     1.0000 0.43280  0.23800  0.63430  Biso   1.000  H
  H198     1.0000 0.30300  0.33360  0.58860  Biso   1.000  H
  H199     1.0000 0.31340  0.29990  0.60120  Biso   1.000  H
  H200     1.0000 0.33610  0.31910  0.57840  Biso   1.000  H
  H201     1.0000 0.34300  0.31250  0.57910  Biso   1.000  H
  H202     1.0000 0.34620  0.33020  0.56900  Biso   1.000  H
  H203     1.0000 0.30900  0.32360  0.59010  Biso   1.000  H
  O59      1.0000 0.46784  0.65726  0.11208  Biso   1.000  O
  O60      1.0000 0.46799  0.69460  0.14900  Biso   1.000  O
  C88      1.0000 0.45865  0.68197  0.12422  Biso   1.000  C
  C89      1.0000 0.43244  0.69908  0.10744  Biso   1.000  C
  C90      1.0000 0.42281  0.72831  0.11695  Biso   1.000  C
  H204     1.0000 0.43280  0.73800  0.13430  Biso   1.000  H
  H205     1.0000 0.30300  0.83360  0.08860  Biso   1.000  H
  H206     1.0000 0.31340  0.79990  0.10120  Biso   1.000  H
  H207     1.0000 0.33610  0.81910  0.07840  Biso   1.000  H
  H208     1.0000 0.34300  0.81250  0.07910  Biso   1.000  H
  H209     1.0000 0.34620  0.83020  0.06900  Biso   1.000  H
  H210     1.0000 0.30900  0.82360  0.09010  Biso   1.000  H
  O61      1.0000 0.96784  0.15726  0.11208  Biso   1.000  O
  O62      1.0000 0.96799  0.19460  0.14900  Biso   1.000  O
  C91      1.0000 0.95865  0.18197  0.12422  Biso   1.000  C
  C92      1.0000 0.93244  0.19908  0.10744  Biso   1.000  C
  C93      1.0000 0.92281  0.22831  0.11695  Biso   1.000  C
  H211     1.0000 0.93280  0.23800  0.13430  Biso   1.000  H
  H212     1.0000 0.80300  0.33360  0.08860  Biso   1.000  H
  H213     1.0000 0.81340  0.29990  0.10120  Biso   1.000  H
  H214     1.0000 0.83610  0.31910  0.07840  Biso   1.000  H
  H215     1.0000 0.84300  0.31250  0.07910  Biso   1.000  H
  H216     1.0000 0.84620  0.33020  0.06900  Biso   1.000  H
  H217     1.0000 0.80900  0.32360  0.09010  Biso   1.000  H
  O63      1.0000 0.96784  0.65726  0.61208  Biso   1.000  O
  O64      1.0000 0.96799  0.69460  0.64900  Biso   1.000  O
  C94      1.0000 0.95865  0.68197  0.62422  Biso   1.000  C
  C95      1.0000 0.93244  0.69908  0.60744  Biso   1.000  C
  C96      1.0000 0.92281  0.72831  0.61695  Biso   1.000  C
  H218     1.0000 0.93280  0.73800  0.63430  Biso   1.000  H
  H219     1.0000 0.80300  0.83360  0.58860  Biso   1.000  H
  H220     1.0000 0.81340  0.79990  0.60120  Biso   1.000  H
  H221     1.0000 0.83610  0.81910  0.57840  Biso   1.000  H
  H222     1.0000 0.84300  0.81250  0.57910  Biso   1.000  H
  H223     1.0000 0.84620  0.83020  0.56900  Biso   1.000  H
  H224     1.0000 0.80900  0.82360  0.59010  Biso   1.000  H
  O65      1.0000 0.38792  0.53216  0.15726  Biso   1.000  O
  O66      1.0000 0.35100  0.53201  0.19460  Biso   1.000  O
  C97      1.0000 0.37578  0.54135  0.18197  Biso   1.000  C
  C98      1.0000 0.39256  0.56756  0.19908  Biso   1.000  C
  C99      1.0000 0.38305  0.57719  0.22831  Biso   1.000  C
  H225     1.0000 0.36570  0.56720  0.23800  Biso   1.000  H
  H226     1.0000 0.41140  0.69700  0.33360  Biso   1.000  H
  H227     1.0000 0.39880  0.68660  0.29990  Biso   1.000  H
  H228     1.0000 0.42160  0.66390  0.31910  Biso   1.000  H
  H229     1.0000 0.42090  0.65700  0.31250  Biso   1.000  H
  H230     1.0000 0.43100  0.65380  0.33020  Biso   1.000  H
  H231     1.0000 0.40990  0.69100  0.32360  Biso   1.000  H
  O67      1.0000 0.38792  0.03216  0.65726  Biso   1.000  O
  O68      1.0000 0.35100  0.03201  0.69460  Biso   1.000  O
  C100     1.0000 0.37578  0.04135  0.68197  Biso   1.000  C
  C101     1.0000 0.39256  0.06756  0.69908  Biso   1.000  C
  C102     1.0000 0.38305  0.07719  0.72831  Biso   1.000  C
  H232     1.0000 0.36570  0.06720  0.73800  Biso   1.000  H
  H233     1.0000 0.41140  0.19700  0.83360  Biso   1.000  H
  H234     1.0000 0.39880  0.18660  0.79990  Biso   1.000  H
  H235     1.0000 0.42160  0.16390  0.81910  Biso   1.000  H
  H236     1.0000 0.42090  0.15700  0.81250  Biso   1.000  H
  H237     1.0000 0.43100  0.15380  0.83020  Biso   1.000  H
  H238     1.0000 0.40990  0.19100  0.82360  Biso   1.000  H
  O69      1.0000 0.88792  0.53216  0.65726  Biso   1.000  O
  O70      1.0000 0.85100  0.53201  0.69460  Biso   1.000  O
  C103     1.0000 0.87578  0.54135  0.68197  Biso   1.000  C
  C104     1.0000 0.89256  0.56756  0.69908  Biso   1.000  C
  C105     1.0000 0.88305  0.57719  0.72831  Biso   1.000  C
  H239     1.0000 0.86570  0.56720  0.73800  Biso   1.000  H
  H240     1.0000 0.91140  0.69700  0.83360  Biso   1.000  H
  H241     1.0000 0.89880  0.68660  0.79990  Biso   1.000  H
  H242     1.0000 0.92160  0.66390  0.81910  Biso   1.000  H
  H243     1.0000 0.92090  0.65700  0.81250  Biso   1.000  H
  H244     1.0000 0.93100  0.65380  0.83020  Biso   1.000  H
  H245     1.0000 0.90990  0.69100  0.82360  Biso   1.000  H
  O71      1.0000 0.88792  0.03216  0.15726  Biso   1.000  O
  O72      1.0000 0.85100  0.03201  0.19460  Biso   1.000  O
  C106     1.0000 0.87578  0.04135  0.18197  Biso   1.000  C
  C107     1.0000 0.89256  0.06756  0.19908  Biso   1.000  C
  C108     1.0000 0.88305  0.07719  0.22831  Biso   1.000  C
  H246     1.0000 0.86570  0.06720  0.23800  Biso   1.000  H
  H247     1.0000 0.91140  0.19700  0.33360  Biso   1.000  H
  H248     1.0000 0.89880  0.18660  0.29990  Biso   1.000  H
  H249     1.0000 0.92160  0.16390  0.31910  Biso   1.000  H
  H250     1.0000 0.92090  0.15700  0.31250  Biso   1.000  H
  H251     1.0000 0.93100  0.15380  0.33020  Biso   1.000  H
  H252     1.0000 0.90990  0.19100  0.32360  Biso   1.000  H
  O73      1.0000 0.61208  0.53216  0.84274  Biso   1.000  O
  O74      1.0000 0.64900  0.53201  0.80540  Biso   1.000  O
  C109     1.0000 0.62422  0.54135  0.81803  Biso   1.000  C
  C110     1.0000 0.60744  0.56756  0.80092  Biso   1.000  C
  C111     1.0000 0.61695  0.57719  0.77169  Biso   1.000  C
  H253     1.0000 0.63430  0.56720  0.76200  Biso   1.000  H
  H254     1.0000 0.58860  0.69700  0.66640  Biso   1.000  H
  H255     1.0000 0.60120  0.68660  0.70010  Biso   1.000  H
  H256     1.0000 0.57840  0.66390  0.68090  Biso   1.000  H
  H257     1.0000 0.57910  0.65700  0.68750  Biso   1.000  H
  H258     1.0000 0.56900  0.65380  0.66980  Biso   1.000  H
  H259     1.0000 0.59010  0.69100  0.67640  Biso   1.000  H
  O75      1.0000 0.61208  0.03216  0.34274  Biso   1.000  O
  O76      1.0000 0.64900  0.03201  0.30540  Biso   1.000  O
  C112     1.0000 0.62422  0.04135  0.31803  Biso   1.000  C
  C113     1.0000 0.60744  0.06756  0.30092  Biso   1.000  C
  C114     1.0000 0.61695  0.07719  0.27169  Biso   1.000  C
  H260     1.0000 0.63430  0.06720  0.26200  Biso   1.000  H
  H261     1.0000 0.58860  0.19700  0.16640  Biso   1.000  H
  H262     1.0000 0.60120  0.18660  0.20010  Biso   1.000  H
  H263     1.0000 0.57840  0.16390  0.18090  Biso   1.000  H
  H264     1.0000 0.57910  0.15700  0.18750  Biso   1.000  H
  H265     1.0000 0.56900  0.15380  0.16980  Biso   1.000  H
  H266     1.0000 0.59010  0.19100  0.17640  Biso   1.000  H
  O77      1.0000 0.11208  0.53216  0.34274  Biso   1.000  O
  O78      1.0000 0.14900  0.53201  0.30540  Biso   1.000  O
  C115     1.0000 0.12422  0.54135  0.31803  Biso   1.000  C
  C116     1.0000 0.10744  0.56756  0.30092  Biso   1.000  C
  C117     1.0000 0.11695  0.57719  0.27169  Biso   1.000  C
  H267     1.0000 0.13430  0.56720  0.26200  Biso   1.000  H
  H268     1.0000 0.08860  0.69700  0.16640  Biso   1.000  H
  H269     1.0000 0.10120  0.68660  0.20010  Biso   1.000  H
  H270     1.0000 0.07840  0.66390  0.18090  Biso   1.000  H
  H271     1.0000 0.07910  0.65700  0.18750  Biso   1.000  H
  H272     1.0000 0.06900  0.65380  0.16980  Biso   1.000  H
  H273     1.0000 0.09010  0.69100  0.17640  Biso   1.000  H
  O79      1.0000 0.11208  0.03216  0.84274  Biso   1.000  O
  O80      1.0000 0.14900  0.03201  0.80540  Biso   1.000  O
  C118     1.0000 0.12422  0.04135  0.81803  Biso   1.000  C
  C119     1.0000 0.10744  0.06756  0.80092  Biso   1.000  C
  C120     1.0000 0.11695  0.07719  0.77169  Biso   1.000  C
  H274     1.0000 0.13430  0.06720  0.76200  Biso   1.000  H
  H275     1.0000 0.08860  0.19700  0.66640  Biso   1.000  H
  H276     1.0000 0.10120  0.18660  0.70010  Biso   1.000  H
  H277     1.0000 0.07840  0.16390  0.68090  Biso   1.000  H
  H278     1.0000 0.07910  0.15700  0.68750  Biso   1.000  H
  H279     1.0000 0.06900  0.15380  0.66980  Biso   1.000  H
  H280     1.0000 0.09010  0.19100  0.67640  Biso   1.000  H
  O81      1.0000 0.38792  0.46784  0.84274  Biso   1.000  O
  O82      1.0000 0.35100  0.46799  0.80540  Biso   1.000  O
  C121     1.0000 0.37578  0.45865  0.81803  Biso   1.000  C
  C122     1.0000 0.39256  0.43244  0.80092  Biso   1.000  C
  C123     1.0000 0.38305  0.42281  0.77169  Biso   1.000  C
  H281     1.0000 0.36570  0.43280  0.76200  Biso   1.000  H
  H282     1.0000 0.41140  0.30300  0.66640  Biso   1.000  H
  H283     1.0000 0.39880  0.31340  0.70010  Biso   1.000  H
  H284     1.0000 0.42160  0.33610  0.68090  Biso   1.000  H
  H285     1.0000 0.42090  0.34300  0.68750  Biso   1.000  H
  H286     1.0000 0.43100  0.34620  0.66980  Biso   1.000  H
  H287     1.0000 0.40990  0.30900  0.67640  Biso   1.000  H
  O83      1.0000 0.38792  0.96784  0.34274  Biso   1.000  O
  O84      1.0000 0.35100  0.96799  0.30540  Biso   1.000  O
  C124     1.0000 0.37578  0.95865  0.31803  Biso   1.000  C
  C125     1.0000 0.39256  0.93244  0.30092  Biso   1.000  C
  C126     1.0000 0.38305  0.92281  0.27169  Biso   1.000  C
  H288     1.0000 0.36570  0.93280  0.26200  Biso   1.000  H
  H289     1.0000 0.41140  0.80300  0.16640  Biso   1.000  H
  H290     1.0000 0.39880  0.81340  0.20010  Biso   1.000  H
  H291     1.0000 0.42160  0.83610  0.18090  Biso   1.000  H
  H292     1.0000 0.42090  0.84300  0.18750  Biso   1.000  H
  H293     1.0000 0.43100  0.84620  0.16980  Biso   1.000  H
  H294     1.0000 0.40990  0.80900  0.17640  Biso   1.000  H
  O85      1.0000 0.88792  0.46784  0.34274  Biso   1.000  O
  O86      1.0000 0.85100  0.46799  0.30540  Biso   1.000  O
  C127     1.0000 0.87578  0.45865  0.31803  Biso   1.000  C
  C128     1.0000 0.89256  0.43244  0.30092  Biso   1.000  C
  C129     1.0000 0.88305  0.42281  0.27169  Biso   1.000  C
  H295     1.0000 0.86570  0.43280  0.26200  Biso   1.000  H
  H296     1.0000 0.91140  0.30300  0.16640  Biso   1.000  H
  H297     1.0000 0.89880  0.31340  0.20010  Biso   1.000  H
  H298     1.0000 0.92160  0.33610  0.18090  Biso   1.000  H
  H299     1.0000 0.92090  0.34300  0.18750  Biso   1.000  H
  H300     1.0000 0.93100  0.34620  0.16980  Biso   1.000  H
  H301     1.0000 0.90990  0.30900  0.17640  Biso   1.000  H
  O87      1.0000 0.88792  0.96784  0.84274  Biso   1.000  O
  O88      1.0000 0.85100  0.96799  0.80540  Biso   1.000  O
  C130     1.0000 0.87578  0.95865  0.81803  Biso   1.000  C
  C131     1.0000 0.89256  0.93244  0.80092  Biso   1.000  C
  C132     1.0000 0.88305  0.92281  0.77169  Biso   1.000  C
  H302     1.0000 0.86570  0.93280  0.76200  Biso   1.000  H
  H303     1.0000 0.91140  0.80300  0.66640  Biso   1.000  H
  H304     1.0000 0.89880  0.81340  0.70010  Biso   1.000  H
  H305     1.0000 0.92160  0.83610  0.68090  Biso   1.000  H
  H306     1.0000 0.92090  0.84300  0.68750  Biso   1.000  H
  H307     1.0000 0.93100  0.84620  0.66980  Biso   1.000  H
  H308     1.0000 0.90990  0.80900  0.67640  Biso   1.000  H
  O89      1.0000 0.61208  0.46784  0.15726  Biso   1.000  O
  O90      1.0000 0.64900  0.46799  0.19460  Biso   1.000  O
  C133     1.0000 0.62422  0.45865  0.18197  Biso   1.000  C
  C134     1.0000 0.60744  0.43244  0.19908  Biso   1.000  C
  C135     1.0000 0.61695  0.42281  0.22831  Biso   1.000  C
  H309     1.0000 0.63430  0.43280  0.23800  Biso   1.000  H
  H310     1.0000 0.58860  0.30300  0.33360  Biso   1.000  H
  H311     1.0000 0.60120  0.31340  0.29990  Biso   1.000  H
  H312     1.0000 0.57840  0.33610  0.31910  Biso   1.000  H
  H313     1.0000 0.57910  0.34300  0.31250  Biso   1.000  H
  H314     1.0000 0.56900  0.34620  0.33020  Biso   1.000  H
  H315     1.0000 0.59010  0.30900  0.32360  Biso   1.000  H
  O91      1.0000 0.61208  0.96784  0.65726  Biso   1.000  O
  O92      1.0000 0.64900  0.96799  0.69460  Biso   1.000  O
  C136     1.0000 0.62422  0.95865  0.68197  Biso   1.000  C
  C137     1.0000 0.60744  0.93244  0.69908  Biso   1.000  C
  C138     1.0000 0.61695  0.92281  0.72831  Biso   1.000  C
  H316     1.0000 0.63430  0.93280  0.73800  Biso   1.000  H
  H317     1.0000 0.58860  0.80300  0.83360  Biso   1.000  H
  H318     1.0000 0.60120  0.81340  0.79990  Biso   1.000  H
  H319     1.0000 0.57840  0.83610  0.81910  Biso   1.000  H
  H320     1.0000 0.57910  0.84300  0.81250  Biso   1.000  H
  H321     1.0000 0.56900  0.84620  0.83020  Biso   1.000  H
  H322     1.0000 0.59010  0.80900  0.82360  Biso   1.000  H
  O93      1.0000 0.11208  0.46784  0.65726  Biso   1.000  O
  O94      1.0000 0.14900  0.46799  0.69460  Biso   1.000  O
  C139     1.0000 0.12422  0.45865  0.68197  Biso   1.000  C
  C140     1.0000 0.10744  0.43244  0.69908  Biso   1.000  C
  C141     1.0000 0.11695  0.42281  0.72831  Biso   1.000  C
  H323     1.0000 0.13430  0.43280  0.73800  Biso   1.000  H
  H324     1.0000 0.08860  0.30300  0.83360  Biso   1.000  H
  H325     1.0000 0.10120  0.31340  0.79990  Biso   1.000  H
  H326     1.0000 0.07840  0.33610  0.81910  Biso   1.000  H
  H327     1.0000 0.07910  0.34300  0.81250  Biso   1.000  H
  H328     1.0000 0.06900  0.34620  0.83020  Biso   1.000  H
  H329     1.0000 0.09010  0.30900  0.82360  Biso   1.000  H
  O95      1.0000 0.11208  0.96784  0.15726  Biso   1.000  O
  O96      1.0000 0.14900  0.96799  0.19460  Biso   1.000  O
  C142     1.0000 0.12422  0.95865  0.18197  Biso   1.000  C
  C143     1.0000 0.10744  0.93244  0.19908  Biso   1.000  C
  C144     1.0000 0.11695  0.92281  0.22831  Biso   1.000  C
  H330     1.0000 0.13430  0.93280  0.23800  Biso   1.000  H
  H331     1.0000 0.08860  0.80300  0.33360  Biso   1.000  H
  H332     1.0000 0.10120  0.81340  0.29990  Biso   1.000  H
  H333     1.0000 0.07840  0.83610  0.31910  Biso   1.000  H
  H334     1.0000 0.07910  0.84300  0.31250  Biso   1.000  H
  H335     1.0000 0.06900  0.84620  0.33020  Biso   1.000  H
  H336     1.0000 0.09010  0.80900  0.32360  Biso   1.000  H
  O97      1.0000 0.38792  0.15726  0.46784  Biso   1.000  O
  O98      1.0000 0.35100  0.19460  0.46799  Biso   1.000  O
  C145     1.0000 0.37578  0.18197  0.45865  Biso   1.000  C
  C146     1.0000 0.39256  0.19908  0.43244  Biso   1.000  C
  C147     1.0000 0.38305  0.22831  0.42281  Biso   1.000  C
  H337     1.0000 0.36570  0.23800  0.43280  Biso   1.000  H
  H338     1.0000 0.41140  0.33360  0.30300  Biso   1.000  H
  H339     1.0000 0.39880  0.29990  0.31340  Biso   1.000  H
  H340     1.0000 0.42160  0.31910  0.33610  Biso   1.000  H
  H341     1.0000 0.42090  0.31250  0.34300  Biso   1.000  H
  H342     1.0000 0.43100  0.33020  0.34620  Biso   1.000  H
  H343     1.0000 0.40990  0.32360  0.30900  Biso   1.000  H
  O99      1.0000 0.38792  0.65726  0.96784  Biso   1.000  O
  O100     1.0000 0.35100  0.69460  0.96799  Biso   1.000  O
  C148     1.0000 0.37578  0.68197  0.95865  Biso   1.000  C
  C149     1.0000 0.39256  0.69908  0.93244  Biso   1.000  C
  C150     1.0000 0.38305  0.72831  0.92281  Biso   1.000  C
  H344     1.0000 0.36570  0.73800  0.93280  Biso   1.000  H
  H345     1.0000 0.41140  0.83360  0.80300  Biso   1.000  H
  H346     1.0000 0.39880  0.79990  0.81340  Biso   1.000  H
  H347     1.0000 0.42160  0.81910  0.83610  Biso   1.000  H
  H348     1.0000 0.42090  0.81250  0.84300  Biso   1.000  H
  H349     1.0000 0.43100  0.83020  0.84620  Biso   1.000  H
  H350     1.0000 0.40990  0.82360  0.80900  Biso   1.000  H
  O101     1.0000 0.88792  0.15726  0.96784  Biso   1.000  O
  O102     1.0000 0.85100  0.19460  0.96799  Biso   1.000  O
  C151     1.0000 0.87578  0.18197  0.95865  Biso   1.000  C
  C152     1.0000 0.89256  0.19908  0.93244  Biso   1.000  C
  C153     1.0000 0.88305  0.22831  0.92281  Biso   1.000  C
  H351     1.0000 0.86570  0.23800  0.93280  Biso   1.000  H
  H352     1.0000 0.91140  0.33360  0.80300  Biso   1.000  H
  H353     1.0000 0.89880  0.29990  0.81340  Biso   1.000  H
  H354     1.0000 0.92160  0.31910  0.83610  Biso   1.000  H
  H355     1.0000 0.92090  0.31250  0.84300  Biso   1.000  H
  H356     1.0000 0.93100  0.33020  0.84620  Biso   1.000  H
  H357     1.0000 0.90990  0.32360  0.80900  Biso   1.000  H
  O103     1.0000 0.88792  0.65726  0.46784  Biso   1.000  O
  O104     1.0000 0.85100  0.69460  0.46799  Biso   1.000  O
  C154     1.0000 0.87578  0.68197  0.45865  Biso   1.000  C
  C155     1.0000 0.89256  0.69908  0.43244  Biso   1.000  C
  C156     1.0000 0.88305  0.72831  0.42281  Biso   1.000  C
  H358     1.0000 0.86570  0.73800  0.43280  Biso   1.000  H
  H359     1.0000 0.91140  0.83360  0.30300  Biso   1.000  H
  H360     1.0000 0.89880  0.79990  0.31340  Biso   1.000  H
  H361     1.0000 0.92160  0.81910  0.33610  Biso   1.000  H
  H362     1.0000 0.92090  0.81250  0.34300  Biso   1.000  H
  H363     1.0000 0.93100  0.83020  0.34620  Biso   1.000  H
  H364     1.0000 0.90990  0.82360  0.30900  Biso   1.000  H
  O105     1.0000 0.61208  0.84274  0.46784  Biso   1.000  O
  O106     1.0000 0.64900  0.80540  0.46799  Biso   1.000  O
  C157     1.0000 0.62422  0.81803  0.45865  Biso   1.000  C
  C158     1.0000 0.60744  0.80092  0.43244  Biso   1.000  C
  C159     1.0000 0.61695  0.77169  0.42281  Biso   1.000  C
  H365     1.0000 0.63430  0.76200  0.43280  Biso   1.000  H
  H366     1.0000 0.58860  0.66640  0.30300  Biso   1.000  H
  H367     1.0000 0.60120  0.70010  0.31340  Biso   1.000  H
  H368     1.0000 0.57840  0.68090  0.33610  Biso   1.000  H
  H369     1.0000 0.57910  0.68750  0.34300  Biso   1.000  H
  H370     1.0000 0.56900  0.66980  0.34620  Biso   1.000  H
  H371     1.0000 0.59010  0.67640  0.30900  Biso   1.000  H
  O107     1.0000 0.61208  0.34274  0.96784  Biso   1.000  O
  O108     1.0000 0.64900  0.30540  0.96799  Biso   1.000  O
  C160     1.0000 0.62422  0.31803  0.95865  Biso   1.000  C
  C161     1.0000 0.60744  0.30092  0.93244  Biso   1.000  C
  C162     1.0000 0.61695  0.27169  0.92281  Biso   1.000  C
  H372     1.0000 0.63430  0.26200  0.93280  Biso   1.000  H
  H373     1.0000 0.58860  0.16640  0.80300  Biso   1.000  H
  H374     1.0000 0.60120  0.20010  0.81340  Biso   1.000  H
  H375     1.0000 0.57840  0.18090  0.83610  Biso   1.000  H
  H376     1.0000 0.57910  0.18750  0.84300  Biso   1.000  H
  H377     1.0000 0.56900  0.16980  0.84620  Biso   1.000  H
  H378     1.0000 0.59010  0.17640  0.80900  Biso   1.000  H
  O109     1.0000 0.11208  0.84274  0.96784  Biso   1.000  O
  O110     1.0000 0.14900  0.80540  0.96799  Biso   1.000  O
  C163     1.0000 0.12422  0.81803  0.95865  Biso   1.000  C
  C164     1.0000 0.10744  0.80092  0.93244  Biso   1.000  C
  C165     1.0000 0.11695  0.77169  0.92281  Biso   1.000  C
  H379     1.0000 0.13430  0.76200  0.93280  Biso   1.000  H
  H380     1.0000 0.08860  0.66640  0.80300  Biso   1.000  H
  H381     1.0000 0.10120  0.70010  0.81340  Biso   1.000  H
  H382     1.0000 0.07840  0.68090  0.83610  Biso   1.000  H
  H383     1.0000 0.07910  0.68750  0.84300  Biso   1.000  H
  H384     1.0000 0.06900  0.66980  0.84620  Biso   1.000  H
  H385     1.0000 0.09010  0.67640  0.80900  Biso   1.000  H
  O111     1.0000 0.11208  0.34274  0.46784  Biso   1.000  O
  O112     1.0000 0.14900  0.30540  0.46799  Biso   1.000  O
  C166     1.0000 0.12422  0.31803  0.45865  Biso   1.000  C
  C167     1.0000 0.10744  0.30092  0.43244  Biso   1.000  C
  C168     1.0000 0.11695  0.27169  0.42281  Biso   1.000  C
  H386     1.0000 0.13430  0.26200  0.43280  Biso   1.000  H
  H387     1.0000 0.08860  0.16640  0.30300  Biso   1.000  H
  H388     1.0000 0.10120  0.20010  0.31340  Biso   1.000  H
  H389     1.0000 0.07840  0.18090  0.33610  Biso   1.000  H
  H390     1.0000 0.07910  0.18750  0.34300  Biso   1.000  H
  H391     1.0000 0.06900  0.16980  0.34620  Biso   1.000  H
  H392     1.0000 0.09010  0.17640  0.30900  Biso   1.000  H
  O113     1.0000 0.38792  0.84274  0.53216  Biso   1.000  O
  O114     1.0000 0.35100  0.80540  0.53201  Biso   1.000  O
  C169     1.0000 0.37578  0.81803  0.54135  Biso   1.000  C
  C170     1.0000 0.39256  0.80092  0.56756  Biso   1.000  C
  C171     1.0000 0.38305  0.77169  0.57719  Biso   1.000  C
  H393     1.0000 0.36570  0.76200  0.56720  Biso   1.000  H
  H394     1.0000 0.41140  0.66640  0.69700  Biso   1.000  H
  H395     1.0000 0.39880  0.70010  0.68660  Biso   1.000  H
  H396     1.0000 0.42160  0.68090  0.66390  Biso   1.000  H
  H397     1.0000 0.42090  0.68750  0.65700  Biso   1.000  H
  H398     1.0000 0.43100  0.66980  0.65380  Biso   1.000  H
  H399     1.0000 0.40990  0.67640  0.69100  Biso   1.000  H
  O115     1.0000 0.38792  0.34274  0.03216  Biso   1.000  O
  O116     1.0000 0.35100  0.30540  0.03201  Biso   1.000  O
  C172     1.0000 0.37578  0.31803  0.04135  Biso   1.000  C
  C173     1.0000 0.39256  0.30092  0.06756  Biso   1.000  C
  C174     1.0000 0.38305  0.27169  0.07719  Biso   1.000  C
  H400     1.0000 0.36570  0.26200  0.06720  Biso   1.000  H
  H401     1.0000 0.41140  0.16640  0.19700  Biso   1.000  H
  H402     1.0000 0.39880  0.20010  0.18660  Biso   1.000  H
  H403     1.0000 0.42160  0.18090  0.16390  Biso   1.000  H
  H404     1.0000 0.42090  0.18750  0.15700  Biso   1.000  H
  H405     1.0000 0.43100  0.16980  0.15380  Biso   1.000  H
  H406     1.0000 0.40990  0.17640  0.19100  Biso   1.000  H
  O117     1.0000 0.88792  0.84274  0.03216  Biso   1.000  O
  O118     1.0000 0.85100  0.80540  0.03201  Biso   1.000  O
  C175     1.0000 0.87578  0.81803  0.04135  Biso   1.000  C
  C176     1.0000 0.89256  0.80092  0.06756  Biso   1.000  C
  C177     1.0000 0.88305  0.77169  0.07719  Biso   1.000  C
  H407     1.0000 0.86570  0.76200  0.06720  Biso   1.000  H
  H408     1.0000 0.91140  0.66640  0.19700  Biso   1.000  H
  H409     1.0000 0.89880  0.70010  0.18660  Biso   1.000  H
  H410     1.0000 0.92160  0.68090  0.16390  Biso   1.000  H
  H411     1.0000 0.92090  0.68750  0.15700  Biso   1.000  H
  H412     1.0000 0.93100  0.66980  0.15380  Biso   1.000  H
  H413     1.0000 0.90990  0.67640  0.19100  Biso   1.000  H
  O119     1.0000 0.88792  0.34274  0.53216  Biso   1.000  O
  O120     1.0000 0.85100  0.30540  0.53201  Biso   1.000  O
  C178     1.0000 0.87578  0.31803  0.54135  Biso   1.000  C
  C179     1.0000 0.89256  0.30092  0.56756  Biso   1.000  C
  C180     1.0000 0.88305  0.27169  0.57719  Biso   1.000  C
  H414     1.0000 0.86570  0.26200  0.56720  Biso   1.000  H
  H415     1.0000 0.91140  0.16640  0.69700  Biso   1.000  H
  H416     1.0000 0.89880  0.20010  0.68660  Biso   1.000  H
  H417     1.0000 0.92160  0.18090  0.66390  Biso   1.000  H
  H418     1.0000 0.92090  0.18750  0.65700  Biso   1.000  H
  H419     1.0000 0.93100  0.16980  0.65380  Biso   1.000  H
  H420     1.0000 0.90990  0.17640  0.69100  Biso   1.000  H
  O121     1.0000 0.61208  0.15726  0.53216  Biso   1.000  O
  O122     1.0000 0.64900  0.19460  0.53201  Biso   1.000  O
  C181     1.0000 0.62422  0.18197  0.54135  Biso   1.000  C
  C182     1.0000 0.60744  0.19908  0.56756  Biso   1.000  C
  C183     1.0000 0.61695  0.22831  0.57719  Biso   1.000  C
  H421     1.0000 0.63430  0.23800  0.56720  Biso   1.000  H
  H422     1.0000 0.58860  0.33360  0.69700  Biso   1.000  H
  H423     1.0000 0.60120  0.29990  0.68660  Biso   1.000  H
  H424     1.0000 0.57840  0.31910  0.66390  Biso   1.000  H
  H425     1.0000 0.57910  0.31250  0.65700  Biso   1.000  H
  H426     1.0000 0.56900  0.33020  0.65380  Biso   1.000  H
  H427     1.0000 0.59010  0.32360  0.69100  Biso   1.000  H
  O123     1.0000 0.61208  0.65726  0.03216  Biso   1.000  O
  O124     1.0000 0.64900  0.69460  0.03201  Biso   1.000  O
  C184     1.0000 0.62422  0.68197  0.04135  Biso   1.000  C
  C185     1.0000 0.60744  0.69908  0.06756  Biso   1.000  C
  C186     1.0000 0.61695  0.72831  0.07719  Biso   1.000  C
  H428     1.0000 0.63430  0.73800  0.06720  Biso   1.000  H
  H429     1.0000 0.58860  0.83360  0.19700  Biso   1.000  H
  H430     1.0000 0.60120  0.79990  0.18660  Biso   1.000  H
  H431     1.0000 0.57840  0.81910  0.16390  Biso   1.000  H
  H432     1.0000 0.57910  0.81250  0.15700  Biso   1.000  H
  H433     1.0000 0.56900  0.83020  0.15380  Biso   1.000  H
  H434     1.0000 0.59010  0.82360  0.19100  Biso   1.000  H
  O125     1.0000 0.11208  0.15726  0.03216  Biso   1.000  O
  O126     1.0000 0.14900  0.19460  0.03201  Biso   1.000  O
  C187     1.0000 0.12422  0.18197  0.04135  Biso   1.000  C
  C188     1.0000 0.10744  0.19908  0.06756  Biso   1.000  C
  C189     1.0000 0.11695  0.22831  0.07719  Biso   1.000  C
  H435     1.0000 0.13430  0.23800  0.06720  Biso   1.000  H
  H436     1.0000 0.08860  0.33360  0.19700  Biso   1.000  H
  H437     1.0000 0.10120  0.29990  0.18660  Biso   1.000  H
  H438     1.0000 0.07840  0.31910  0.16390  Biso   1.000  H
  H439     1.0000 0.07910  0.31250  0.15700  Biso   1.000  H
  H440     1.0000 0.06900  0.33020  0.15380  Biso   1.000  H
  H441     1.0000 0.09010  0.32360  0.19100  Biso   1.000  H
  O127     1.0000 0.11208  0.65726  0.53216  Biso   1.000  O
  O128     1.0000 0.14900  0.69460  0.53201  Biso   1.000  O
  C190     1.0000 0.12422  0.68197  0.54135  Biso   1.000  C
  C191     1.0000 0.10744  0.69908  0.56756  Biso   1.000  C
  C192     1.0000 0.11695  0.72831  0.57719  Biso   1.000  C
  H442     1.0000 0.13430  0.73800  0.56720  Biso   1.000  H
  H443     1.0000 0.08860  0.83360  0.69700  Biso   1.000  H
  H444     1.0000 0.10120  0.79990  0.68660  Biso   1.000  H
  H445     1.0000 0.07840  0.81910  0.66390  Biso   1.000  H
  H446     1.0000 0.07910  0.81250  0.65700  Biso   1.000  H
  H447     1.0000 0.06900  0.83020  0.65380  Biso   1.000  H
  H448     1.0000 0.09010  0.82360  0.69100  Biso   1.000  H
  O129     1.0000 0.15726  0.53216  0.61208  Biso   1.000  O
  O130     1.0000 0.19460  0.53201  0.64900  Biso   1.000  O
  C193     1.0000 0.18197  0.54135  0.62422  Biso   1.000  C
  C194     1.0000 0.19908  0.56756  0.60744  Biso   1.000  C
  C195     1.0000 0.22831  0.57719  0.61695  Biso   1.000  C
  H449     1.0000 0.23800  0.56720  0.63430  Biso   1.000  H
  H450     1.0000 0.33360  0.69700  0.58860  Biso   1.000  H
  H451     1.0000 0.29990  0.68660  0.60120  Biso   1.000  H
  H452     1.0000 0.31910  0.66390  0.57840  Biso   1.000  H
  H453     1.0000 0.31250  0.65700  0.57910  Biso   1.000  H
  H454     1.0000 0.33020  0.65380  0.56900  Biso   1.000  H
  H455     1.0000 0.32360  0.69100  0.59010  Biso   1.000  H
  O131     1.0000 0.15726  0.03216  0.11208  Biso   1.000  O
  O132     1.0000 0.19460  0.03201  0.14900  Biso   1.000  O
  C196     1.0000 0.18197  0.04135  0.12422  Biso   1.000  C
  C197     1.0000 0.19908  0.06756  0.10744  Biso   1.000  C
  C198     1.0000 0.22831  0.07719  0.11695  Biso   1.000  C
  H456     1.0000 0.23800  0.06720  0.13430  Biso   1.000  H
  H457     1.0000 0.33360  0.19700  0.08860  Biso   1.000  H
  H458     1.0000 0.29990  0.18660  0.10120  Biso   1.000  H
  H459     1.0000 0.31910  0.16390  0.07840  Biso   1.000  H
  H460     1.0000 0.31250  0.15700  0.07910  Biso   1.000  H
  H461     1.0000 0.33020  0.15380  0.06900  Biso   1.000  H
  H462     1.0000 0.32360  0.19100  0.09010  Biso   1.000  H
  O133     1.0000 0.65726  0.53216  0.11208  Biso   1.000  O
  O134     1.0000 0.69460  0.53201  0.14900  Biso   1.000  O
  C199     1.0000 0.68197  0.54135  0.12422  Biso   1.000  C
  C200     1.0000 0.69908  0.56756  0.10744  Biso   1.000  C
  C201     1.0000 0.72831  0.57719  0.11695  Biso   1.000  C
  H463     1.0000 0.73800  0.56720  0.13430  Biso   1.000  H
  H464     1.0000 0.83360  0.69700  0.08860  Biso   1.000  H
  H465     1.0000 0.79990  0.68660  0.10120  Biso   1.000  H
  H466     1.0000 0.81910  0.66390  0.07840  Biso   1.000  H
  H467     1.0000 0.81250  0.65700  0.07910  Biso   1.000  H
  H468     1.0000 0.83020  0.65380  0.06900  Biso   1.000  H
  H469     1.0000 0.82360  0.69100  0.09010  Biso   1.000  H
  O135     1.0000 0.65726  0.03216  0.61208  Biso   1.000  O
  O136     1.0000 0.69460  0.03201  0.64900  Biso   1.000  O
  C202     1.0000 0.68197  0.04135  0.62422  Biso   1.000  C
  C203     1.0000 0.69908  0.06756  0.60744  Biso   1.000  C
  C204     1.0000 0.72831  0.07719  0.61695  Biso   1.000  C
  H470     1.0000 0.73800  0.06720  0.63430  Biso   1.000  H
  H471     1.0000 0.83360  0.19700  0.58860  Biso   1.000  H
  H472     1.0000 0.79990  0.18660  0.60120  Biso   1.000  H
  H473     1.0000 0.81910  0.16390  0.57840  Biso   1.000  H
  H474     1.0000 0.81250  0.15700  0.57910  Biso   1.000  H
  H475     1.0000 0.83020  0.15380  0.56900  Biso   1.000  H
  H476     1.0000 0.82360  0.19100  0.59010  Biso   1.000  H
  O137     1.0000 0.84274  0.53216  0.38792  Biso   1.000  O
  O138     1.0000 0.80540  0.53201  0.35100  Biso   1.000  O
  C205     1.0000 0.81803  0.54135  0.37578  Biso   1.000  C
  C206     1.0000 0.80092  0.56756  0.39256  Biso   1.000  C
  C207     1.0000 0.77169  0.57719  0.38305  Biso   1.000  C
  H477     1.0000 0.76200  0.56720  0.36570  Biso   1.000  H
  H478     1.0000 0.66640  0.69700  0.41140  Biso   1.000  H
  H479     1.0000 0.70010  0.68660  0.39880  Biso   1.000  H
  H480     1.0000 0.68090  0.66390  0.42160  Biso   1.000  H
  H481     1.0000 0.68750  0.65700  0.42090  Biso   1.000  H
  H482     1.0000 0.66980  0.65380  0.43100  Biso   1.000  H
  H483     1.0000 0.67640  0.69100  0.40990  Biso   1.000  H
  O139     1.0000 0.84274  0.03216  0.88792  Biso   1.000  O
  O140     1.0000 0.80540  0.03201  0.85100  Biso   1.000  O
  C208     1.0000 0.81803  0.04135  0.87578  Biso   1.000  C
  C209     1.0000 0.80092  0.06756  0.89256  Biso   1.000  C
  C210     1.0000 0.77169  0.07719  0.88305  Biso   1.000  C
  H484     1.0000 0.76200  0.06720  0.86570  Biso   1.000  H
  H485     1.0000 0.66640  0.19700  0.91140  Biso   1.000  H
  H486     1.0000 0.70010  0.18660  0.89880  Biso   1.000  H
  H487     1.0000 0.68090  0.16390  0.92160  Biso   1.000  H
  H488     1.0000 0.68750  0.15700  0.92090  Biso   1.000  H
  H489     1.0000 0.66980  0.15380  0.93100  Biso   1.000  H
  H490     1.0000 0.67640  0.19100  0.90990  Biso   1.000  H
  O141     1.0000 0.34274  0.53216  0.88792  Biso   1.000  O
  O142     1.0000 0.30540  0.53201  0.85100  Biso   1.000  O
  C211     1.0000 0.31803  0.54135  0.87578  Biso   1.000  C
  C212     1.0000 0.30092  0.56756  0.89256  Biso   1.000  C
  C213     1.0000 0.27169  0.57719  0.88305  Biso   1.000  C
  H491     1.0000 0.26200  0.56720  0.86570  Biso   1.000  H
  H492     1.0000 0.16640  0.69700  0.91140  Biso   1.000  H
  H493     1.0000 0.20010  0.68660  0.89880  Biso   1.000  H
  H494     1.0000 0.18090  0.66390  0.92160  Biso   1.000  H
  H495     1.0000 0.18750  0.65700  0.92090  Biso   1.000  H
  H496     1.0000 0.16980  0.65380  0.93100  Biso   1.000  H
  H497     1.0000 0.17640  0.69100  0.90990  Biso   1.000  H
  O143     1.0000 0.34274  0.03216  0.38792  Biso   1.000  O
  O144     1.0000 0.30540  0.03201  0.35100  Biso   1.000  O
  C214     1.0000 0.31803  0.04135  0.37578  Biso   1.000  C
  C215     1.0000 0.30092  0.06756  0.39256  Biso   1.000  C
  C216     1.0000 0.27169  0.07719  0.38305  Biso   1.000  C
  H498     1.0000 0.26200  0.06720  0.36570  Biso   1.000  H
  H499     1.0000 0.16640  0.19700  0.41140  Biso   1.000  H
  H500     1.0000 0.20010  0.18660  0.39880  Biso   1.000  H
  H501     1.0000 0.18090  0.16390  0.42160  Biso   1.000  H
  H502     1.0000 0.18750  0.15700  0.42090  Biso   1.000  H
  H503     1.0000 0.16980  0.15380  0.43100  Biso   1.000  H
  H504     1.0000 0.17640  0.19100  0.40990  Biso   1.000  H
  O145     1.0000 0.84274  0.46784  0.61208  Biso   1.000  O
  O146     1.0000 0.80540  0.46799  0.64900  Biso   1.000  O
  C217     1.0000 0.81803  0.45865  0.62422  Biso   1.000  C
  C218     1.0000 0.80092  0.43244  0.60744  Biso   1.000  C
  C219     1.0000 0.77169  0.42281  0.61695  Biso   1.000  C
  H505     1.0000 0.76200  0.43280  0.63430  Biso   1.000  H
  H506     1.0000 0.66640  0.30300  0.58860  Biso   1.000  H
  H507     1.0000 0.70010  0.31340  0.60120  Biso   1.000  H
  H508     1.0000 0.68090  0.33610  0.57840  Biso   1.000  H
  H509     1.0000 0.68750  0.34300  0.57910  Biso   1.000  H
  H510     1.0000 0.66980  0.34620  0.56900  Biso   1.000  H
  H511     1.0000 0.67640  0.30900  0.59010  Biso   1.000  H
  O147     1.0000 0.84274  0.96784  0.11208  Biso   1.000  O
  O148     1.0000 0.80540  0.96799  0.14900  Biso   1.000  O
  C220     1.0000 0.81803  0.95865  0.12422  Biso   1.000  C
  C221     1.0000 0.80092  0.93244  0.10744  Biso   1.000  C
  C222     1.0000 0.77169  0.92281  0.11695  Biso   1.000  C
  H512     1.0000 0.76200  0.93280  0.13430  Biso   1.000  H
  H513     1.0000 0.66640  0.80300  0.08860  Biso   1.000  H
  H514     1.0000 0.70010  0.81340  0.10120  Biso   1.000  H
  H515     1.0000 0.68090  0.83610  0.07840  Biso   1.000  H
  H516     1.0000 0.68750  0.84300  0.07910  Biso   1.000  H
  H517     1.0000 0.66980  0.84620  0.06900  Biso   1.000  H
  H518     1.0000 0.67640  0.80900  0.09010  Biso   1.000  H
  O149     1.0000 0.34274  0.46784  0.11208  Biso   1.000  O
  O150     1.0000 0.30540  0.46799  0.14900  Biso   1.000  O
  C223     1.0000 0.31803  0.45865  0.12422  Biso   1.000  C
  C224     1.0000 0.30092  0.43244  0.10744  Biso   1.000  C
  C225     1.0000 0.27169  0.42281  0.11695  Biso   1.000  C
  H519     1.0000 0.26200  0.43280  0.13430  Biso   1.000  H
  H520     1.0000 0.16640  0.30300  0.08860  Biso   1.000  H
  H521     1.0000 0.20010  0.31340  0.10120  Biso   1.000  H
  H522     1.0000 0.18090  0.33610  0.07840  Biso   1.000  H
  H523     1.0000 0.18750  0.34300  0.07910  Biso   1.000  H
  H524     1.0000 0.16980  0.34620  0.06900  Biso   1.000  H
  H525     1.0000 0.17640  0.30900  0.09010  Biso   1.000  H
  O151     1.0000 0.34274  0.96784  0.61208  Biso   1.000  O
  O152     1.0000 0.30540  0.96799  0.64900  Biso   1.000  O
  C226     1.0000 0.31803  0.95865  0.62422  Biso   1.000  C
  C227     1.0000 0.30092  0.93244  0.60744  Biso   1.000  C
  C228     1.0000 0.27169  0.92281  0.61695  Biso   1.000  C
  H526     1.0000 0.26200  0.93280  0.63430  Biso   1.000  H
  H527     1.0000 0.16640  0.80300  0.58860  Biso   1.000  H
  H528     1.0000 0.20010  0.81340  0.60120  Biso   1.000  H
  H529     1.0000 0.18090  0.83610  0.57840  Biso   1.000  H
  H530     1.0000 0.18750  0.84300  0.57910  Biso   1.000  H
  H531     1.0000 0.16980  0.84620  0.56900  Biso   1.000  H
  H532     1.0000 0.17640  0.80900  0.59010  Biso   1.000  H
  O153     1.0000 0.15726  0.46784  0.38792  Biso   1.000  O
  O154     1.0000 0.19460  0.46799  0.35100  Biso   1.000  O
  C229     1.0000 0.18197  0.45865  0.37578  Biso   1.000  C
  C230     1.0000 0.19908  0.43244  0.39256  Biso   1.000  C
  C231     1.0000 0.22831  0.42281  0.38305  Biso   1.000  C
  H533     1.0000 0.23800  0.43280  0.36570  Biso   1.000  H
  H534     1.0000 0.33360  0.30300  0.41140  Biso   1.000  H
  H535     1.0000 0.29990  0.31340  0.39880  Biso   1.000  H
  H536     1.0000 0.31910  0.33610  0.42160  Biso   1.000  H
  H537     1.0000 0.31250  0.34300  0.42090  Biso   1.000  H
  H538     1.0000 0.33020  0.34620  0.43100  Biso   1.000  H
  H539     1.0000 0.32360  0.30900  0.40990  Biso   1.000  H
  O155     1.0000 0.15726  0.96784  0.88792  Biso   1.000  O
  O156     1.0000 0.19460  0.96799  0.85100  Biso   1.000  O
  C232     1.0000 0.18197  0.95865  0.87578  Biso   1.000  C
  C233     1.0000 0.19908  0.93244  0.89256  Biso   1.000  C
  C234     1.0000 0.22831  0.92281  0.88305  Biso   1.000  C
  H540     1.0000 0.23800  0.93280  0.86570  Biso   1.000  H
  H541     1.0000 0.33360  0.80300  0.91140  Biso   1.000  H
  H542     1.0000 0.29990  0.81340  0.89880  Biso   1.000  H
  H543     1.0000 0.31910  0.83610  0.92160  Biso   1.000  H
  H544     1.0000 0.31250  0.84300  0.92090  Biso   1.000  H
  H545     1.0000 0.33020  0.84620  0.93100  Biso   1.000  H
  H546     1.0000 0.32360  0.80900  0.90990  Biso   1.000  H
  O157     1.0000 0.65726  0.46784  0.88792  Biso   1.000  O
  O158     1.0000 0.69460  0.46799  0.85100  Biso   1.000  O
  C235     1.0000 0.68197  0.45865  0.87578  Biso   1.000  C
  C236     1.0000 0.69908  0.43244  0.89256  Biso   1.000  C
  C237     1.0000 0.72831  0.42281  0.88305  Biso   1.000  C
  H547     1.0000 0.73800  0.43280  0.86570  Biso   1.000  H
  H548     1.0000 0.83360  0.30300  0.91140  Biso   1.000  H
  H549     1.0000 0.79990  0.31340  0.89880  Biso   1.000  H
  H550     1.0000 0.81910  0.33610  0.92160  Biso   1.000  H
  H551     1.0000 0.81250  0.34300  0.92090  Biso   1.000  H
  H552     1.0000 0.83020  0.34620  0.93100  Biso   1.000  H
  H553     1.0000 0.82360  0.30900  0.90990  Biso   1.000  H
  O159     1.0000 0.65726  0.96784  0.38792  Biso   1.000  O
  O160     1.0000 0.69460  0.96799  0.35100  Biso   1.000  O
  C238     1.0000 0.68197  0.95865  0.37578  Biso   1.000  C
  C239     1.0000 0.69908  0.93244  0.39256  Biso   1.000  C
  C240     1.0000 0.72831  0.92281  0.38305  Biso   1.000  C
  H554     1.0000 0.73800  0.93280  0.36570  Biso   1.000  H
  H555     1.0000 0.83360  0.80300  0.41140  Biso   1.000  H
  H556     1.0000 0.79990  0.81340  0.39880  Biso   1.000  H
  H557     1.0000 0.81910  0.83610  0.42160  Biso   1.000  H
  H558     1.0000 0.81250  0.84300  0.42090  Biso   1.000  H
  H559     1.0000 0.83020  0.84620  0.43100  Biso   1.000  H
  H560     1.0000 0.82360  0.80900  0.40990  Biso   1.000  H
  O161     1.0000 0.53216  0.38792  0.84274  Biso   1.000  O
  O162     1.0000 0.53201  0.35100  0.80540  Biso   1.000  O
  C241     1.0000 0.54135  0.37578  0.81803  Biso   1.000  C
  C242     1.0000 0.56756  0.39256  0.80092  Biso   1.000  C
  C243     1.0000 0.57719  0.38305  0.77169  Biso   1.000  C
  H561     1.0000 0.56720  0.36570  0.76200  Biso   1.000  H
  H562     1.0000 0.69700  0.41140  0.66640  Biso   1.000  H
  H563     1.0000 0.68660  0.39880  0.70010  Biso   1.000  H
  H564     1.0000 0.66390  0.42160  0.68090  Biso   1.000  H
  H565     1.0000 0.65700  0.42090  0.68750  Biso   1.000  H
  H566     1.0000 0.65380  0.43100  0.66980  Biso   1.000  H
  H567     1.0000 0.69100  0.40990  0.67640  Biso   1.000  H
  O163     1.0000 0.53216  0.88792  0.34274  Biso   1.000  O
  O164     1.0000 0.53201  0.85100  0.30540  Biso   1.000  O
  C244     1.0000 0.54135  0.87578  0.31803  Biso   1.000  C
  C245     1.0000 0.56756  0.89256  0.30092  Biso   1.000  C
  C246     1.0000 0.57719  0.88305  0.27169  Biso   1.000  C
  H568     1.0000 0.56720  0.86570  0.26200  Biso   1.000  H
  H569     1.0000 0.69700  0.91140  0.16640  Biso   1.000  H
  H570     1.0000 0.68660  0.89880  0.20010  Biso   1.000  H
  H571     1.0000 0.66390  0.92160  0.18090  Biso   1.000  H
  H572     1.0000 0.65700  0.92090  0.18750  Biso   1.000  H
  H573     1.0000 0.65380  0.93100  0.16980  Biso   1.000  H
  H574     1.0000 0.69100  0.90990  0.17640  Biso   1.000  H
  O165     1.0000 0.03216  0.38792  0.34274  Biso   1.000  O
  O166     1.0000 0.03201  0.35100  0.30540  Biso   1.000  O
  C247     1.0000 0.04135  0.37578  0.31803  Biso   1.000  C
  C248     1.0000 0.06756  0.39256  0.30092  Biso   1.000  C
  C249     1.0000 0.07719  0.38305  0.27169  Biso   1.000  C
  H575     1.0000 0.06720  0.36570  0.26200  Biso   1.000  H
  H576     1.0000 0.19700  0.41140  0.16640  Biso   1.000  H
  H577     1.0000 0.18660  0.39880  0.20010  Biso   1.000  H
  H578     1.0000 0.16390  0.42160  0.18090  Biso   1.000  H
  H579     1.0000 0.15700  0.42090  0.18750  Biso   1.000  H
  H580     1.0000 0.15380  0.43100  0.16980  Biso   1.000  H
  H581     1.0000 0.19100  0.40990  0.17640  Biso   1.000  H
  O167     1.0000 0.03216  0.88792  0.84274  Biso   1.000  O
  O168     1.0000 0.03201  0.85100  0.80540  Biso   1.000  O
  C250     1.0000 0.04135  0.87578  0.81803  Biso   1.000  C
  C251     1.0000 0.06756  0.89256  0.80092  Biso   1.000  C
  C252     1.0000 0.07719  0.88305  0.77169  Biso   1.000  C
  H582     1.0000 0.06720  0.86570  0.76200  Biso   1.000  H
  H583     1.0000 0.19700  0.91140  0.66640  Biso   1.000  H
  H584     1.0000 0.18660  0.89880  0.70010  Biso   1.000  H
  H585     1.0000 0.16390  0.92160  0.68090  Biso   1.000  H
  H586     1.0000 0.15700  0.92090  0.68750  Biso   1.000  H
  H587     1.0000 0.15380  0.93100  0.66980  Biso   1.000  H
  H588     1.0000 0.19100  0.90990  0.67640  Biso   1.000  H
  O169     1.0000 0.53216  0.61208  0.15726  Biso   1.000  O
  O170     1.0000 0.53201  0.64900  0.19460  Biso   1.000  O
  C253     1.0000 0.54135  0.62422  0.18197  Biso   1.000  C
  C254     1.0000 0.56756  0.60744  0.19908  Biso   1.000  C
  C255     1.0000 0.57719  0.61695  0.22831  Biso   1.000  C
  H589     1.0000 0.56720  0.63430  0.23800  Biso   1.000  H
  H590     1.0000 0.69700  0.58860  0.33360  Biso   1.000  H
  H591     1.0000 0.68660  0.60120  0.29990  Biso   1.000  H
  H592     1.0000 0.66390  0.57840  0.31910  Biso   1.000  H
  H593     1.0000 0.65700  0.57910  0.31250  Biso   1.000  H
  H594     1.0000 0.65380  0.56900  0.33020  Biso   1.000  H
  H595     1.0000 0.69100  0.59010  0.32360  Biso   1.000  H
  O171     1.0000 0.53216  0.11208  0.65726  Biso   1.000  O
  O172     1.0000 0.53201  0.14900  0.69460  Biso   1.000  O
  C256     1.0000 0.54135  0.12422  0.68197  Biso   1.000  C
  C257     1.0000 0.56756  0.10744  0.69908  Biso   1.000  C
  C258     1.0000 0.57719  0.11695  0.72831  Biso   1.000  C
  H596     1.0000 0.56720  0.13430  0.73800  Biso   1.000  H
  H597     1.0000 0.69700  0.08860  0.83360  Biso   1.000  H
  H598     1.0000 0.68660  0.10120  0.79990  Biso   1.000  H
  H599     1.0000 0.66390  0.07840  0.81910  Biso   1.000  H
  H600     1.0000 0.65700  0.07910  0.81250  Biso   1.000  H
  H601     1.0000 0.65380  0.06900  0.83020  Biso   1.000  H
  H602     1.0000 0.69100  0.09010  0.82360  Biso   1.000  H
  O173     1.0000 0.03216  0.61208  0.65726  Biso   1.000  O
  O174     1.0000 0.03201  0.64900  0.69460  Biso   1.000  O
  C259     1.0000 0.04135  0.62422  0.68197  Biso   1.000  C
  C260     1.0000 0.06756  0.60744  0.69908  Biso   1.000  C
  C261     1.0000 0.07719  0.61695  0.72831  Biso   1.000  C
  H603     1.0000 0.06720  0.63430  0.73800  Biso   1.000  H
  H604     1.0000 0.19700  0.58860  0.83360  Biso   1.000  H
  H605     1.0000 0.18660  0.60120  0.79990  Biso   1.000  H
  H606     1.0000 0.16390  0.57840  0.81910  Biso   1.000  H
  H607     1.0000 0.15700  0.57910  0.81250  Biso   1.000  H
  H608     1.0000 0.15380  0.56900  0.83020  Biso   1.000  H
  H609     1.0000 0.19100  0.59010  0.82360  Biso   1.000  H
  O175     1.0000 0.03216  0.11208  0.15726  Biso   1.000  O
  O176     1.0000 0.03201  0.14900  0.19460  Biso   1.000  O
  C262     1.0000 0.04135  0.12422  0.18197  Biso   1.000  C
  C263     1.0000 0.06756  0.10744  0.19908  Biso   1.000  C
  C264     1.0000 0.07719  0.11695  0.22831  Biso   1.000  C
  H610     1.0000 0.06720  0.13430  0.23800  Biso   1.000  H
  H611     1.0000 0.19700  0.08860  0.33360  Biso   1.000  H
  H612     1.0000 0.18660  0.10120  0.29990  Biso   1.000  H
  H613     1.0000 0.16390  0.07840  0.31910  Biso   1.000  H
  H614     1.0000 0.15700  0.07910  0.31250  Biso   1.000  H
  H615     1.0000 0.15380  0.06900  0.33020  Biso   1.000  H
  H616     1.0000 0.19100  0.09010  0.32360  Biso   1.000  H
  O177     1.0000 0.46784  0.38792  0.15726  Biso   1.000  O
  O178     1.0000 0.46799  0.35100  0.19460  Biso   1.000  O
  C265     1.0000 0.45865  0.37578  0.18197  Biso   1.000  C
  C266     1.0000 0.43244  0.39256  0.19908  Biso   1.000  C
  C267     1.0000 0.42281  0.38305  0.22831  Biso   1.000  C
  H617     1.0000 0.43280  0.36570  0.23800  Biso   1.000  H
  H618     1.0000 0.30300  0.41140  0.33360  Biso   1.000  H
  H619     1.0000 0.31340  0.39880  0.29990  Biso   1.000  H
  H620     1.0000 0.33610  0.42160  0.31910  Biso   1.000  H
  H621     1.0000 0.34300  0.42090  0.31250  Biso   1.000  H
  H622     1.0000 0.34620  0.43100  0.33020  Biso   1.000  H
  H623     1.0000 0.30900  0.40990  0.32360  Biso   1.000  H
  O179     1.0000 0.46784  0.88792  0.65726  Biso   1.000  O
  O180     1.0000 0.46799  0.85100  0.69460  Biso   1.000  O
  C268     1.0000 0.45865  0.87578  0.68197  Biso   1.000  C
  C269     1.0000 0.43244  0.89256  0.69908  Biso   1.000  C
  C270     1.0000 0.42281  0.88305  0.72831  Biso   1.000  C
  H624     1.0000 0.43280  0.86570  0.73800  Biso   1.000  H
  H625     1.0000 0.30300  0.91140  0.83360  Biso   1.000  H
  H626     1.0000 0.31340  0.89880  0.79990  Biso   1.000  H
  H627     1.0000 0.33610  0.92160  0.81910  Biso   1.000  H
  H628     1.0000 0.34300  0.92090  0.81250  Biso   1.000  H
  H629     1.0000 0.34620  0.93100  0.83020  Biso   1.000  H
  H630     1.0000 0.30900  0.90990  0.82360  Biso   1.000  H
  O181     1.0000 0.96784  0.38792  0.65726  Biso   1.000  O
  O182     1.0000 0.96799  0.35100  0.69460  Biso   1.000  O
  C271     1.0000 0.95865  0.37578  0.68197  Biso   1.000  C
  C272     1.0000 0.93244  0.39256  0.69908  Biso   1.000  C
  C273     1.0000 0.92281  0.38305  0.72831  Biso   1.000  C
  H631     1.0000 0.93280  0.36570  0.73800  Biso   1.000  H
  H632     1.0000 0.80300  0.41140  0.83360  Biso   1.000  H
  H633     1.0000 0.81340  0.39880  0.79990  Biso   1.000  H
  H634     1.0000 0.83610  0.42160  0.81910  Biso   1.000  H
  H635     1.0000 0.84300  0.42090  0.81250  Biso   1.000  H
  H636     1.0000 0.84620  0.43100  0.83020  Biso   1.000  H
  H637     1.0000 0.80900  0.40990  0.82360  Biso   1.000  H
  O183     1.0000 0.96784  0.88792  0.15726  Biso   1.000  O
  O184     1.0000 0.96799  0.85100  0.19460  Biso   1.000  O
  C274     1.0000 0.95865  0.87578  0.18197  Biso   1.000  C
  C275     1.0000 0.93244  0.89256  0.19908  Biso   1.000  C
  C276     1.0000 0.92281  0.88305  0.22831  Biso   1.000  C
  H638     1.0000 0.93280  0.86570  0.23800  Biso   1.000  H
  H639     1.0000 0.80300  0.91140  0.33360  Biso   1.000  H
  H640     1.0000 0.81340  0.89880  0.29990  Biso   1.000  H
  H641     1.0000 0.83610  0.92160  0.31910  Biso   1.000  H
  H642     1.0000 0.84300  0.92090  0.31250  Biso   1.000  H
  H643     1.0000 0.84620  0.93100  0.33020  Biso   1.000  H
  H644     1.0000 0.80900  0.90990  0.32360  Biso   1.000  H
  O185     1.0000 0.46784  0.61208  0.84274  Biso   1.000  O
  O186     1.0000 0.46799  0.64900  0.80540  Biso   1.000  O
  C277     1.0000 0.45865  0.62422  0.81803  Biso   1.000  C
  C278     1.0000 0.43244  0.60744  0.80092  Biso   1.000  C
  C279     1.0000 0.42281  0.61695  0.77169  Biso   1.000  C
  H645     1.0000 0.43280  0.63430  0.76200  Biso   1.000  H
  H646     1.0000 0.30300  0.58860  0.66640  Biso   1.000  H
  H647     1.0000 0.31340  0.60120  0.70010  Biso   1.000  H
  H648     1.0000 0.33610  0.57840  0.68090  Biso   1.000  H
  H649     1.0000 0.34300  0.57910  0.68750  Biso   1.000  H
  H650     1.0000 0.34620  0.56900  0.66980  Biso   1.000  H
  H651     1.0000 0.30900  0.59010  0.67640  Biso   1.000  H
  O187     1.0000 0.46784  0.11208  0.34274  Biso   1.000  O
  O188     1.0000 0.46799  0.14900  0.30540  Biso   1.000  O
  C280     1.0000 0.45865  0.12422  0.31803  Biso   1.000  C
  C281     1.0000 0.43244  0.10744  0.30092  Biso   1.000  C
  C282     1.0000 0.42281  0.11695  0.27169  Biso   1.000  C
  H652     1.0000 0.43280  0.13430  0.26200  Biso   1.000  H
  H653     1.0000 0.30300  0.08860  0.16640  Biso   1.000  H
  H654     1.0000 0.31340  0.10120  0.20010  Biso   1.000  H
  H655     1.0000 0.33610  0.07840  0.18090  Biso   1.000  H
  H656     1.0000 0.34300  0.07910  0.18750  Biso   1.000  H
  H657     1.0000 0.34620  0.06900  0.16980  Biso   1.000  H
  H658     1.0000 0.30900  0.09010  0.17640  Biso   1.000  H
  O189     1.0000 0.96784  0.61208  0.34274  Biso   1.000  O
  O190     1.0000 0.96799  0.64900  0.30540  Biso   1.000  O
  C283     1.0000 0.95865  0.62422  0.31803  Biso   1.000  C
  C284     1.0000 0.93244  0.60744  0.30092  Biso   1.000  C
  C285     1.0000 0.92281  0.61695  0.27169  Biso   1.000  C
  H659     1.0000 0.93280  0.63430  0.26200  Biso   1.000  H
  H660     1.0000 0.80300  0.58860  0.16640  Biso   1.000  H
  H661     1.0000 0.81340  0.60120  0.20010  Biso   1.000  H
  H662     1.0000 0.83610  0.57840  0.18090  Biso   1.000  H
  H663     1.0000 0.84300  0.57910  0.18750  Biso   1.000  H
  H664     1.0000 0.84620  0.56900  0.16980  Biso   1.000  H
  H665     1.0000 0.80900  0.59010  0.17640  Biso   1.000  H
  O191     1.0000 0.96784  0.11208  0.84274  Biso   1.000  O
  O192     1.0000 0.96799  0.14900  0.80540  Biso   1.000  O
  C286     1.0000 0.95865  0.12422  0.81803  Biso   1.000  C
  C287     1.0000 0.93244  0.10744  0.80092  Biso   1.000  C
  C288     1.0000 0.92281  0.11695  0.77169  Biso   1.000  C
  H666     1.0000 0.93280  0.13430  0.76200  Biso   1.000  H
  H667     1.0000 0.80300  0.08860  0.66640  Biso   1.000  H
  H668     1.0000 0.81340  0.10120  0.70010  Biso   1.000  H
  H669     1.0000 0.83610  0.07840  0.68090  Biso   1.000  H
  H670     1.0000 0.84300  0.07910  0.68750  Biso   1.000  H
  H671     1.0000 0.84620  0.06900  0.66980  Biso   1.000  H
  H672     1.0000 0.80900  0.09010  0.67640  Biso   1.000  H
  O193     1.0000 0.84274  0.61208  0.46784  Biso   1.000  O
  O194     1.0000 0.80540  0.64900  0.46799  Biso   1.000  O
  C289     1.0000 0.81803  0.62422  0.45865  Biso   1.000  C
  C290     1.0000 0.80092  0.60744  0.43244  Biso   1.000  C
  C291     1.0000 0.77169  0.61695  0.42281  Biso   1.000  C
  H673     1.0000 0.76200  0.63430  0.43280  Biso   1.000  H
  H674     1.0000 0.66640  0.58860  0.30300  Biso   1.000  H
  H675     1.0000 0.70010  0.60120  0.31340  Biso   1.000  H
  H676     1.0000 0.68090  0.57840  0.33610  Biso   1.000  H
  H677     1.0000 0.68750  0.57910  0.34300  Biso   1.000  H
  H678     1.0000 0.66980  0.56900  0.34620  Biso   1.000  H
  H679     1.0000 0.67640  0.59010  0.30900  Biso   1.000  H
  O195     1.0000 0.84274  0.11208  0.96784  Biso   1.000  O
  O196     1.0000 0.80540  0.14900  0.96799  Biso   1.000  O
  C292     1.0000 0.81803  0.12422  0.95865  Biso   1.000  C
  C293     1.0000 0.80092  0.10744  0.93244  Biso   1.000  C
  C294     1.0000 0.77169  0.11695  0.92281  Biso   1.000  C
  H680     1.0000 0.76200  0.13430  0.93280  Biso   1.000  H
  H681     1.0000 0.66640  0.08860  0.80300  Biso   1.000  H
  H682     1.0000 0.70010  0.10120  0.81340  Biso   1.000  H
  H683     1.0000 0.68090  0.07840  0.83610  Biso   1.000  H
  H684     1.0000 0.68750  0.07910  0.84300  Biso   1.000  H
  H685     1.0000 0.66980  0.06900  0.84620  Biso   1.000  H
  H686     1.0000 0.67640  0.09010  0.80900  Biso   1.000  H
  O197     1.0000 0.34274  0.61208  0.96784  Biso   1.000  O
  O198     1.0000 0.30540  0.64900  0.96799  Biso   1.000  O
  C295     1.0000 0.31803  0.62422  0.95865  Biso   1.000  C
  C296     1.0000 0.30092  0.60744  0.93244  Biso   1.000  C
  C297     1.0000 0.27169  0.61695  0.92281  Biso   1.000  C
  H687     1.0000 0.26200  0.63430  0.93280  Biso   1.000  H
  H688     1.0000 0.16640  0.58860  0.80300  Biso   1.000  H
  H689     1.0000 0.20010  0.60120  0.81340  Biso   1.000  H
  H690     1.0000 0.18090  0.57840  0.83610  Biso   1.000  H
  H691     1.0000 0.18750  0.57910  0.84300  Biso   1.000  H
  H692     1.0000 0.16980  0.56900  0.84620  Biso   1.000  H
  H693     1.0000 0.17640  0.59010  0.80900  Biso   1.000  H
  O199     1.0000 0.34274  0.11208  0.46784  Biso   1.000  O
  O200     1.0000 0.30540  0.14900  0.46799  Biso   1.000  O
  C298     1.0000 0.31803  0.12422  0.45865  Biso   1.000  C
  C299     1.0000 0.30092  0.10744  0.43244  Biso   1.000  C
  C300     1.0000 0.27169  0.11695  0.42281  Biso   1.000  C
  H694     1.0000 0.26200  0.13430  0.43280  Biso   1.000  H
  H695     1.0000 0.16640  0.08860  0.30300  Biso   1.000  H
  H696     1.0000 0.20010  0.10120  0.31340  Biso   1.000  H
  H697     1.0000 0.18090  0.07840  0.33610  Biso   1.000  H
  H698     1.0000 0.18750  0.07910  0.34300  Biso   1.000  H
  H699     1.0000 0.16980  0.06900  0.34620  Biso   1.000  H
  H700     1.0000 0.17640  0.09010  0.30900  Biso   1.000  H
  O201     1.0000 0.15726  0.38792  0.46784  Biso   1.000  O
  O202     1.0000 0.19460  0.35100  0.46799  Biso   1.000  O
  C301     1.0000 0.18197  0.37578  0.45865  Biso   1.000  C
  C302     1.0000 0.19908  0.39256  0.43244  Biso   1.000  C
  C303     1.0000 0.22831  0.38305  0.42281  Biso   1.000  C
  H701     1.0000 0.23800  0.36570  0.43280  Biso   1.000  H
  H702     1.0000 0.33360  0.41140  0.30300  Biso   1.000  H
  H703     1.0000 0.29990  0.39880  0.31340  Biso   1.000  H
  H704     1.0000 0.31910  0.42160  0.33610  Biso   1.000  H
  H705     1.0000 0.31250  0.42090  0.34300  Biso   1.000  H
  H706     1.0000 0.33020  0.43100  0.34620  Biso   1.000  H
  H707     1.0000 0.32360  0.40990  0.30900  Biso   1.000  H
  O203     1.0000 0.15726  0.88792  0.96784  Biso   1.000  O
  O204     1.0000 0.19460  0.85100  0.96799  Biso   1.000  O
  C304     1.0000 0.18197  0.87578  0.95865  Biso   1.000  C
  C305     1.0000 0.19908  0.89256  0.93244  Biso   1.000  C
  C306     1.0000 0.22831  0.88305  0.92281  Biso   1.000  C
  H708     1.0000 0.23800  0.86570  0.93280  Biso   1.000  H
  H709     1.0000 0.33360  0.91140  0.80300  Biso   1.000  H
  H710     1.0000 0.29990  0.89880  0.81340  Biso   1.000  H
  H711     1.0000 0.31910  0.92160  0.83610  Biso   1.000  H
  H712     1.0000 0.31250  0.92090  0.84300  Biso   1.000  H
  H713     1.0000 0.33020  0.93100  0.84620  Biso   1.000  H
  H714     1.0000 0.32360  0.90990  0.80900  Biso   1.000  H
  O205     1.0000 0.65726  0.38792  0.96784  Biso   1.000  O
  O206     1.0000 0.69460  0.35100  0.96799  Biso   1.000  O
  C307     1.0000 0.68197  0.37578  0.95865  Biso   1.000  C
  C308     1.0000 0.69908  0.39256  0.93244  Biso   1.000  C
  C309     1.0000 0.72831  0.38305  0.92281  Biso   1.000  C
  H715     1.0000 0.73800  0.36570  0.93280  Biso   1.000  H
  H716     1.0000 0.83360  0.41140  0.80300  Biso   1.000  H
  H717     1.0000 0.79990  0.39880  0.81340  Biso   1.000  H
  H718     1.0000 0.81910  0.42160  0.83610  Biso   1.000  H
  H719     1.0000 0.81250  0.42090  0.84300  Biso   1.000  H
  H720     1.0000 0.83020  0.43100  0.84620  Biso   1.000  H
  H721     1.0000 0.82360  0.40990  0.80900  Biso   1.000  H
  O207     1.0000 0.65726  0.88792  0.46784  Biso   1.000  O
  O208     1.0000 0.69460  0.85100  0.46799  Biso   1.000  O
  C310     1.0000 0.68197  0.87578  0.45865  Biso   1.000  C
  C311     1.0000 0.69908  0.89256  0.43244  Biso   1.000  C
  C312     1.0000 0.72831  0.88305  0.42281  Biso   1.000  C
  H722     1.0000 0.73800  0.86570  0.43280  Biso   1.000  H
  H723     1.0000 0.83360  0.91140  0.30300  Biso   1.000  H
  H724     1.0000 0.79990  0.89880  0.31340  Biso   1.000  H
  H725     1.0000 0.81910  0.92160  0.33610  Biso   1.000  H
  H726     1.0000 0.81250  0.92090  0.34300  Biso   1.000  H
  H727     1.0000 0.83020  0.93100  0.34620  Biso   1.000  H
  H728     1.0000 0.82360  0.90990  0.30900  Biso   1.000  H
  O209     1.0000 0.15726  0.61208  0.53216  Biso   1.000  O
  O210     1.0000 0.19460  0.64900  0.53201  Biso   1.000  O
  C313     1.0000 0.18197  0.62422  0.54135  Biso   1.000  C
  C314     1.0000 0.19908  0.60744  0.56756  Biso   1.000  C
  C315     1.0000 0.22831  0.61695  0.57719  Biso   1.000  C
  H729     1.0000 0.23800  0.63430  0.56720  Biso   1.000  H
  H730     1.0000 0.33360  0.58860  0.69700  Biso   1.000  H
  H731     1.0000 0.29990  0.60120  0.68660  Biso   1.000  H
  H732     1.0000 0.31910  0.57840  0.66390  Biso   1.000  H
  H733     1.0000 0.31250  0.57910  0.65700  Biso   1.000  H
  H734     1.0000 0.33020  0.56900  0.65380  Biso   1.000  H
  H735     1.0000 0.32360  0.59010  0.69100  Biso   1.000  H
  O211     1.0000 0.15726  0.11208  0.03216  Biso   1.000  O
  O212     1.0000 0.19460  0.14900  0.03201  Biso   1.000  O
  C316     1.0000 0.18197  0.12422  0.04135  Biso   1.000  C
  C317     1.0000 0.19908  0.10744  0.06756  Biso   1.000  C
  C318     1.0000 0.22831  0.11695  0.07719  Biso   1.000  C
  H736     1.0000 0.23800  0.13430  0.06720  Biso   1.000  H
  H737     1.0000 0.33360  0.08860  0.19700  Biso   1.000  H
  H738     1.0000 0.29990  0.10120  0.18660  Biso   1.000  H
  H739     1.0000 0.31910  0.07840  0.16390  Biso   1.000  H
  H740     1.0000 0.31250  0.07910  0.15700  Biso   1.000  H
  H741     1.0000 0.33020  0.06900  0.15380  Biso   1.000  H
  H742     1.0000 0.32360  0.09010  0.19100  Biso   1.000  H
  O213     1.0000 0.65726  0.61208  0.03216  Biso   1.000  O
  O214     1.0000 0.69460  0.64900  0.03201  Biso   1.000  O
  C319     1.0000 0.68197  0.62422  0.04135  Biso   1.000  C
  C320     1.0000 0.69908  0.60744  0.06756  Biso   1.000  C
  C321     1.0000 0.72831  0.61695  0.07719  Biso   1.000  C
  H743     1.0000 0.73800  0.63430  0.06720  Biso   1.000  H
  H744     1.0000 0.83360  0.58860  0.19700  Biso   1.000  H
  H745     1.0000 0.79990  0.60120  0.18660  Biso   1.000  H
  H746     1.0000 0.81910  0.57840  0.16390  Biso   1.000  H
  H747     1.0000 0.81250  0.57910  0.15700  Biso   1.000  H
  H748     1.0000 0.83020  0.56900  0.15380  Biso   1.000  H
  H749     1.0000 0.82360  0.59010  0.19100  Biso   1.000  H
  O215     1.0000 0.65726  0.11208  0.53216  Biso   1.000  O
  O216     1.0000 0.69460  0.14900  0.53201  Biso   1.000  O
  C322     1.0000 0.68197  0.12422  0.54135  Biso   1.000  C
  C323     1.0000 0.69908  0.10744  0.56756  Biso   1.000  C
  C324     1.0000 0.72831  0.11695  0.57719  Biso   1.000  C
  H750     1.0000 0.73800  0.13430  0.56720  Biso   1.000  H
  H751     1.0000 0.83360  0.08860  0.69700  Biso   1.000  H
  H752     1.0000 0.79990  0.10120  0.68660  Biso   1.000  H
  H753     1.0000 0.81910  0.07840  0.66390  Biso   1.000  H
  H754     1.0000 0.81250  0.07910  0.65700  Biso   1.000  H
  H755     1.0000 0.83020  0.06900  0.65380  Biso   1.000  H
  H756     1.0000 0.82360  0.09010  0.69100  Biso   1.000  H
  O217     1.0000 0.84274  0.38792  0.53216  Biso   1.000  O
  O218     1.0000 0.80540  0.35100  0.53201  Biso   1.000  O
  C325     1.0000 0.81803  0.37578  0.54135  Biso   1.000  C
  C326     1.0000 0.80092  0.39256  0.56756  Biso   1.000  C
  C327     1.0000 0.77169  0.38305  0.57719  Biso   1.000  C
  H757     1.0000 0.76200  0.36570  0.56720  Biso   1.000  H
  H758     1.0000 0.66640  0.41140  0.69700  Biso   1.000  H
  H759     1.0000 0.70010  0.39880  0.68660  Biso   1.000  H
  H760     1.0000 0.68090  0.42160  0.66390  Biso   1.000  H
  H761     1.0000 0.68750  0.42090  0.65700  Biso   1.000  H
  H762     1.0000 0.66980  0.43100  0.65380  Biso   1.000  H
  H763     1.0000 0.67640  0.40990  0.69100  Biso   1.000  H
  O219     1.0000 0.84274  0.88792  0.03216  Biso   1.000  O
  O220     1.0000 0.80540  0.85100  0.03201  Biso   1.000  O
  C328     1.0000 0.81803  0.87578  0.04135  Biso   1.000  C
  C329     1.0000 0.80092  0.89256  0.06756  Biso   1.000  C
  C330     1.0000 0.77169  0.88305  0.07719  Biso   1.000  C
  H764     1.0000 0.76200  0.86570  0.06720  Biso   1.000  H
  H765     1.0000 0.66640  0.91140  0.19700  Biso   1.000  H
  H766     1.0000 0.70010  0.89880  0.18660  Biso   1.000  H
  H767     1.0000 0.68090  0.92160  0.16390  Biso   1.000  H
  H768     1.0000 0.68750  0.92090  0.15700  Biso   1.000  H
  H769     1.0000 0.66980  0.93100  0.15380  Biso   1.000  H
  H770     1.0000 0.67640  0.90990  0.19100  Biso   1.000  H
  O221     1.0000 0.34274  0.38792  0.03216  Biso   1.000  O
  O222     1.0000 0.30540  0.35100  0.03201  Biso   1.000  O
  C331     1.0000 0.31803  0.37578  0.04135  Biso   1.000  C
  C332     1.0000 0.30092  0.39256  0.06756  Biso   1.000  C
  C333     1.0000 0.27169  0.38305  0.07719  Biso   1.000  C
  H771     1.0000 0.26200  0.36570  0.06720  Biso   1.000  H
  H772     1.0000 0.16640  0.41140  0.19700  Biso   1.000  H
  H773     1.0000 0.20010  0.39880  0.18660  Biso   1.000  H
  H774     1.0000 0.18090  0.42160  0.16390  Biso   1.000  H
  H775     1.0000 0.18750  0.42090  0.15700  Biso   1.000  H
  H776     1.0000 0.16980  0.43100  0.15380  Biso   1.000  H
  H777     1.0000 0.17640  0.40990  0.19100  Biso   1.000  H
  O223     1.0000 0.34274  0.88792  0.53216  Biso   1.000  O
  O224     1.0000 0.30540  0.85100  0.53201  Biso   1.000  O
  C334     1.0000 0.31803  0.87578  0.54135  Biso   1.000  C
  C335     1.0000 0.30092  0.89256  0.56756  Biso   1.000  C
  C336     1.0000 0.27169  0.88305  0.57719  Biso   1.000  C
  H778     1.0000 0.26200  0.86570  0.56720  Biso   1.000  H
  H779     1.0000 0.16640  0.91140  0.69700  Biso   1.000  H
  H780     1.0000 0.20010  0.89880  0.68660  Biso   1.000  H
  H781     1.0000 0.18090  0.92160  0.66390  Biso   1.000  H
  H782     1.0000 0.18750  0.92090  0.65700  Biso   1.000  H
  H783     1.0000 0.16980  0.93100  0.65380  Biso   1.000  H
  H784     1.0000 0.17640  0.90990  0.69100  Biso   1.000  H
  O225     1.0000 0.46784  0.84274  0.61208  Biso   1.000  O
  O226     1.0000 0.46799  0.80540  0.64900  Biso   1.000  O
  C337     1.0000 0.45865  0.81803  0.62422  Biso   1.000  C
  C338     1.0000 0.43244  0.80092  0.60744  Biso   1.000  C
  C339     1.0000 0.42281  0.77169  0.61695  Biso   1.000  C
  H785     1.0000 0.43280  0.76200  0.63430  Biso   1.000  H
  H786     1.0000 0.30300  0.66640  0.58860  Biso   1.000  H
  H787     1.0000 0.31340  0.70010  0.60120  Biso   1.000  H
  H788     1.0000 0.33610  0.68090  0.57840  Biso   1.000  H
  H789     1.0000 0.34300  0.68750  0.57910  Biso   1.000  H
  H790     1.0000 0.34620  0.66980  0.56900  Biso   1.000  H
  H791     1.0000 0.30900  0.67640  0.59010  Biso   1.000  H
  O227     1.0000 0.46784  0.34274  0.11208  Biso   1.000  O
  O228     1.0000 0.46799  0.30540  0.14900  Biso   1.000  O
  C340     1.0000 0.45865  0.31803  0.12422  Biso   1.000  C
  C341     1.0000 0.43244  0.30092  0.10744  Biso   1.000  C
  C342     1.0000 0.42281  0.27169  0.11695  Biso   1.000  C
  H792     1.0000 0.43280  0.26200  0.13430  Biso   1.000  H
  H793     1.0000 0.30300  0.16640  0.08860  Biso   1.000  H
  H794     1.0000 0.31340  0.20010  0.10120  Biso   1.000  H
  H795     1.0000 0.33610  0.18090  0.07840  Biso   1.000  H
  H796     1.0000 0.34300  0.18750  0.07910  Biso   1.000  H
  H797     1.0000 0.34620  0.16980  0.06900  Biso   1.000  H
  H798     1.0000 0.30900  0.17640  0.09010  Biso   1.000  H
  O229     1.0000 0.96784  0.84274  0.11208  Biso   1.000  O
  O230     1.0000 0.96799  0.80540  0.14900  Biso   1.000  O
  C343     1.0000 0.95865  0.81803  0.12422  Biso   1.000  C
  C344     1.0000 0.93244  0.80092  0.10744  Biso   1.000  C
  C345     1.0000 0.92281  0.77169  0.11695  Biso   1.000  C
  H799     1.0000 0.93280  0.76200  0.13430  Biso   1.000  H
  H800     1.0000 0.80300  0.66640  0.08860  Biso   1.000  H
  H801     1.0000 0.81340  0.70010  0.10120  Biso   1.000  H
  H802     1.0000 0.83610  0.68090  0.07840  Biso   1.000  H
  H803     1.0000 0.84300  0.68750  0.07910  Biso   1.000  H
  H804     1.0000 0.84620  0.66980  0.06900  Biso   1.000  H
  H805     1.0000 0.80900  0.67640  0.09010  Biso   1.000  H
  O231     1.0000 0.96784  0.34274  0.61208  Biso   1.000  O
  O232     1.0000 0.96799  0.30540  0.64900  Biso   1.000  O
  C346     1.0000 0.95865  0.31803  0.62422  Biso   1.000  C
  C347     1.0000 0.93244  0.30092  0.60744  Biso   1.000  C
  C348     1.0000 0.92281  0.27169  0.61695  Biso   1.000  C
  H806     1.0000 0.93280  0.26200  0.63430  Biso   1.000  H
  H807     1.0000 0.80300  0.16640  0.58860  Biso   1.000  H
  H808     1.0000 0.81340  0.20010  0.60120  Biso   1.000  H
  H809     1.0000 0.83610  0.18090  0.57840  Biso   1.000  H
  H810     1.0000 0.84300  0.18750  0.57910  Biso   1.000  H
  H811     1.0000 0.84620  0.16980  0.56900  Biso   1.000  H
  H812     1.0000 0.80900  0.17640  0.59010  Biso   1.000  H
  O233     1.0000 0.46784  0.15726  0.38792  Biso   1.000  O
  O234     1.0000 0.46799  0.19460  0.35100  Biso   1.000  O
  C349     1.0000 0.45865  0.18197  0.37578  Biso   1.000  C
  C350     1.0000 0.43244  0.19908  0.39256  Biso   1.000  C
  C351     1.0000 0.42281  0.22831  0.38305  Biso   1.000  C
  H813     1.0000 0.43280  0.23800  0.36570  Biso   1.000  H
  H814     1.0000 0.30300  0.33360  0.41140  Biso   1.000  H
  H815     1.0000 0.31340  0.29990  0.39880  Biso   1.000  H
  H816     1.0000 0.33610  0.31910  0.42160  Biso   1.000  H
  H817     1.0000 0.34300  0.31250  0.42090  Biso   1.000  H
  H818     1.0000 0.34620  0.33020  0.43100  Biso   1.000  H
  H819     1.0000 0.30900  0.32360  0.40990  Biso   1.000  H
  O235     1.0000 0.46784  0.65726  0.88792  Biso   1.000  O
  O236     1.0000 0.46799  0.69460  0.85100  Biso   1.000  O
  C352     1.0000 0.45865  0.68197  0.87578  Biso   1.000  C
  C353     1.0000 0.43244  0.69908  0.89256  Biso   1.000  C
  C354     1.0000 0.42281  0.72831  0.88305  Biso   1.000  C
  H820     1.0000 0.43280  0.73800  0.86570  Biso   1.000  H
  H821     1.0000 0.30300  0.83360  0.91140  Biso   1.000  H
  H822     1.0000 0.31340  0.79990  0.89880  Biso   1.000  H
  H823     1.0000 0.33610  0.81910  0.92160  Biso   1.000  H
  H824     1.0000 0.34300  0.81250  0.92090  Biso   1.000  H
  H825     1.0000 0.34620  0.83020  0.93100  Biso   1.000  H
  H826     1.0000 0.30900  0.82360  0.90990  Biso   1.000  H
  O237     1.0000 0.96784  0.15726  0.88792  Biso   1.000  O
  O238     1.0000 0.96799  0.19460  0.85100  Biso   1.000  O
  C355     1.0000 0.95865  0.18197  0.87578  Biso   1.000  C
  C356     1.0000 0.93244  0.19908  0.89256  Biso   1.000  C
  C357     1.0000 0.92281  0.22831  0.88305  Biso   1.000  C
  H827     1.0000 0.93280  0.23800  0.86570  Biso   1.000  H
  H828     1.0000 0.80300  0.33360  0.91140  Biso   1.000  H
  H829     1.0000 0.81340  0.29990  0.89880  Biso   1.000  H
  H830     1.0000 0.83610  0.31910  0.92160  Biso   1.000  H
  H831     1.0000 0.84300  0.31250  0.92090  Biso   1.000  H
  H832     1.0000 0.84620  0.33020  0.93100  Biso   1.000  H
  H833     1.0000 0.80900  0.32360  0.90990  Biso   1.000  H
  O239     1.0000 0.96784  0.65726  0.38792  Biso   1.000  O
  O240     1.0000 0.96799  0.69460  0.35100  Biso   1.000  O
  C358     1.0000 0.95865  0.68197  0.37578  Biso   1.000  C
  C359     1.0000 0.93244  0.69908  0.39256  Biso   1.000  C
  C360     1.0000 0.92281  0.72831  0.38305  Biso   1.000  C
  H834     1.0000 0.93280  0.73800  0.36570  Biso   1.000  H
  H835     1.0000 0.80300  0.83360  0.41140  Biso   1.000  H
  H836     1.0000 0.81340  0.79990  0.39880  Biso   1.000  H
  H837     1.0000 0.83610  0.81910  0.42160  Biso   1.000  H
  H838     1.0000 0.84300  0.81250  0.42090  Biso   1.000  H
  H839     1.0000 0.84620  0.83020  0.43100  Biso   1.000  H
  H840     1.0000 0.80900  0.82360  0.40990  Biso   1.000  H
  O241     1.0000 0.53216  0.15726  0.61208  Biso   1.000  O
  O242     1.0000 0.53201  0.19460  0.64900  Biso   1.000  O
  C361     1.0000 0.54135  0.18197  0.62422  Biso   1.000  C
  C362     1.0000 0.56756  0.19908  0.60744  Biso   1.000  C
  C363     1.0000 0.57719  0.22831  0.61695  Biso   1.000  C
  H841     1.0000 0.56720  0.23800  0.63430  Biso   1.000  H
  H842     1.0000 0.69700  0.33360  0.58860  Biso   1.000  H
  H843     1.0000 0.68660  0.29990  0.60120  Biso   1.000  H
  H844     1.0000 0.66390  0.31910  0.57840  Biso   1.000  H
  H845     1.0000 0.65700  0.31250  0.57910  Biso   1.000  H
  H846     1.0000 0.65380  0.33020  0.56900  Biso   1.000  H
  H847     1.0000 0.69100  0.32360  0.59010  Biso   1.000  H
  O243     1.0000 0.53216  0.65726  0.11208  Biso   1.000  O
  O244     1.0000 0.53201  0.69460  0.14900  Biso   1.000  O
  C364     1.0000 0.54135  0.68197  0.12422  Biso   1.000  C
  C365     1.0000 0.56756  0.69908  0.10744  Biso   1.000  C
  C366     1.0000 0.57719  0.72831  0.11695  Biso   1.000  C
  H848     1.0000 0.56720  0.73800  0.13430  Biso   1.000  H
  H849     1.0000 0.69700  0.83360  0.08860  Biso   1.000  H
  H850     1.0000 0.68660  0.79990  0.10120  Biso   1.000  H
  H851     1.0000 0.66390  0.81910  0.07840  Biso   1.000  H
  H852     1.0000 0.65700  0.81250  0.07910  Biso   1.000  H
  H853     1.0000 0.65380  0.83020  0.06900  Biso   1.000  H
  H854     1.0000 0.69100  0.82360  0.09010  Biso   1.000  H
  O245     1.0000 0.03216  0.15726  0.11208  Biso   1.000  O
  O246     1.0000 0.03201  0.19460  0.14900  Biso   1.000  O
  C367     1.0000 0.04135  0.18197  0.12422  Biso   1.000  C
  C368     1.0000 0.06756  0.19908  0.10744  Biso   1.000  C
  C369     1.0000 0.07719  0.22831  0.11695  Biso   1.000  C
  H855     1.0000 0.06720  0.23800  0.13430  Biso   1.000  H
  H856     1.0000 0.19700  0.33360  0.08860  Biso   1.000  H
  H857     1.0000 0.18660  0.29990  0.10120  Biso   1.000  H
  H858     1.0000 0.16390  0.31910  0.07840  Biso   1.000  H
  H859     1.0000 0.15700  0.31250  0.07910  Biso   1.000  H
  H860     1.0000 0.15380  0.33020  0.06900  Biso   1.000  H
  H861     1.0000 0.19100  0.32360  0.09010  Biso   1.000  H
  O247     1.0000 0.03216  0.65726  0.61208  Biso   1.000  O
  O248     1.0000 0.03201  0.69460  0.64900  Biso   1.000  O
  C370     1.0000 0.04135  0.68197  0.62422  Biso   1.000  C
  C371     1.0000 0.06756  0.69908  0.60744  Biso   1.000  C
  C372     1.0000 0.07719  0.72831  0.61695  Biso   1.000  C
  H862     1.0000 0.06720  0.73800  0.63430  Biso   1.000  H
  H863     1.0000 0.19700  0.83360  0.58860  Biso   1.000  H
  H864     1.0000 0.18660  0.79990  0.60120  Biso   1.000  H
  H865     1.0000 0.16390  0.81910  0.57840  Biso   1.000  H
  H866     1.0000 0.15700  0.81250  0.57910  Biso   1.000  H
  H867     1.0000 0.15380  0.83020  0.56900  Biso   1.000  H
  H868     1.0000 0.19100  0.82360  0.59010  Biso   1.000  H
  O249     1.0000 0.53216  0.84274  0.38792  Biso   1.000  O
  O250     1.0000 0.53201  0.80540  0.35100  Biso   1.000  O
  C373     1.0000 0.54135  0.81803  0.37578  Biso   1.000  C
  C374     1.0000 0.56756  0.80092  0.39256  Biso   1.000  C
  C375     1.0000 0.57719  0.77169  0.38305  Biso   1.000  C
  H869     1.0000 0.56720  0.76200  0.36570  Biso   1.000  H
  H870     1.0000 0.69700  0.66640  0.41140  Biso   1.000  H
  H871     1.0000 0.68660  0.70010  0.39880  Biso   1.000  H
  H872     1.0000 0.66390  0.68090  0.42160  Biso   1.000  H
  H873     1.0000 0.65700  0.68750  0.42090  Biso   1.000  H
  H874     1.0000 0.65380  0.66980  0.43100  Biso   1.000  H
  H875     1.0000 0.69100  0.67640  0.40990  Biso   1.000  H
  O251     1.0000 0.53216  0.34274  0.88792  Biso   1.000  O
  O252     1.0000 0.53201  0.30540  0.85100  Biso   1.000  O
  C376     1.0000 0.54135  0.31803  0.87578  Biso   1.000  C
  C377     1.0000 0.56756  0.30092  0.89256  Biso   1.000  C
  C378     1.0000 0.57719  0.27169  0.88305  Biso   1.000  C
  H876     1.0000 0.56720  0.26200  0.86570  Biso   1.000  H
  H877     1.0000 0.69700  0.16640  0.91140  Biso   1.000  H
  H878     1.0000 0.68660  0.20010  0.89880  Biso   1.000  H
  H879     1.0000 0.66390  0.18090  0.92160  Biso   1.000  H
  H880     1.0000 0.65700  0.18750  0.92090  Biso   1.000  H
  H881     1.0000 0.65380  0.16980  0.93100  Biso   1.000  H
  H882     1.0000 0.69100  0.17640  0.90990  Biso   1.000  H
  O253     1.0000 0.03216  0.84274  0.88792  Biso   1.000  O
  O254     1.0000 0.03201  0.80540  0.85100  Biso   1.000  O
  C379     1.0000 0.04135  0.81803  0.87578  Biso   1.000  C
  C380     1.0000 0.06756  0.80092  0.89256  Biso   1.000  C
  C381     1.0000 0.07719  0.77169  0.88305  Biso   1.000  C
  H883     1.0000 0.06720  0.76200  0.86570  Biso   1.000  H
  H884     1.0000 0.19700  0.66640  0.91140  Biso   1.000  H
  H885     1.0000 0.18660  0.70010  0.89880  Biso   1.000  H
  H886     1.0000 0.16390  0.68090  0.92160  Biso   1.000  H
  H887     1.0000 0.15700  0.68750  0.92090  Biso   1.000  H
  H888     1.0000 0.15380  0.66980  0.93100  Biso   1.000  H
  H889     1.0000 0.19100  0.67640  0.90990  Biso   1.000  H
  O255     1.0000 0.03216  0.34274  0.38792  Biso   1.000  O
  O256     1.0000 0.03201  0.30540  0.35100  Biso   1.000  O
  C382     1.0000 0.04135  0.31803  0.37578  Biso   1.000  C
  C383     1.0000 0.06756  0.30092  0.39256  Biso   1.000  C
  C384     1.0000 0.07719  0.27169  0.38305  Biso   1.000  C
  H890     1.0000 0.06720  0.26200  0.36570  Biso   1.000  H
  H891     1.0000 0.19700  0.16640  0.41140  Biso   1.000  H
  H892     1.0000 0.18660  0.20010  0.39880  Biso   1.000  H
  H893     1.0000 0.16390  0.18090  0.42160  Biso   1.000  H
  H894     1.0000 0.15700  0.18750  0.42090  Biso   1.000  H
  H895     1.0000 0.15380  0.16980  0.43100  Biso   1.000  H
  H896     1.0000 0.19100  0.17640  0.40990  Biso   1.000  H
  O257     1.0000 0.61208  0.46784  0.84274  Biso   1.000  O
  O258     1.0000 0.64900  0.46799  0.80540  Biso   1.000  O
  C385     1.0000 0.62422  0.45865  0.81803  Biso   1.000  C
  C386     1.0000 0.60744  0.43244  0.80092  Biso   1.000  C
  C387     1.0000 0.61695  0.42281  0.77169  Biso   1.000  C
  H897     1.0000 0.63430  0.43280  0.76200  Biso   1.000  H
  H898     1.0000 0.58860  0.30300  0.66640  Biso   1.000  H
  H899     1.0000 0.60120  0.31340  0.70010  Biso   1.000  H
  H900     1.0000 0.57840  0.33610  0.68090  Biso   1.000  H
  H901     1.0000 0.57910  0.34300  0.68750  Biso   1.000  H
  H902     1.0000 0.56900  0.34620  0.66980  Biso   1.000  H
  H903     1.0000 0.59010  0.30900  0.67640  Biso   1.000  H
  O259     1.0000 0.61208  0.96784  0.34274  Biso   1.000  O
  O260     1.0000 0.64900  0.96799  0.30540  Biso   1.000  O
  C388     1.0000 0.62422  0.95865  0.31803  Biso   1.000  C
  C389     1.0000 0.60744  0.93244  0.30092  Biso   1.000  C
  C390     1.0000 0.61695  0.92281  0.27169  Biso   1.000  C
  H904     1.0000 0.63430  0.93280  0.26200  Biso   1.000  H
  H905     1.0000 0.58860  0.80300  0.16640  Biso   1.000  H
  H906     1.0000 0.60120  0.81340  0.20010  Biso   1.000  H
  H907     1.0000 0.57840  0.83610  0.18090  Biso   1.000  H
  H908     1.0000 0.57910  0.84300  0.18750  Biso   1.000  H
  H909     1.0000 0.56900  0.84620  0.16980  Biso   1.000  H
  H910     1.0000 0.59010  0.80900  0.17640  Biso   1.000  H
  O261     1.0000 0.11208  0.46784  0.34274  Biso   1.000  O
  O262     1.0000 0.14900  0.46799  0.30540  Biso   1.000  O
  C391     1.0000 0.12422  0.45865  0.31803  Biso   1.000  C
  C392     1.0000 0.10744  0.43244  0.30092  Biso   1.000  C
  C393     1.0000 0.11695  0.42281  0.27169  Biso   1.000  C
  H911     1.0000 0.13430  0.43280  0.26200  Biso   1.000  H
  H912     1.0000 0.08860  0.30300  0.16640  Biso   1.000  H
  H913     1.0000 0.10120  0.31340  0.20010  Biso   1.000  H
  H914     1.0000 0.07840  0.33610  0.18090  Biso   1.000  H
  H915     1.0000 0.07910  0.34300  0.18750  Biso   1.000  H
  H916     1.0000 0.06900  0.34620  0.16980  Biso   1.000  H
  H917     1.0000 0.09010  0.30900  0.17640  Biso   1.000  H
  O263     1.0000 0.11208  0.96784  0.84274  Biso   1.000  O
  O264     1.0000 0.14900  0.96799  0.80540  Biso   1.000  O
  C394     1.0000 0.12422  0.95865  0.81803  Biso   1.000  C
  C395     1.0000 0.10744  0.93244  0.80092  Biso   1.000  C
  C396     1.0000 0.11695  0.92281  0.77169  Biso   1.000  C
  H918     1.0000 0.13430  0.93280  0.76200  Biso   1.000  H
  H919     1.0000 0.08860  0.80300  0.66640  Biso   1.000  H
  H920     1.0000 0.10120  0.81340  0.70010  Biso   1.000  H
  H921     1.0000 0.07840  0.83610  0.68090  Biso   1.000  H
  H922     1.0000 0.07910  0.84300  0.68750  Biso   1.000  H
  H923     1.0000 0.06900  0.84620  0.66980  Biso   1.000  H
  H924     1.0000 0.09010  0.80900  0.67640  Biso   1.000  H
  O265     1.0000 0.38792  0.46784  0.15726  Biso   1.000  O
  O266     1.0000 0.35100  0.46799  0.19460  Biso   1.000  O
  C397     1.0000 0.37578  0.45865  0.18197  Biso   1.000  C
  C398     1.0000 0.39256  0.43244  0.19908  Biso   1.000  C
  C399     1.0000 0.38305  0.42281  0.22831  Biso   1.000  C
  H925     1.0000 0.36570  0.43280  0.23800  Biso   1.000  H
  H926     1.0000 0.41140  0.30300  0.33360  Biso   1.000  H
  H927     1.0000 0.39880  0.31340  0.29990  Biso   1.000  H
  H928     1.0000 0.42160  0.33610  0.31910  Biso   1.000  H
  H929     1.0000 0.42090  0.34300  0.31250  Biso   1.000  H
  H930     1.0000 0.43100  0.34620  0.33020  Biso   1.000  H
  H931     1.0000 0.40990  0.30900  0.32360  Biso   1.000  H
  O267     1.0000 0.38792  0.96784  0.65726  Biso   1.000  O
  O268     1.0000 0.35100  0.96799  0.69460  Biso   1.000  O
  C400     1.0000 0.37578  0.95865  0.68197  Biso   1.000  C
  C401     1.0000 0.39256  0.93244  0.69908  Biso   1.000  C
  C402     1.0000 0.38305  0.92281  0.72831  Biso   1.000  C
  H932     1.0000 0.36570  0.93280  0.73800  Biso   1.000  H
  H933     1.0000 0.41140  0.80300  0.83360  Biso   1.000  H
  H934     1.0000 0.39880  0.81340  0.79990  Biso   1.000  H
  H935     1.0000 0.42160  0.83610  0.81910  Biso   1.000  H
  H936     1.0000 0.42090  0.84300  0.81250  Biso   1.000  H
  H937     1.0000 0.43100  0.84620  0.83020  Biso   1.000  H
  H938     1.0000 0.40990  0.80900  0.82360  Biso   1.000  H
  O269     1.0000 0.88792  0.46784  0.65726  Biso   1.000  O
  O270     1.0000 0.85100  0.46799  0.69460  Biso   1.000  O
  C403     1.0000 0.87578  0.45865  0.68197  Biso   1.000  C
  C404     1.0000 0.89256  0.43244  0.69908  Biso   1.000  C
  C405     1.0000 0.88305  0.42281  0.72831  Biso   1.000  C
  H939     1.0000 0.86570  0.43280  0.73800  Biso   1.000  H
  H940     1.0000 0.91140  0.30300  0.83360  Biso   1.000  H
  H941     1.0000 0.89880  0.31340  0.79990  Biso   1.000  H
  H942     1.0000 0.92160  0.33610  0.81910  Biso   1.000  H
  H943     1.0000 0.92090  0.34300  0.81250  Biso   1.000  H
  H944     1.0000 0.93100  0.34620  0.83020  Biso   1.000  H
  H945     1.0000 0.90990  0.30900  0.82360  Biso   1.000  H
  O271     1.0000 0.88792  0.96784  0.15726  Biso   1.000  O
  O272     1.0000 0.85100  0.96799  0.19460  Biso   1.000  O
  C406     1.0000 0.87578  0.95865  0.18197  Biso   1.000  C
  C407     1.0000 0.89256  0.93244  0.19908  Biso   1.000  C
  C408     1.0000 0.88305  0.92281  0.22831  Biso   1.000  C
  H946     1.0000 0.86570  0.93280  0.23800  Biso   1.000  H
  H947     1.0000 0.91140  0.80300  0.33360  Biso   1.000  H
  H948     1.0000 0.89880  0.81340  0.29990  Biso   1.000  H
  H949     1.0000 0.92160  0.83610  0.31910  Biso   1.000  H
  H950     1.0000 0.92090  0.84300  0.31250  Biso   1.000  H
  H951     1.0000 0.93100  0.84620  0.33020  Biso   1.000  H
  H952     1.0000 0.90990  0.80900  0.32360  Biso   1.000  H
  O273     1.0000 0.61208  0.53216  0.15726  Biso   1.000  O
  O274     1.0000 0.64900  0.53201  0.19460  Biso   1.000  O
  C409     1.0000 0.62422  0.54135  0.18197  Biso   1.000  C
  C410     1.0000 0.60744  0.56756  0.19908  Biso   1.000  C
  C411     1.0000 0.61695  0.57719  0.22831  Biso   1.000  C
  H953     1.0000 0.63430  0.56720  0.23800  Biso   1.000  H
  H954     1.0000 0.58860  0.69700  0.33360  Biso   1.000  H
  H955     1.0000 0.60120  0.68660  0.29990  Biso   1.000  H
  H956     1.0000 0.57840  0.66390  0.31910  Biso   1.000  H
  H957     1.0000 0.57910  0.65700  0.31250  Biso   1.000  H
  H958     1.0000 0.56900  0.65380  0.33020  Biso   1.000  H
  H959     1.0000 0.59010  0.69100  0.32360  Biso   1.000  H
  O275     1.0000 0.61208  0.03216  0.65726  Biso   1.000  O
  O276     1.0000 0.64900  0.03201  0.69460  Biso   1.000  O
  C412     1.0000 0.62422  0.04135  0.68197  Biso   1.000  C
  C413     1.0000 0.60744  0.06756  0.69908  Biso   1.000  C
  C414     1.0000 0.61695  0.07719  0.72831  Biso   1.000  C
  H960     1.0000 0.63430  0.06720  0.73800  Biso   1.000  H
  H961     1.0000 0.58860  0.19700  0.83360  Biso   1.000  H
  H962     1.0000 0.60120  0.18660  0.79990  Biso   1.000  H
  H963     1.0000 0.57840  0.16390  0.81910  Biso   1.000  H
  H964     1.0000 0.57910  0.15700  0.81250  Biso   1.000  H
  H965     1.0000 0.56900  0.15380  0.83020  Biso   1.000  H
  H966     1.0000 0.59010  0.19100  0.82360  Biso   1.000  H
  O277     1.0000 0.11208  0.53216  0.65726  Biso   1.000  O
  O278     1.0000 0.14900  0.53201  0.69460  Biso   1.000  O
  C415     1.0000 0.12422  0.54135  0.68197  Biso   1.000  C
  C416     1.0000 0.10744  0.56756  0.69908  Biso   1.000  C
  C417     1.0000 0.11695  0.57719  0.72831  Biso   1.000  C
  H967     1.0000 0.13430  0.56720  0.73800  Biso   1.000  H
  H968     1.0000 0.08860  0.69700  0.83360  Biso   1.000  H
  H969     1.0000 0.10120  0.68660  0.79990  Biso   1.000  H
  H970     1.0000 0.07840  0.66390  0.81910  Biso   1.000  H
  H971     1.0000 0.07910  0.65700  0.81250  Biso   1.000  H
  H972     1.0000 0.06900  0.65380  0.83020  Biso   1.000  H
  H973     1.0000 0.09010  0.69100  0.82360  Biso   1.000  H
  O279     1.0000 0.11208  0.03216  0.15726  Biso   1.000  O
  O280     1.0000 0.14900  0.03201  0.19460  Biso   1.000  O
  C418     1.0000 0.12422  0.04135  0.18197  Biso   1.000  C
  C419     1.0000 0.10744  0.06756  0.19908  Biso   1.000  C
  C420     1.0000 0.11695  0.07719  0.22831  Biso   1.000  C
  H974     1.0000 0.13430  0.06720  0.23800  Biso   1.000  H
  H975     1.0000 0.08860  0.19700  0.33360  Biso   1.000  H
  H976     1.0000 0.10120  0.18660  0.29990  Biso   1.000  H
  H977     1.0000 0.07840  0.16390  0.31910  Biso   1.000  H
  H978     1.0000 0.07910  0.15700  0.31250  Biso   1.000  H
  H979     1.0000 0.06900  0.15380  0.33020  Biso   1.000  H
  H980     1.0000 0.09010  0.19100  0.32360  Biso   1.000  H
  O281     1.0000 0.38792  0.53216  0.84274  Biso   1.000  O
  O282     1.0000 0.35100  0.53201  0.80540  Biso   1.000  O
  C421     1.0000 0.37578  0.54135  0.81803  Biso   1.000  C
  C422     1.0000 0.39256  0.56756  0.80092  Biso   1.000  C
  C423     1.0000 0.38305  0.57719  0.77169  Biso   1.000  C
  H981     1.0000 0.36570  0.56720  0.76200  Biso   1.000  H
  H982     1.0000 0.41140  0.69700  0.66640  Biso   1.000  H
  H983     1.0000 0.39880  0.68660  0.70010  Biso   1.000  H
  H984     1.0000 0.42160  0.66390  0.68090  Biso   1.000  H
  H985     1.0000 0.42090  0.65700  0.68750  Biso   1.000  H
  H986     1.0000 0.43100  0.65380  0.66980  Biso   1.000  H
  H987     1.0000 0.40990  0.69100  0.67640  Biso   1.000  H
  O283     1.0000 0.38792  0.03216  0.34274  Biso   1.000  O
  O284     1.0000 0.35100  0.03201  0.30540  Biso   1.000  O
  C424     1.0000 0.37578  0.04135  0.31803  Biso   1.000  C
  C425     1.0000 0.39256  0.06756  0.30092  Biso   1.000  C
  C426     1.0000 0.38305  0.07719  0.27169  Biso   1.000  C
  H988     1.0000 0.36570  0.06720  0.26200  Biso   1.000  H
  H989     1.0000 0.41140  0.19700  0.16640  Biso   1.000  H
  H990     1.0000 0.39880  0.18660  0.20010  Biso   1.000  H
  H991     1.0000 0.42160  0.16390  0.18090  Biso   1.000  H
  H992     1.0000 0.42090  0.15700  0.18750  Biso   1.000  H
  H993     1.0000 0.43100  0.15380  0.16980  Biso   1.000  H
  H994     1.0000 0.40990  0.19100  0.17640  Biso   1.000  H
  O285     1.0000 0.88792  0.53216  0.34274  Biso   1.000  O
  O286     1.0000 0.85100  0.53201  0.30540  Biso   1.000  O
  C427     1.0000 0.87578  0.54135  0.31803  Biso   1.000  C
  C428     1.0000 0.89256  0.56756  0.30092  Biso   1.000  C
  C429     1.0000 0.88305  0.57719  0.27169  Biso   1.000  C
  H995     1.0000 0.86570  0.56720  0.26200  Biso   1.000  H
  H996     1.0000 0.91140  0.69700  0.16640  Biso   1.000  H
  H997     1.0000 0.89880  0.68660  0.20010  Biso   1.000  H
  H998     1.0000 0.92160  0.66390  0.18090  Biso   1.000  H
  H999     1.0000 0.92090  0.65700  0.18750  Biso   1.000  H
  H1000    1.0000 0.93100  0.65380  0.16980  Biso   1.000  H
  H1001    1.0000 0.90990  0.69100  0.17640  Biso   1.000  H
  O287     1.0000 0.88792  0.03216  0.84274  Biso   1.000  O
  O288     1.0000 0.85100  0.03201  0.80540  Biso   1.000  O
  C430     1.0000 0.87578  0.04135  0.81803  Biso   1.000  C
  C431     1.0000 0.89256  0.06756  0.80092  Biso   1.000  C
  C432     1.0000 0.88305  0.07719  0.77169  Biso   1.000  C
  H1002    1.0000 0.86570  0.06720  0.76200  Biso   1.000  H
  H1003    1.0000 0.91140  0.19700  0.66640  Biso   1.000  H
  H1004    1.0000 0.89880  0.18660  0.70010  Biso   1.000  H
  H1005    1.0000 0.92160  0.16390  0.68090  Biso   1.000  H
  H1006    1.0000 0.92090  0.15700  0.68750  Biso   1.000  H
  H1007    1.0000 0.93100  0.15380  0.66980  Biso   1.000  H
  H1008    1.0000 0.90990  0.19100  0.67640  Biso   1.000  H
  O289     1.0000 0.61208  0.84274  0.53216  Biso   1.000  O
  O290     1.0000 0.64900  0.80540  0.53201  Biso   1.000  O
  C433     1.0000 0.62422  0.81803  0.54135  Biso   1.000  C
  C434     1.0000 0.60744  0.80092  0.56756  Biso   1.000  C
  C435     1.0000 0.61695  0.77169  0.57719  Biso   1.000  C
  H1009    1.0000 0.63430  0.76200  0.56720  Biso   1.000  H
  H1010    1.0000 0.58860  0.66640  0.69700  Biso   1.000  H
  H1011    1.0000 0.60120  0.70010  0.68660  Biso   1.000  H
  H1012    1.0000 0.57840  0.68090  0.66390  Biso   1.000  H
  H1013    1.0000 0.57910  0.68750  0.65700  Biso   1.000  H
  H1014    1.0000 0.56900  0.66980  0.65380  Biso   1.000  H
  H1015    1.0000 0.59010  0.67640  0.69100  Biso   1.000  H
  O291     1.0000 0.61208  0.34274  0.03216  Biso   1.000  O
  O292     1.0000 0.64900  0.30540  0.03201  Biso   1.000  O
  C436     1.0000 0.62422  0.31803  0.04135  Biso   1.000  C
  C437     1.0000 0.60744  0.30092  0.06756  Biso   1.000  C
  C438     1.0000 0.61695  0.27169  0.07719  Biso   1.000  C
  H1016    1.0000 0.63430  0.26200  0.06720  Biso   1.000  H
  H1017    1.0000 0.58860  0.16640  0.19700  Biso   1.000  H
  H1018    1.0000 0.60120  0.20010  0.18660  Biso   1.000  H
  H1019    1.0000 0.57840  0.18090  0.16390  Biso   1.000  H
  H1020    1.0000 0.57910  0.18750  0.15700  Biso   1.000  H
  H1021    1.0000 0.56900  0.16980  0.15380  Biso   1.000  H
  H1022    1.0000 0.59010  0.17640  0.19100  Biso   1.000  H
  O293     1.0000 0.11208  0.84274  0.03216  Biso   1.000  O
  O294     1.0000 0.14900  0.80540  0.03201  Biso   1.000  O
  C439     1.0000 0.12422  0.81803  0.04135  Biso   1.000  C
  C440     1.0000 0.10744  0.80092  0.06756  Biso   1.000  C
  C441     1.0000 0.11695  0.77169  0.07719  Biso   1.000  C
  H1023    1.0000 0.13430  0.76200  0.06720  Biso   1.000  H
  H1024    1.0000 0.08860  0.66640  0.19700  Biso   1.000  H
  H1025    1.0000 0.10120  0.70010  0.18660  Biso   1.000  H
  H1026    1.0000 0.07840  0.68090  0.16390  Biso   1.000  H
  H1027    1.0000 0.07910  0.68750  0.15700  Biso   1.000  H
  H1028    1.0000 0.06900  0.66980  0.15380  Biso   1.000  H
  H1029    1.0000 0.09010  0.67640  0.19100  Biso   1.000  H
  O295     1.0000 0.11208  0.34274  0.53216  Biso   1.000  O
  O296     1.0000 0.14900  0.30540  0.53201  Biso   1.000  O
  C442     1.0000 0.12422  0.31803  0.54135  Biso   1.000  C
  C443     1.0000 0.10744  0.30092  0.56756  Biso   1.000  C
  C444     1.0000 0.11695  0.27169  0.57719  Biso   1.000  C
  H1030    1.0000 0.13430  0.26200  0.56720  Biso   1.000  H
  H1031    1.0000 0.08860  0.16640  0.69700  Biso   1.000  H
  H1032    1.0000 0.10120  0.20010  0.68660  Biso   1.000  H
  H1033    1.0000 0.07840  0.18090  0.66390  Biso   1.000  H
  H1034    1.0000 0.07910  0.18750  0.65700  Biso   1.000  H
  H1035    1.0000 0.06900  0.16980  0.65380  Biso   1.000  H
  H1036    1.0000 0.09010  0.17640  0.69100  Biso   1.000  H
  O297     1.0000 0.38792  0.15726  0.53216  Biso   1.000  O
  O298     1.0000 0.35100  0.19460  0.53201  Biso   1.000  O
  C445     1.0000 0.37578  0.18197  0.54135  Biso   1.000  C
  C446     1.0000 0.39256  0.19908  0.56756  Biso   1.000  C
  C447     1.0000 0.38305  0.22831  0.57719  Biso   1.000  C
  H1037    1.0000 0.36570  0.23800  0.56720  Biso   1.000  H
  H1038    1.0000 0.41140  0.33360  0.69700  Biso   1.000  H
  H1039    1.0000 0.39880  0.29990  0.68660  Biso   1.000  H
  H1040    1.0000 0.42160  0.31910  0.66390  Biso   1.000  H
  H1041    1.0000 0.42090  0.31250  0.65700  Biso   1.000  H
  H1042    1.0000 0.43100  0.33020  0.65380  Biso   1.000  H
  H1043    1.0000 0.40990  0.32360  0.69100  Biso   1.000  H
  O299     1.0000 0.38792  0.65726  0.03216  Biso   1.000  O
  O300     1.0000 0.35100  0.69460  0.03201  Biso   1.000  O
  C448     1.0000 0.37578  0.68197  0.04135  Biso   1.000  C
  C449     1.0000 0.39256  0.69908  0.06756  Biso   1.000  C
  C450     1.0000 0.38305  0.72831  0.07719  Biso   1.000  C
  H1044    1.0000 0.36570  0.73800  0.06720  Biso   1.000  H
  H1045    1.0000 0.41140  0.83360  0.19700  Biso   1.000  H
  H1046    1.0000 0.39880  0.79990  0.18660  Biso   1.000  H
  H1047    1.0000 0.42160  0.81910  0.16390  Biso   1.000  H
  H1048    1.0000 0.42090  0.81250  0.15700  Biso   1.000  H
  H1049    1.0000 0.43100  0.83020  0.15380  Biso   1.000  H
  H1050    1.0000 0.40990  0.82360  0.19100  Biso   1.000  H
  O301     1.0000 0.88792  0.15726  0.03216  Biso   1.000  O
  O302     1.0000 0.85100  0.19460  0.03201  Biso   1.000  O
  C451     1.0000 0.87578  0.18197  0.04135  Biso   1.000  C
  C452     1.0000 0.89256  0.19908  0.06756  Biso   1.000  C
  C453     1.0000 0.88305  0.22831  0.07719  Biso   1.000  C
  H1051    1.0000 0.86570  0.23800  0.06720  Biso   1.000  H
  H1052    1.0000 0.91140  0.33360  0.19700  Biso   1.000  H
  H1053    1.0000 0.89880  0.29990  0.18660  Biso   1.000  H
  H1054    1.0000 0.92160  0.31910  0.16390  Biso   1.000  H
  H1055    1.0000 0.92090  0.31250  0.15700  Biso   1.000  H
  H1056    1.0000 0.93100  0.33020  0.15380  Biso   1.000  H
  H1057    1.0000 0.90990  0.32360  0.19100  Biso   1.000  H
  O303     1.0000 0.88792  0.65726  0.53216  Biso   1.000  O
  O304     1.0000 0.85100  0.69460  0.53201  Biso   1.000  O
  C454     1.0000 0.87578  0.68197  0.54135  Biso   1.000  C
  C455     1.0000 0.89256  0.69908  0.56756  Biso   1.000  C
  C456     1.0000 0.88305  0.72831  0.57719  Biso   1.000  C
  H1058    1.0000 0.86570  0.73800  0.56720  Biso   1.000  H
  H1059    1.0000 0.91140  0.83360  0.69700  Biso   1.000  H
  H1060    1.0000 0.89880  0.79990  0.68660  Biso   1.000  H
  H1061    1.0000 0.92160  0.81910  0.66390  Biso   1.000  H
  H1062    1.0000 0.92090  0.81250  0.65700  Biso   1.000  H
  H1063    1.0000 0.93100  0.83020  0.65380  Biso   1.000  H
  H1064    1.0000 0.90990  0.82360  0.69100  Biso   1.000  H
  O305     1.0000 0.61208  0.15726  0.46784  Biso   1.000  O
  O306     1.0000 0.64900  0.19460  0.46799  Biso   1.000  O
  C457     1.0000 0.62422  0.18197  0.45865  Biso   1.000  C
  C458     1.0000 0.60744  0.19908  0.43244  Biso   1.000  C
  C459     1.0000 0.61695  0.22831  0.42281  Biso   1.000  C
  H1065    1.0000 0.63430  0.23800  0.43280  Biso   1.000  H
  H1066    1.0000 0.58860  0.33360  0.30300  Biso   1.000  H
  H1067    1.0000 0.60120  0.29990  0.31340  Biso   1.000  H
  H1068    1.0000 0.57840  0.31910  0.33610  Biso   1.000  H
  H1069    1.0000 0.57910  0.31250  0.34300  Biso   1.000  H
  H1070    1.0000 0.56900  0.33020  0.34620  Biso   1.000  H
  H1071    1.0000 0.59010  0.32360  0.30900  Biso   1.000  H
  O307     1.0000 0.61208  0.65726  0.96784  Biso   1.000  O
  O308     1.0000 0.64900  0.69460  0.96799  Biso   1.000  O
  C460     1.0000 0.62422  0.68197  0.95865  Biso   1.000  C
  C461     1.0000 0.60744  0.69908  0.93244  Biso   1.000  C
  C462     1.0000 0.61695  0.72831  0.92281  Biso   1.000  C
  H1072    1.0000 0.63430  0.73800  0.93280  Biso   1.000  H
  H1073    1.0000 0.58860  0.83360  0.80300  Biso   1.000  H
  H1074    1.0000 0.60120  0.79990  0.81340  Biso   1.000  H
  H1075    1.0000 0.57840  0.81910  0.83610  Biso   1.000  H
  H1076    1.0000 0.57910  0.81250  0.84300  Biso   1.000  H
  H1077    1.0000 0.56900  0.83020  0.84620  Biso   1.000  H
  H1078    1.0000 0.59010  0.82360  0.80900  Biso   1.000  H
  O309     1.0000 0.11208  0.15726  0.96784  Biso   1.000  O
  O310     1.0000 0.14900  0.19460  0.96799  Biso   1.000  O
  C463     1.0000 0.12422  0.18197  0.95865  Biso   1.000  C
  C464     1.0000 0.10744  0.19908  0.93244  Biso   1.000  C
  C465     1.0000 0.11695  0.22831  0.92281  Biso   1.000  C
  H1079    1.0000 0.13430  0.23800  0.93280  Biso   1.000  H
  H1080    1.0000 0.08860  0.33360  0.80300  Biso   1.000  H
  H1081    1.0000 0.10120  0.29990  0.81340  Biso   1.000  H
  H1082    1.0000 0.07840  0.31910  0.83610  Biso   1.000  H
  H1083    1.0000 0.07910  0.31250  0.84300  Biso   1.000  H
  H1084    1.0000 0.06900  0.33020  0.84620  Biso   1.000  H
  H1085    1.0000 0.09010  0.32360  0.80900  Biso   1.000  H
  O311     1.0000 0.11208  0.65726  0.46784  Biso   1.000  O
  O312     1.0000 0.14900  0.69460  0.46799  Biso   1.000  O
  C466     1.0000 0.12422  0.68197  0.45865  Biso   1.000  C
  C467     1.0000 0.10744  0.69908  0.43244  Biso   1.000  C
  C468     1.0000 0.11695  0.72831  0.42281  Biso   1.000  C
  H1086    1.0000 0.13430  0.73800  0.43280  Biso   1.000  H
  H1087    1.0000 0.08860  0.83360  0.30300  Biso   1.000  H
  H1088    1.0000 0.10120  0.79990  0.31340  Biso   1.000  H
  H1089    1.0000 0.07840  0.81910  0.33610  Biso   1.000  H
  H1090    1.0000 0.07910  0.81250  0.34300  Biso   1.000  H
  H1091    1.0000 0.06900  0.83020  0.34620  Biso   1.000  H
  H1092    1.0000 0.09010  0.82360  0.30900  Biso   1.000  H
  O313     1.0000 0.38792  0.84274  0.46784  Biso   1.000  O
  O314     1.0000 0.35100  0.80540  0.46799  Biso   1.000  O
  C469     1.0000 0.37578  0.81803  0.45865  Biso   1.000  C
  C470     1.0000 0.39256  0.80092  0.43244  Biso   1.000  C
  C471     1.0000 0.38305  0.77169  0.42281  Biso   1.000  C
  H1093    1.0000 0.36570  0.76200  0.43280  Biso   1.000  H
  H1094    1.0000 0.41140  0.66640  0.30300  Biso   1.000  H
  H1095    1.0000 0.39880  0.70010  0.31340  Biso   1.000  H
  H1096    1.0000 0.42160  0.68090  0.33610  Biso   1.000  H
  H1097    1.0000 0.42090  0.68750  0.34300  Biso   1.000  H
  H1098    1.0000 0.43100  0.66980  0.34620  Biso   1.000  H
  H1099    1.0000 0.40990  0.67640  0.30900  Biso   1.000  H
  O315     1.0000 0.38792  0.34274  0.96784  Biso   1.000  O
  O316     1.0000 0.35100  0.30540  0.96799  Biso   1.000  O
  C472     1.0000 0.37578  0.31803  0.95865  Biso   1.000  C
  C473     1.0000 0.39256  0.30092  0.93244  Biso   1.000  C
  C474     1.0000 0.38305  0.27169  0.92281  Biso   1.000  C
  H1100    1.0000 0.36570  0.26200  0.93280  Biso   1.000  H
  H1101    1.0000 0.41140  0.16640  0.80300  Biso   1.000  H
  H1102    1.0000 0.39880  0.20010  0.81340  Biso   1.000  H
  H1103    1.0000 0.42160  0.18090  0.83610  Biso   1.000  H
  H1104    1.0000 0.42090  0.18750  0.84300  Biso   1.000  H
  H1105    1.0000 0.43100  0.16980  0.84620  Biso   1.000  H
  H1106    1.0000 0.40990  0.17640  0.80900  Biso   1.000  H
  O317     1.0000 0.88792  0.84274  0.96784  Biso   1.000  O
  O318     1.0000 0.85100  0.80540  0.96799  Biso   1.000  O
  C475     1.0000 0.87578  0.81803  0.95865  Biso   1.000  C
  C476     1.0000 0.89256  0.80092  0.93244  Biso   1.000  C
  C477     1.0000 0.88305  0.77169  0.92281  Biso   1.000  C
  H1107    1.0000 0.86570  0.76200  0.93280  Biso   1.000  H
  H1108    1.0000 0.91140  0.66640  0.80300  Biso   1.000  H
  H1109    1.0000 0.89880  0.70010  0.81340  Biso   1.000  H
  H1110    1.0000 0.92160  0.68090  0.83610  Biso   1.000  H
  H1111    1.0000 0.92090  0.68750  0.84300  Biso   1.000  H
  H1112    1.0000 0.93100  0.66980  0.84620  Biso   1.000  H
  H1113    1.0000 0.90990  0.67640  0.80900  Biso   1.000  H
  O319     1.0000 0.88792  0.34274  0.46784  Biso   1.000  O
  O320     1.0000 0.85100  0.30540  0.46799  Biso   1.000  O
  C478     1.0000 0.87578  0.31803  0.45865  Biso   1.000  C
  C479     1.0000 0.89256  0.30092  0.43244  Biso   1.000  C
  C480     1.0000 0.88305  0.27169  0.42281  Biso   1.000  C
  H1114    1.0000 0.86570  0.26200  0.43280  Biso   1.000  H
  H1115    1.0000 0.91140  0.16640  0.30300  Biso   1.000  H
  H1116    1.0000 0.89880  0.20010  0.31340  Biso   1.000  H
  H1117    1.0000 0.92160  0.18090  0.33610  Biso   1.000  H
  H1118    1.0000 0.92090  0.18750  0.34300  Biso   1.000  H
  H1119    1.0000 0.93100  0.16980  0.34620  Biso   1.000  H
  H1120    1.0000 0.90990  0.17640  0.30900  Biso   1.000  H
  O321     1.0000 0.84274  0.46784  0.38792  Biso   1.000  O
  O322     1.0000 0.80540  0.46799  0.35100  Biso   1.000  O
  C481     1.0000 0.81803  0.45865  0.37578  Biso   1.000  C
  C482     1.0000 0.80092  0.43244  0.39256  Biso   1.000  C
  C483     1.0000 0.77169  0.42281  0.38305  Biso   1.000  C
  H1121    1.0000 0.76200  0.43280  0.36570  Biso   1.000  H
  H1122    1.0000 0.66640  0.30300  0.41140  Biso   1.000  H
  H1123    1.0000 0.70010  0.31340  0.39880  Biso   1.000  H
  H1124    1.0000 0.68090  0.33610  0.42160  Biso   1.000  H
  H1125    1.0000 0.68750  0.34300  0.42090  Biso   1.000  H
  H1126    1.0000 0.66980  0.34620  0.43100  Biso   1.000  H
  H1127    1.0000 0.67640  0.30900  0.40990  Biso   1.000  H
  O323     1.0000 0.84274  0.96784  0.88792  Biso   1.000  O
  O324     1.0000 0.80540  0.96799  0.85100  Biso   1.000  O
  C484     1.0000 0.81803  0.95865  0.87578  Biso   1.000  C
  C485     1.0000 0.80092  0.93244  0.89256  Biso   1.000  C
  C486     1.0000 0.77169  0.92281  0.88305  Biso   1.000  C
  H1128    1.0000 0.76200  0.93280  0.86570  Biso   1.000  H
  H1129    1.0000 0.66640  0.80300  0.91140  Biso   1.000  H
  H1130    1.0000 0.70010  0.81340  0.89880  Biso   1.000  H
  H1131    1.0000 0.68090  0.83610  0.92160  Biso   1.000  H
  H1132    1.0000 0.68750  0.84300  0.92090  Biso   1.000  H
  H1133    1.0000 0.66980  0.84620  0.93100  Biso   1.000  H
  H1134    1.0000 0.67640  0.80900  0.90990  Biso   1.000  H
  O325     1.0000 0.34274  0.46784  0.88792  Biso   1.000  O
  O326     1.0000 0.30540  0.46799  0.85100  Biso   1.000  O
  C487     1.0000 0.31803  0.45865  0.87578  Biso   1.000  C
  C488     1.0000 0.30092  0.43244  0.89256  Biso   1.000  C
  C489     1.0000 0.27169  0.42281  0.88305  Biso   1.000  C
  H1135    1.0000 0.26200  0.43280  0.86570  Biso   1.000  H
  H1136    1.0000 0.16640  0.30300  0.91140  Biso   1.000  H
  H1137    1.0000 0.20010  0.31340  0.89880  Biso   1.000  H
  H1138    1.0000 0.18090  0.33610  0.92160  Biso   1.000  H
  H1139    1.0000 0.18750  0.34300  0.92090  Biso   1.000  H
  H1140    1.0000 0.16980  0.34620  0.93100  Biso   1.000  H
  H1141    1.0000 0.17640  0.30900  0.90990  Biso   1.000  H
  O327     1.0000 0.34274  0.96784  0.38792  Biso   1.000  O
  O328     1.0000 0.30540  0.96799  0.35100  Biso   1.000  O
  C490     1.0000 0.31803  0.95865  0.37578  Biso   1.000  C
  C491     1.0000 0.30092  0.93244  0.39256  Biso   1.000  C
  C492     1.0000 0.27169  0.92281  0.38305  Biso   1.000  C
  H1142    1.0000 0.26200  0.93280  0.36570  Biso   1.000  H
  H1143    1.0000 0.16640  0.80300  0.41140  Biso   1.000  H
  H1144    1.0000 0.20010  0.81340  0.39880  Biso   1.000  H
  H1145    1.0000 0.18090  0.83610  0.42160  Biso   1.000  H
  H1146    1.0000 0.18750  0.84300  0.42090  Biso   1.000  H
  H1147    1.0000 0.16980  0.84620  0.43100  Biso   1.000  H
  H1148    1.0000 0.17640  0.80900  0.40990  Biso   1.000  H
  O329     1.0000 0.15726  0.46784  0.61208  Biso   1.000  O
  O330     1.0000 0.19460  0.46799  0.64900  Biso   1.000  O
  C493     1.0000 0.18197  0.45865  0.62422  Biso   1.000  C
  C494     1.0000 0.19908  0.43244  0.60744  Biso   1.000  C
  C495     1.0000 0.22831  0.42281  0.61695  Biso   1.000  C
  H1149    1.0000 0.23800  0.43280  0.63430  Biso   1.000  H
  H1150    1.0000 0.33360  0.30300  0.58860  Biso   1.000  H
  H1151    1.0000 0.29990  0.31340  0.60120  Biso   1.000  H
  H1152    1.0000 0.31910  0.33610  0.57840  Biso   1.000  H
  H1153    1.0000 0.31250  0.34300  0.57910  Biso   1.000  H
  H1154    1.0000 0.33020  0.34620  0.56900  Biso   1.000  H
  H1155    1.0000 0.32360  0.30900  0.59010  Biso   1.000  H
  O331     1.0000 0.15726  0.96784  0.11208  Biso   1.000  O
  O332     1.0000 0.19460  0.96799  0.14900  Biso   1.000  O
  C496     1.0000 0.18197  0.95865  0.12422  Biso   1.000  C
  C497     1.0000 0.19908  0.93244  0.10744  Biso   1.000  C
  C498     1.0000 0.22831  0.92281  0.11695  Biso   1.000  C
  H1156    1.0000 0.23800  0.93280  0.13430  Biso   1.000  H
  H1157    1.0000 0.33360  0.80300  0.08860  Biso   1.000  H
  H1158    1.0000 0.29990  0.81340  0.10120  Biso   1.000  H
  H1159    1.0000 0.31910  0.83610  0.07840  Biso   1.000  H
  H1160    1.0000 0.31250  0.84300  0.07910  Biso   1.000  H
  H1161    1.0000 0.33020  0.84620  0.06900  Biso   1.000  H
  H1162    1.0000 0.32360  0.80900  0.09010  Biso   1.000  H
  O333     1.0000 0.65726  0.46784  0.11208  Biso   1.000  O
  O334     1.0000 0.69460  0.46799  0.14900  Biso   1.000  O
  C499     1.0000 0.68197  0.45865  0.12422  Biso   1.000  C
  C500     1.0000 0.69908  0.43244  0.10744  Biso   1.000  C
  C501     1.0000 0.72831  0.42281  0.11695  Biso   1.000  C
  H1163    1.0000 0.73800  0.43280  0.13430  Biso   1.000  H
  H1164    1.0000 0.83360  0.30300  0.08860  Biso   1.000  H
  H1165    1.0000 0.79990  0.31340  0.10120  Biso   1.000  H
  H1166    1.0000 0.81910  0.33610  0.07840  Biso   1.000  H
  H1167    1.0000 0.81250  0.34300  0.07910  Biso   1.000  H
  H1168    1.0000 0.83020  0.34620  0.06900  Biso   1.000  H
  H1169    1.0000 0.82360  0.30900  0.09010  Biso   1.000  H
  O335     1.0000 0.65726  0.96784  0.61208  Biso   1.000  O
  O336     1.0000 0.69460  0.96799  0.64900  Biso   1.000  O
  C502     1.0000 0.68197  0.95865  0.62422  Biso   1.000  C
  C503     1.0000 0.69908  0.93244  0.60744  Biso   1.000  C
  C504     1.0000 0.72831  0.92281  0.61695  Biso   1.000  C
  H1170    1.0000 0.73800  0.93280  0.63430  Biso   1.000  H
  H1171    1.0000 0.83360  0.80300  0.58860  Biso   1.000  H
  H1172    1.0000 0.79990  0.81340  0.60120  Biso   1.000  H
  H1173    1.0000 0.81910  0.83610  0.57840  Biso   1.000  H
  H1174    1.0000 0.81250  0.84300  0.57910  Biso   1.000  H
  H1175    1.0000 0.83020  0.84620  0.56900  Biso   1.000  H
  H1176    1.0000 0.82360  0.80900  0.59010  Biso   1.000  H
  O337     1.0000 0.15726  0.53216  0.38792  Biso   1.000  O
  O338     1.0000 0.19460  0.53201  0.35100  Biso   1.000  O
  C505     1.0000 0.18197  0.54135  0.37578  Biso   1.000  C
  C506     1.0000 0.19908  0.56756  0.39256  Biso   1.000  C
  C507     1.0000 0.22831  0.57719  0.38305  Biso   1.000  C
  H1177    1.0000 0.23800  0.56720  0.36570  Biso   1.000  H
  H1178    1.0000 0.33360  0.69700  0.41140  Biso   1.000  H
  H1179    1.0000 0.29990  0.68660  0.39880  Biso   1.000  H
  H1180    1.0000 0.31910  0.66390  0.42160  Biso   1.000  H
  H1181    1.0000 0.31250  0.65700  0.42090  Biso   1.000  H
  H1182    1.0000 0.33020  0.65380  0.43100  Biso   1.000  H
  H1183    1.0000 0.32360  0.69100  0.40990  Biso   1.000  H
  O339     1.0000 0.15726  0.03216  0.88792  Biso   1.000  O
  O340     1.0000 0.19460  0.03201  0.85100  Biso   1.000  O
  C508     1.0000 0.18197  0.04135  0.87578  Biso   1.000  C
  C509     1.0000 0.19908  0.06756  0.89256  Biso   1.000  C
  C510     1.0000 0.22831  0.07719  0.88305  Biso   1.000  C
  H1184    1.0000 0.23800  0.06720  0.86570  Biso   1.000  H
  H1185    1.0000 0.33360  0.19700  0.91140  Biso   1.000  H
  H1186    1.0000 0.29990  0.18660  0.89880  Biso   1.000  H
  H1187    1.0000 0.31910  0.16390  0.92160  Biso   1.000  H
  H1188    1.0000 0.31250  0.15700  0.92090  Biso   1.000  H
  H1189    1.0000 0.33020  0.15380  0.93100  Biso   1.000  H
  H1190    1.0000 0.32360  0.19100  0.90990  Biso   1.000  H
  O341     1.0000 0.65726  0.53216  0.88792  Biso   1.000  O
  O342     1.0000 0.69460  0.53201  0.85100  Biso   1.000  O
  C511     1.0000 0.68197  0.54135  0.87578  Biso   1.000  C
  C512     1.0000 0.69908  0.56756  0.89256  Biso   1.000  C
  C513     1.0000 0.72831  0.57719  0.88305  Biso   1.000  C
  H1191    1.0000 0.73800  0.56720  0.86570  Biso   1.000  H
  H1192    1.0000 0.83360  0.69700  0.91140  Biso   1.000  H
  H1193    1.0000 0.79990  0.68660  0.89880  Biso   1.000  H
  H1194    1.0000 0.81910  0.66390  0.92160  Biso   1.000  H
  H1195    1.0000 0.81250  0.65700  0.92090  Biso   1.000  H
  H1196    1.0000 0.83020  0.65380  0.93100  Biso   1.000  H
  H1197    1.0000 0.82360  0.69100  0.90990  Biso   1.000  H
  O343     1.0000 0.65726  0.03216  0.38792  Biso   1.000  O
  O344     1.0000 0.69460  0.03201  0.35100  Biso   1.000  O
  C514     1.0000 0.68197  0.04135  0.37578  Biso   1.000  C
  C515     1.0000 0.69908  0.06756  0.39256  Biso   1.000  C
  C516     1.0000 0.72831  0.07719  0.38305  Biso   1.000  C
  H1198    1.0000 0.73800  0.06720  0.36570  Biso   1.000  H
  H1199    1.0000 0.83360  0.19700  0.41140  Biso   1.000  H
  H1200    1.0000 0.79990  0.18660  0.39880  Biso   1.000  H
  H1201    1.0000 0.81910  0.16390  0.42160  Biso   1.000  H
  H1202    1.0000 0.81250  0.15700  0.42090  Biso   1.000  H
  H1203    1.0000 0.83020  0.15380  0.43100  Biso   1.000  H
  H1204    1.0000 0.82360  0.19100  0.40990  Biso   1.000  H
  O345     1.0000 0.84274  0.53216  0.61208  Biso   1.000  O
  O346     1.0000 0.80540  0.53201  0.64900  Biso   1.000  O
  C517     1.0000 0.81803  0.54135  0.62422  Biso   1.000  C
  C518     1.0000 0.80092  0.56756  0.60744  Biso   1.000  C
  C519     1.0000 0.77169  0.57719  0.61695  Biso   1.000  C
  H1205    1.0000 0.76200  0.56720  0.63430  Biso   1.000  H
  H1206    1.0000 0.66640  0.69700  0.58860  Biso   1.000  H
  H1207    1.0000 0.70010  0.68660  0.60120  Biso   1.000  H
  H1208    1.0000 0.68090  0.66390  0.57840  Biso   1.000  H
  H1209    1.0000 0.68750  0.65700  0.57910  Biso   1.000  H
  H1210    1.0000 0.66980  0.65380  0.56900  Biso   1.000  H
  H1211    1.0000 0.67640  0.69100  0.59010  Biso   1.000  H
  O347     1.0000 0.84274  0.03216  0.11208  Biso   1.000  O
  O348     1.0000 0.80540  0.03201  0.14900  Biso   1.000  O
  C520     1.0000 0.81803  0.04135  0.12422  Biso   1.000  C
  C521     1.0000 0.80092  0.06756  0.10744  Biso   1.000  C
  C522     1.0000 0.77169  0.07719  0.11695  Biso   1.000  C
  H1212    1.0000 0.76200  0.06720  0.13430  Biso   1.000  H
  H1213    1.0000 0.66640  0.19700  0.08860  Biso   1.000  H
  H1214    1.0000 0.70010  0.18660  0.10120  Biso   1.000  H
  H1215    1.0000 0.68090  0.16390  0.07840  Biso   1.000  H
  H1216    1.0000 0.68750  0.15700  0.07910  Biso   1.000  H
  H1217    1.0000 0.66980  0.15380  0.06900  Biso   1.000  H
  H1218    1.0000 0.67640  0.19100  0.09010  Biso   1.000  H
  O349     1.0000 0.34274  0.53216  0.11208  Biso   1.000  O
  O350     1.0000 0.30540  0.53201  0.14900  Biso   1.000  O
  C523     1.0000 0.31803  0.54135  0.12422  Biso   1.000  C
  C524     1.0000 0.30092  0.56756  0.10744  Biso   1.000  C
  C525     1.0000 0.27169  0.57719  0.11695  Biso   1.000  C
  H1219    1.0000 0.26200  0.56720  0.13430  Biso   1.000  H
  H1220    1.0000 0.16640  0.69700  0.08860  Biso   1.000  H
  H1221    1.0000 0.20010  0.68660  0.10120  Biso   1.000  H
  H1222    1.0000 0.18090  0.66390  0.07840  Biso   1.000  H
  H1223    1.0000 0.18750  0.65700  0.07910  Biso   1.000  H
  H1224    1.0000 0.16980  0.65380  0.06900  Biso   1.000  H
  H1225    1.0000 0.17640  0.69100  0.09010  Biso   1.000  H
  O351     1.0000 0.34274  0.03216  0.61208  Biso   1.000  O
  O352     1.0000 0.30540  0.03201  0.64900  Biso   1.000  O
  C526     1.0000 0.31803  0.04135  0.62422  Biso   1.000  C
  C527     1.0000 0.30092  0.06756  0.60744  Biso   1.000  C
  C528     1.0000 0.27169  0.07719  0.61695  Biso   1.000  C
  H1226    1.0000 0.26200  0.06720  0.63430  Biso   1.000  H
  H1227    1.0000 0.16640  0.19700  0.58860  Biso   1.000  H
  H1228    1.0000 0.20010  0.18660  0.60120  Biso   1.000  H
  H1229    1.0000 0.18090  0.16390  0.57840  Biso   1.000  H
  H1230    1.0000 0.18750  0.15700  0.57910  Biso   1.000  H
  H1231    1.0000 0.16980  0.15380  0.56900  Biso   1.000  H
  H1232    1.0000 0.17640  0.19100  0.59010  Biso   1.000  H
  O353     1.0000 0.46784  0.61208  0.15726  Biso   1.000  O
  O354     1.0000 0.46799  0.64900  0.19460  Biso   1.000  O
  C529     1.0000 0.45865  0.62422  0.18197  Biso   1.000  C
  C530     1.0000 0.43244  0.60744  0.19908  Biso   1.000  C
  C531     1.0000 0.42281  0.61695  0.22831  Biso   1.000  C
  H1233    1.0000 0.43280  0.63430  0.23800  Biso   1.000  H
  H1234    1.0000 0.30300  0.58860  0.33360  Biso   1.000  H
  H1235    1.0000 0.31340  0.60120  0.29990  Biso   1.000  H
  H1236    1.0000 0.33610  0.57840  0.31910  Biso   1.000  H
  H1237    1.0000 0.34300  0.57910  0.31250  Biso   1.000  H
  H1238    1.0000 0.34620  0.56900  0.33020  Biso   1.000  H
  H1239    1.0000 0.30900  0.59010  0.32360  Biso   1.000  H
  O355     1.0000 0.46784  0.11208  0.65726  Biso   1.000  O
  O356     1.0000 0.46799  0.14900  0.69460  Biso   1.000  O
  C532     1.0000 0.45865  0.12422  0.68197  Biso   1.000  C
  C533     1.0000 0.43244  0.10744  0.69908  Biso   1.000  C
  C534     1.0000 0.42281  0.11695  0.72831  Biso   1.000  C
  H1240    1.0000 0.43280  0.13430  0.73800  Biso   1.000  H
  H1241    1.0000 0.30300  0.08860  0.83360  Biso   1.000  H
  H1242    1.0000 0.31340  0.10120  0.79990  Biso   1.000  H
  H1243    1.0000 0.33610  0.07840  0.81910  Biso   1.000  H
  H1244    1.0000 0.34300  0.07910  0.81250  Biso   1.000  H
  H1245    1.0000 0.34620  0.06900  0.83020  Biso   1.000  H
  H1246    1.0000 0.30900  0.09010  0.82360  Biso   1.000  H
  O357     1.0000 0.96784  0.61208  0.65726  Biso   1.000  O
  O358     1.0000 0.96799  0.64900  0.69460  Biso   1.000  O
  C535     1.0000 0.95865  0.62422  0.68197  Biso   1.000  C
  C536     1.0000 0.93244  0.60744  0.69908  Biso   1.000  C
  C537     1.0000 0.92281  0.61695  0.72831  Biso   1.000  C
  H1247    1.0000 0.93280  0.63430  0.73800  Biso   1.000  H
  H1248    1.0000 0.80300  0.58860  0.83360  Biso   1.000  H
  H1249    1.0000 0.81340  0.60120  0.79990  Biso   1.000  H
  H1250    1.0000 0.83610  0.57840  0.81910  Biso   1.000  H
  H1251    1.0000 0.84300  0.57910  0.81250  Biso   1.000  H
  H1252    1.0000 0.84620  0.56900  0.83020  Biso   1.000  H
  H1253    1.0000 0.80900  0.59010  0.82360  Biso   1.000  H
  O359     1.0000 0.96784  0.11208  0.15726  Biso   1.000  O
  O360     1.0000 0.96799  0.14900  0.19460  Biso   1.000  O
  C538     1.0000 0.95865  0.12422  0.18197  Biso   1.000  C
  C539     1.0000 0.93244  0.10744  0.19908  Biso   1.000  C
  C540     1.0000 0.92281  0.11695  0.22831  Biso   1.000  C
  H1254    1.0000 0.93280  0.13430  0.23800  Biso   1.000  H
  H1255    1.0000 0.80300  0.08860  0.33360  Biso   1.000  H
  H1256    1.0000 0.81340  0.10120  0.29990  Biso   1.000  H
  H1257    1.0000 0.83610  0.07840  0.31910  Biso   1.000  H
  H1258    1.0000 0.84300  0.07910  0.31250  Biso   1.000  H
  H1259    1.0000 0.84620  0.06900  0.33020  Biso   1.000  H
  H1260    1.0000 0.80900  0.09010  0.32360  Biso   1.000  H
  O361     1.0000 0.46784  0.38792  0.84274  Biso   1.000  O
  O362     1.0000 0.46799  0.35100  0.80540  Biso   1.000  O
  C541     1.0000 0.45865  0.37578  0.81803  Biso   1.000  C
  C542     1.0000 0.43244  0.39256  0.80092  Biso   1.000  C
  C543     1.0000 0.42281  0.38305  0.77169  Biso   1.000  C
  H1261    1.0000 0.43280  0.36570  0.76200  Biso   1.000  H
  H1262    1.0000 0.30300  0.41140  0.66640  Biso   1.000  H
  H1263    1.0000 0.31340  0.39880  0.70010  Biso   1.000  H
  H1264    1.0000 0.33610  0.42160  0.68090  Biso   1.000  H
  H1265    1.0000 0.34300  0.42090  0.68750  Biso   1.000  H
  H1266    1.0000 0.34620  0.43100  0.66980  Biso   1.000  H
  H1267    1.0000 0.30900  0.40990  0.67640  Biso   1.000  H
  O363     1.0000 0.46784  0.88792  0.34274  Biso   1.000  O
  O364     1.0000 0.46799  0.85100  0.30540  Biso   1.000  O
  C544     1.0000 0.45865  0.87578  0.31803  Biso   1.000  C
  C545     1.0000 0.43244  0.89256  0.30092  Biso   1.000  C
  C546     1.0000 0.42281  0.88305  0.27169  Biso   1.000  C
  H1268    1.0000 0.43280  0.86570  0.26200  Biso   1.000  H
  H1269    1.0000 0.30300  0.91140  0.16640  Biso   1.000  H
  H1270    1.0000 0.31340  0.89880  0.20010  Biso   1.000  H
  H1271    1.0000 0.33610  0.92160  0.18090  Biso   1.000  H
  H1272    1.0000 0.34300  0.92090  0.18750  Biso   1.000  H
  H1273    1.0000 0.34620  0.93100  0.16980  Biso   1.000  H
  H1274    1.0000 0.30900  0.90990  0.17640  Biso   1.000  H
  O365     1.0000 0.96784  0.38792  0.34274  Biso   1.000  O
  O366     1.0000 0.96799  0.35100  0.30540  Biso   1.000  O
  C547     1.0000 0.95865  0.37578  0.31803  Biso   1.000  C
  C548     1.0000 0.93244  0.39256  0.30092  Biso   1.000  C
  C549     1.0000 0.92281  0.38305  0.27169  Biso   1.000  C
  H1275    1.0000 0.93280  0.36570  0.26200  Biso   1.000  H
  H1276    1.0000 0.80300  0.41140  0.16640  Biso   1.000  H
  H1277    1.0000 0.81340  0.39880  0.20010  Biso   1.000  H
  H1278    1.0000 0.83610  0.42160  0.18090  Biso   1.000  H
  H1279    1.0000 0.84300  0.42090  0.18750  Biso   1.000  H
  H1280    1.0000 0.84620  0.43100  0.16980  Biso   1.000  H
  H1281    1.0000 0.80900  0.40990  0.17640  Biso   1.000  H
  O367     1.0000 0.96784  0.88792  0.84274  Biso   1.000  O
  O368     1.0000 0.96799  0.85100  0.80540  Biso   1.000  O
  C550     1.0000 0.95865  0.87578  0.81803  Biso   1.000  C
  C551     1.0000 0.93244  0.89256  0.80092  Biso   1.000  C
  C552     1.0000 0.92281  0.88305  0.77169  Biso   1.000  C
  H1282    1.0000 0.93280  0.86570  0.76200  Biso   1.000  H
  H1283    1.0000 0.80300  0.91140  0.66640  Biso   1.000  H
  H1284    1.0000 0.81340  0.89880  0.70010  Biso   1.000  H
  H1285    1.0000 0.83610  0.92160  0.68090  Biso   1.000  H
  H1286    1.0000 0.84300  0.92090  0.68750  Biso   1.000  H
  H1287    1.0000 0.84620  0.93100  0.66980  Biso   1.000  H
  H1288    1.0000 0.80900  0.90990  0.67640  Biso   1.000  H
  O369     1.0000 0.53216  0.61208  0.84274  Biso   1.000  O
  O370     1.0000 0.53201  0.64900  0.80540  Biso   1.000  O
  C553     1.0000 0.54135  0.62422  0.81803  Biso   1.000  C
  C554     1.0000 0.56756  0.60744  0.80092  Biso   1.000  C
  C555     1.0000 0.57719  0.61695  0.77169  Biso   1.000  C
  H1289    1.0000 0.56720  0.63430  0.76200  Biso   1.000  H
  H1290    1.0000 0.69700  0.58860  0.66640  Biso   1.000  H
  H1291    1.0000 0.68660  0.60120  0.70010  Biso   1.000  H
  H1292    1.0000 0.66390  0.57840  0.68090  Biso   1.000  H
  H1293    1.0000 0.65700  0.57910  0.68750  Biso   1.000  H
  H1294    1.0000 0.65380  0.56900  0.66980  Biso   1.000  H
  H1295    1.0000 0.69100  0.59010  0.67640  Biso   1.000  H
  O371     1.0000 0.53216  0.11208  0.34274  Biso   1.000  O
  O372     1.0000 0.53201  0.14900  0.30540  Biso   1.000  O
  C556     1.0000 0.54135  0.12422  0.31803  Biso   1.000  C
  C557     1.0000 0.56756  0.10744  0.30092  Biso   1.000  C
  C558     1.0000 0.57719  0.11695  0.27169  Biso   1.000  C
  H1296    1.0000 0.56720  0.13430  0.26200  Biso   1.000  H
  H1297    1.0000 0.69700  0.08860  0.16640  Biso   1.000  H
  H1298    1.0000 0.68660  0.10120  0.20010  Biso   1.000  H
  H1299    1.0000 0.66390  0.07840  0.18090  Biso   1.000  H
  H1300    1.0000 0.65700  0.07910  0.18750  Biso   1.000  H
  H1301    1.0000 0.65380  0.06900  0.16980  Biso   1.000  H
  H1302    1.0000 0.69100  0.09010  0.17640  Biso   1.000  H
  O373     1.0000 0.03216  0.61208  0.34274  Biso   1.000  O
  O374     1.0000 0.03201  0.64900  0.30540  Biso   1.000  O
  C559     1.0000 0.04135  0.62422  0.31803  Biso   1.000  C
  C560     1.0000 0.06756  0.60744  0.30092  Biso   1.000  C
  C561     1.0000 0.07719  0.61695  0.27169  Biso   1.000  C
  H1303    1.0000 0.06720  0.63430  0.26200  Biso   1.000  H
  H1304    1.0000 0.19700  0.58860  0.16640  Biso   1.000  H
  H1305    1.0000 0.18660  0.60120  0.20010  Biso   1.000  H
  H1306    1.0000 0.16390  0.57840  0.18090  Biso   1.000  H
  H1307    1.0000 0.15700  0.57910  0.18750  Biso   1.000  H
  H1308    1.0000 0.15380  0.56900  0.16980  Biso   1.000  H
  H1309    1.0000 0.19100  0.59010  0.17640  Biso   1.000  H
  O375     1.0000 0.03216  0.11208  0.84274  Biso   1.000  O
  O376     1.0000 0.03201  0.14900  0.80540  Biso   1.000  O
  C562     1.0000 0.04135  0.12422  0.81803  Biso   1.000  C
  C563     1.0000 0.06756  0.10744  0.80092  Biso   1.000  C
  C564     1.0000 0.07719  0.11695  0.77169  Biso   1.000  C
  H1310    1.0000 0.06720  0.13430  0.76200  Biso   1.000  H
  H1311    1.0000 0.19700  0.08860  0.66640  Biso   1.000  H
  H1312    1.0000 0.18660  0.10120  0.70010  Biso   1.000  H
  H1313    1.0000 0.16390  0.07840  0.68090  Biso   1.000  H
  H1314    1.0000 0.15700  0.07910  0.68750  Biso   1.000  H
  H1315    1.0000 0.15380  0.06900  0.66980  Biso   1.000  H
  H1316    1.0000 0.19100  0.09010  0.67640  Biso   1.000  H
  O377     1.0000 0.53216  0.38792  0.15726  Biso   1.000  O
  O378     1.0000 0.53201  0.35100  0.19460  Biso   1.000  O
  C565     1.0000 0.54135  0.37578  0.18197  Biso   1.000  C
  C566     1.0000 0.56756  0.39256  0.19908  Biso   1.000  C
  C567     1.0000 0.57719  0.38305  0.22831  Biso   1.000  C
  H1317    1.0000 0.56720  0.36570  0.23800  Biso   1.000  H
  H1318    1.0000 0.69700  0.41140  0.33360  Biso   1.000  H
  H1319    1.0000 0.68660  0.39880  0.29990  Biso   1.000  H
  H1320    1.0000 0.66390  0.42160  0.31910  Biso   1.000  H
  H1321    1.0000 0.65700  0.42090  0.31250  Biso   1.000  H
  H1322    1.0000 0.65380  0.43100  0.33020  Biso   1.000  H
  H1323    1.0000 0.69100  0.40990  0.32360  Biso   1.000  H
  O379     1.0000 0.53216  0.88792  0.65726  Biso   1.000  O
  O380     1.0000 0.53201  0.85100  0.69460  Biso   1.000  O
  C568     1.0000 0.54135  0.87578  0.68197  Biso   1.000  C
  C569     1.0000 0.56756  0.89256  0.69908  Biso   1.000  C
  C570     1.0000 0.57719  0.88305  0.72831  Biso   1.000  C
  H1324    1.0000 0.56720  0.86570  0.73800  Biso   1.000  H
  H1325    1.0000 0.69700  0.91140  0.83360  Biso   1.000  H
  H1326    1.0000 0.68660  0.89880  0.79990  Biso   1.000  H
  H1327    1.0000 0.66390  0.92160  0.81910  Biso   1.000  H
  H1328    1.0000 0.65700  0.92090  0.81250  Biso   1.000  H
  H1329    1.0000 0.65380  0.93100  0.83020  Biso   1.000  H
  H1330    1.0000 0.69100  0.90990  0.82360  Biso   1.000  H
  O381     1.0000 0.03216  0.38792  0.65726  Biso   1.000  O
  O382     1.0000 0.03201  0.35100  0.69460  Biso   1.000  O
  C571     1.0000 0.04135  0.37578  0.68197  Biso   1.000  C
  C572     1.0000 0.06756  0.39256  0.69908  Biso   1.000  C
  C573     1.0000 0.07719  0.38305  0.72831  Biso   1.000  C
  H1331    1.0000 0.06720  0.36570  0.73800  Biso   1.000  H
  H1332    1.0000 0.19700  0.41140  0.83360  Biso   1.000  H
  H1333    1.0000 0.18660  0.39880  0.79990  Biso   1.000  H
  H1334    1.0000 0.16390  0.42160  0.81910  Biso   1.000  H
  H1335    1.0000 0.15700  0.42090  0.81250  Biso   1.000  H
  H1336    1.0000 0.15380  0.43100  0.83020  Biso   1.000  H
  H1337    1.0000 0.19100  0.40990  0.82360  Biso   1.000  H
  O383     1.0000 0.03216  0.88792  0.15726  Biso   1.000  O
  O384     1.0000 0.03201  0.85100  0.19460  Biso   1.000  O
  C574     1.0000 0.04135  0.87578  0.18197  Biso   1.000  C
  C575     1.0000 0.06756  0.89256  0.19908  Biso   1.000  C
  C576     1.0000 0.07719  0.88305  0.22831  Biso   1.000  C
  H1338    1.0000 0.06720  0.86570  0.23800  Biso   1.000  H
  H1339    1.0000 0.19700  0.91140  0.33360  Biso   1.000  H
  H1340    1.0000 0.18660  0.89880  0.29990  Biso   1.000  H
  H1341    1.0000 0.16390  0.92160  0.31910  Biso   1.000  H
  H1342    1.0000 0.15700  0.92090  0.31250  Biso   1.000  H
  H1343    1.0000 0.15380  0.93100  0.33020  Biso   1.000  H
  H1344    1.0000 0.19100  0.90990  0.32360  Biso   1.000  H
  Cu1      1.0000 0.13127  0.36873  0.50000  Biso   1.000  Cu
  Cu2      1.0000 0.17545  0.32455  0.50000  Biso   1.000  Cu
  Cu3      1.0000 0.13127  0.86873  0.00000  Biso   1.000  Cu
  Cu4      1.0000 0.17545  0.82455  0.00000  Biso   1.000  Cu
  Cu5      1.0000 0.86873  0.63127  0.50000  Biso   1.000  Cu
  Cu6      1.0000 0.82455  0.67545  0.50000  Biso   1.000  Cu
  Cu7      1.0000 0.86873  0.13127  0.00000  Biso   1.000  Cu
  Cu8      1.0000 0.82455  0.17545  0.00000  Biso   1.000  Cu
  Cu9      1.0000 0.86873  0.36873  0.50000  Biso   1.000  Cu
  Cu10     1.0000 0.82455  0.32455  0.50000  Biso   1.000  Cu
  Cu11     1.0000 0.86873  0.86873  0.00000  Biso   1.000  Cu
  Cu12     1.0000 0.82455  0.82455  0.00000  Biso   1.000  Cu
  Cu13     1.0000 0.13127  0.63127  0.50000  Biso   1.000  Cu
  Cu14     1.0000 0.17545  0.67545  0.50000  Biso   1.000  Cu
  Cu15     1.0000 0.13127  0.13127  0.00000  Biso   1.000  Cu
  Cu16     1.0000 0.17545  0.17545  0.00000  Biso   1.000  Cu
  Cu17     1.0000 0.50000  0.13127  0.36873  Biso   1.000  Cu
  Cu18     1.0000 0.50000  0.17545  0.32455  Biso   1.000  Cu
  Cu19     1.0000 0.00000  0.13127  0.86873  Biso   1.000  Cu
  Cu20     1.0000 0.00000  0.17545  0.82455  Biso   1.000  Cu
  Cu21     1.0000 0.50000  0.86873  0.63127  Biso   1.000  Cu
  Cu22     1.0000 0.50000  0.82455  0.67545  Biso   1.000  Cu
  Cu23     1.0000 0.00000  0.86873  0.13127  Biso   1.000  Cu
  Cu24     1.0000 0.00000  0.82455  0.17545  Biso   1.000  Cu
  Cu25     1.0000 0.50000  0.86873  0.36873  Biso   1.000  Cu
  Cu26     1.0000 0.50000  0.82455  0.32455  Biso   1.000  Cu
  Cu27     1.0000 0.00000  0.86873  0.86873  Biso   1.000  Cu
  Cu28     1.0000 0.00000  0.82455  0.82455  Biso   1.000  Cu
  Cu29     1.0000 0.50000  0.13127  0.63127  Biso   1.000  Cu
  Cu30     1.0000 0.50000  0.17545  0.67545  Biso   1.000  Cu
  Cu31     1.0000 0.00000  0.13127  0.13127  Biso   1.000  Cu
  Cu32     1.0000 0.00000  0.17545  0.17545  Biso   1.000  Cu
  Cu33     1.0000 0.36873  0.50000  0.13127  Biso   1.000  Cu
  Cu34     1.0000 0.32455  0.50000  0.17545  Biso   1.000  Cu
  Cu35     1.0000 0.36873  0.00000  0.63127  Biso   1.000  Cu
  Cu36     1.0000 0.32455  0.00000  0.67545  Biso   1.000  Cu
  Cu37     1.0000 0.63127  0.50000  0.86873  Biso   1.000  Cu
  Cu38     1.0000 0.67545  0.50000  0.82455  Biso   1.000  Cu
  Cu39     1.0000 0.63127  0.00000  0.36873  Biso   1.000  Cu
  Cu40     1.0000 0.67545  0.00000  0.32455  Biso   1.000  Cu
  Cu41     1.0000 0.36873  0.50000  0.86873  Biso   1.000  Cu
  Cu42     1.0000 0.32455  0.50000  0.82455  Biso   1.000  Cu
  Cu43     1.0000 0.36873  0.00000  0.36873  Biso   1.000  Cu
  Cu44     1.0000 0.32455  0.00000  0.32455  Biso   1.000  Cu
  Cu45     1.0000 0.63127  0.50000  0.13127  Biso   1.000  Cu
  Cu46     1.0000 0.67545  0.50000  0.17545  Biso   1.000  Cu
  Cu47     1.0000 0.63127  0.00000  0.63127  Biso   1.000  Cu
  Cu48     1.0000 0.67545  0.00000  0.67545  Biso   1.000  Cu
  Cu49     1.0000 0.36873  0.13127  0.50000  Biso   1.000  Cu
  Cu50     1.0000 0.32455  0.17545  0.50000  Biso   1.000  Cu
  Cu51     1.0000 0.36873  0.63127  0.00000  Biso   1.000  Cu
  Cu52     1.0000 0.32455  0.67545  0.00000  Biso   1.000  Cu
  Cu53     1.0000 0.63127  0.86873  0.50000  Biso   1.000  Cu
  Cu54     1.0000 0.67545  0.82455  0.50000  Biso   1.000  Cu
  Cu55     1.0000 0.63127  0.36873  0.00000  Biso   1.000  Cu
  Cu56     1.0000 0.67545  0.32455  0.00000  Biso   1.000  Cu
  Cu57     1.0000 0.36873  0.86873  0.50000  Biso   1.000  Cu
  Cu58     1.0000 0.32455  0.82455  0.50000  Biso   1.000  Cu
  Cu59     1.0000 0.36873  0.36873  0.00000  Biso   1.000  Cu
  Cu60     1.0000 0.32455  0.32455  0.00000  Biso   1.000  Cu
  Cu61     1.0000 0.63127  0.13127  0.50000  Biso   1.000  Cu
  Cu62     1.0000 0.67545  0.17545  0.50000  Biso   1.000  Cu
  Cu63     1.0000 0.63127  0.63127  0.00000  Biso   1.000  Cu
  Cu64     1.0000 0.67545  0.67545  0.00000  Biso   1.000  Cu
  Cu65     1.0000 0.13127  0.50000  0.63127  Biso   1.000  Cu
  Cu66     1.0000 0.17545  0.50000  0.67545  Biso   1.000  Cu
  Cu67     1.0000 0.13127  0.00000  0.13127  Biso   1.000  Cu
  Cu68     1.0000 0.17545  0.00000  0.17545  Biso   1.000  Cu
  Cu69     1.0000 0.86873  0.50000  0.36873  Biso   1.000  Cu
  Cu70     1.0000 0.82455  0.50000  0.32455  Biso   1.000  Cu
  Cu71     1.0000 0.86873  0.00000  0.86873  Biso   1.000  Cu
  Cu72     1.0000 0.82455  0.00000  0.82455  Biso   1.000  Cu
  Cu73     1.0000 0.86873  0.50000  0.63127  Biso   1.000  Cu
  Cu74     1.0000 0.82455  0.50000  0.67545  Biso   1.000  Cu
  Cu75     1.0000 0.86873  0.00000  0.13127  Biso   1.000  Cu
  Cu76     1.0000 0.82455  0.00000  0.17545  Biso   1.000  Cu
  Cu77     1.0000 0.13127  0.50000  0.36873  Biso   1.000  Cu
  Cu78     1.0000 0.17545  0.50000  0.32455  Biso   1.000  Cu
  Cu79     1.0000 0.13127  0.00000  0.86873  Biso   1.000  Cu
  Cu80     1.0000 0.17545  0.00000  0.82455  Biso   1.000  Cu
  Cu81     1.0000 0.50000  0.36873  0.86873  Biso   1.000  Cu
  Cu82     1.0000 0.50000  0.32455  0.82455  Biso   1.000  Cu
  Cu83     1.0000 0.00000  0.36873  0.36873  Biso   1.000  Cu
  Cu84     1.0000 0.00000  0.32455  0.32455  Biso   1.000  Cu
  Cu85     1.0000 0.50000  0.63127  0.13127  Biso   1.000  Cu
  Cu86     1.0000 0.50000  0.67545  0.17545  Biso   1.000  Cu
  Cu87     1.0000 0.00000  0.63127  0.63127  Biso   1.000  Cu
  Cu88     1.0000 0.00000  0.67545  0.67545  Biso   1.000  Cu
  Cu89     1.0000 0.50000  0.36873  0.13127  Biso   1.000  Cu
  Cu90     1.0000 0.50000  0.32455  0.17545  Biso   1.000  Cu
  Cu91     1.0000 0.00000  0.36873  0.63127  Biso   1.000  Cu
  Cu92     1.0000 0.00000  0.32455  0.67545  Biso   1.000  Cu
  Cu93     1.0000 0.50000  0.63127  0.86873  Biso   1.000  Cu
  Cu94     1.0000 0.50000  0.67545  0.82455  Biso   1.000  Cu
  Cu95     1.0000 0.00000  0.63127  0.36873  Biso   1.000  Cu
  Cu96     1.0000 0.00000  0.67545  0.32455  Biso   1.000  Cu
  C577     1.0000 0.18445  0.41807  0.58193  Biso   1.000  C
  H1345    1.0000 0.16490  0.42550  0.57450  Biso   1.000  H
  C578     1.0000 0.24391  0.39851  0.60149  Biso   1.000  C
  C579     1.0000 0.27090  0.38430  0.61570  Biso   1.000  C
  C580     1.0000 0.29350  0.37430  0.62570  Biso   1.000  C
  C581     1.0000 0.32280  0.36190  0.63810  Biso   1.000  C
  C582     1.0000 0.27690  0.39310  0.60690  Biso   1.000  C
  C583     1.0000 0.30190  0.38300  0.61700  Biso   1.000  C
  C584     1.0000 0.33120  0.37060  0.62940  Biso   1.000  C
  C585     1.0000 0.18445  0.91807  0.08193  Biso   1.000  C
  H1346    1.0000 0.16490  0.92550  0.07450  Biso   1.000  H
  C586     1.0000 0.24391  0.89851  0.10149  Biso   1.000  C
  C587     1.0000 0.27090  0.88430  0.11570  Biso   1.000  C
  C588     1.0000 0.29350  0.87430  0.12570  Biso   1.000  C
  C589     1.0000 0.32280  0.86190  0.13810  Biso   1.000  C
  C590     1.0000 0.27690  0.89310  0.10690  Biso   1.000  C
  C591     1.0000 0.30190  0.88300  0.11700  Biso   1.000  C
  C592     1.0000 0.33120  0.87060  0.12940  Biso   1.000  C
  C593     1.0000 0.68445  0.41807  0.08193  Biso   1.000  C
  H1347    1.0000 0.66490  0.42550  0.07450  Biso   1.000  H
  C594     1.0000 0.74391  0.39851  0.10149  Biso   1.000  C
  C595     1.0000 0.77090  0.38430  0.11570  Biso   1.000  C
  C596     1.0000 0.79350  0.37430  0.12570  Biso   1.000  C
  C597     1.0000 0.82280  0.36190  0.13810  Biso   1.000  C
  C598     1.0000 0.77690  0.39310  0.10690  Biso   1.000  C
  C599     1.0000 0.80190  0.38300  0.11700  Biso   1.000  C
  C600     1.0000 0.83120  0.37060  0.12940  Biso   1.000  C
  C601     1.0000 0.68445  0.91807  0.58193  Biso   1.000  C
  H1348    1.0000 0.66490  0.92550  0.57450  Biso   1.000  H
  C602     1.0000 0.74391  0.89851  0.60149  Biso   1.000  C
  C603     1.0000 0.77090  0.88430  0.61570  Biso   1.000  C
  C604     1.0000 0.79350  0.87430  0.62570  Biso   1.000  C
  C605     1.0000 0.82280  0.86190  0.63810  Biso   1.000  C
  C606     1.0000 0.77690  0.89310  0.60690  Biso   1.000  C
  C607     1.0000 0.80190  0.88300  0.61700  Biso   1.000  C
  C608     1.0000 0.83120  0.87060  0.62940  Biso   1.000  C
  C609     1.0000 0.81555  0.58193  0.58193  Biso   1.000  C
  H1349    1.0000 0.83510  0.57450  0.57450  Biso   1.000  H
  C610     1.0000 0.75609  0.60149  0.60149  Biso   1.000  C
  C611     1.0000 0.72910  0.61570  0.61570  Biso   1.000  C
  C612     1.0000 0.70650  0.62570  0.62570  Biso   1.000  C
  C613     1.0000 0.67720  0.63810  0.63810  Biso   1.000  C
  C614     1.0000 0.72310  0.60690  0.60690  Biso   1.000  C
  C615     1.0000 0.69810  0.61700  0.61700  Biso   1.000  C
  C616     1.0000 0.66880  0.62940  0.62940  Biso   1.000  C
  C617     1.0000 0.81555  0.08193  0.08193  Biso   1.000  C
  H1350    1.0000 0.83510  0.07450  0.07450  Biso   1.000  H
  C618     1.0000 0.75609  0.10149  0.10149  Biso   1.000  C
  C619     1.0000 0.72910  0.11570  0.11570  Biso   1.000  C
  C620     1.0000 0.70650  0.12570  0.12570  Biso   1.000  C
  C621     1.0000 0.67720  0.13810  0.13810  Biso   1.000  C
  C622     1.0000 0.72310  0.10690  0.10690  Biso   1.000  C
  C623     1.0000 0.69810  0.11700  0.11700  Biso   1.000  C
  C624     1.0000 0.66880  0.12940  0.12940  Biso   1.000  C
  C625     1.0000 0.31555  0.58193  0.08193  Biso   1.000  C
  H1351    1.0000 0.33510  0.57450  0.07450  Biso   1.000  H
  C626     1.0000 0.25609  0.60149  0.10149  Biso   1.000  C
  C627     1.0000 0.22910  0.61570  0.11570  Biso   1.000  C
  C628     1.0000 0.20650  0.62570  0.12570  Biso   1.000  C
  C629     1.0000 0.17720  0.63810  0.13810  Biso   1.000  C
  C630     1.0000 0.22310  0.60690  0.10690  Biso   1.000  C
  C631     1.0000 0.19810  0.61700  0.11700  Biso   1.000  C
  C632     1.0000 0.16880  0.62940  0.12940  Biso   1.000  C
  C633     1.0000 0.31555  0.08193  0.58193  Biso   1.000  C
  H1352    1.0000 0.33510  0.07450  0.57450  Biso   1.000  H
  C634     1.0000 0.25609  0.10149  0.60149  Biso   1.000  C
  C635     1.0000 0.22910  0.11570  0.61570  Biso   1.000  C
  C636     1.0000 0.20650  0.12570  0.62570  Biso   1.000  C
  C637     1.0000 0.17720  0.13810  0.63810  Biso   1.000  C
  C638     1.0000 0.22310  0.10690  0.60690  Biso   1.000  C
  C639     1.0000 0.19810  0.11700  0.61700  Biso   1.000  C
  C640     1.0000 0.16880  0.12940  0.62940  Biso   1.000  C
  C641     1.0000 0.81555  0.41807  0.41807  Biso   1.000  C
  H1353    1.0000 0.83510  0.42550  0.42550  Biso   1.000  H
  C642     1.0000 0.75609  0.39851  0.39851  Biso   1.000  C
  C643     1.0000 0.72910  0.38430  0.38430  Biso   1.000  C
  C644     1.0000 0.70650  0.37430  0.37430  Biso   1.000  C
  C645     1.0000 0.67720  0.36190  0.36190  Biso   1.000  C
  C646     1.0000 0.72310  0.39310  0.39310  Biso   1.000  C
  C647     1.0000 0.69810  0.38300  0.38300  Biso   1.000  C
  C648     1.0000 0.66880  0.37060  0.37060  Biso   1.000  C
  C649     1.0000 0.81555  0.91807  0.91807  Biso   1.000  C
  H1354    1.0000 0.83510  0.92550  0.92550  Biso   1.000  H
  C650     1.0000 0.75609  0.89851  0.89851  Biso   1.000  C
  C651     1.0000 0.72910  0.88430  0.88430  Biso   1.000  C
  C652     1.0000 0.70650  0.87430  0.87430  Biso   1.000  C
  C653     1.0000 0.67720  0.86190  0.86190  Biso   1.000  C
  C654     1.0000 0.72310  0.89310  0.89310  Biso   1.000  C
  C655     1.0000 0.69810  0.88300  0.88300  Biso   1.000  C
  C656     1.0000 0.66880  0.87060  0.87060  Biso   1.000  C
  C657     1.0000 0.31555  0.41807  0.91807  Biso   1.000  C
  H1355    1.0000 0.33510  0.42550  0.92550  Biso   1.000  H
  C658     1.0000 0.25609  0.39851  0.89851  Biso   1.000  C
  C659     1.0000 0.22910  0.38430  0.88430  Biso   1.000  C
  C660     1.0000 0.20650  0.37430  0.87430  Biso   1.000  C
  C661     1.0000 0.17720  0.36190  0.86190  Biso   1.000  C
  C662     1.0000 0.22310  0.39310  0.89310  Biso   1.000  C
  C663     1.0000 0.19810  0.38300  0.88300  Biso   1.000  C
  C664     1.0000 0.16880  0.37060  0.87060  Biso   1.000  C
  C665     1.0000 0.31555  0.91807  0.41807  Biso   1.000  C
  H1356    1.0000 0.33510  0.92550  0.42550  Biso   1.000  H
  C666     1.0000 0.25609  0.89851  0.39851  Biso   1.000  C
  C667     1.0000 0.22910  0.88430  0.38430  Biso   1.000  C
  C668     1.0000 0.20650  0.87430  0.37430  Biso   1.000  C
  C669     1.0000 0.17720  0.86190  0.36190  Biso   1.000  C
  C670     1.0000 0.22310  0.89310  0.39310  Biso   1.000  C
  C671     1.0000 0.19810  0.88300  0.38300  Biso   1.000  C
  C672     1.0000 0.16880  0.87060  0.37060  Biso   1.000  C
  C673     1.0000 0.18445  0.58193  0.41807  Biso   1.000  C
  H1357    1.0000 0.16490  0.57450  0.42550  Biso   1.000  H
  C674     1.0000 0.24391  0.60149  0.39851  Biso   1.000  C
  C675     1.0000 0.27090  0.61570  0.38430  Biso   1.000  C
  C676     1.0000 0.29350  0.62570  0.37430  Biso   1.000  C
  C677     1.0000 0.32280  0.63810  0.36190  Biso   1.000  C
  C678     1.0000 0.27690  0.60690  0.39310  Biso   1.000  C
  C679     1.0000 0.30190  0.61700  0.38300  Biso   1.000  C
  C680     1.0000 0.33120  0.62940  0.37060  Biso   1.000  C
  C681     1.0000 0.18445  0.08193  0.91807  Biso   1.000  C
  H1358    1.0000 0.16490  0.07450  0.92550  Biso   1.000  H
  C682     1.0000 0.24391  0.10149  0.89851  Biso   1.000  C
  C683     1.0000 0.27090  0.11570  0.88430  Biso   1.000  C
  C684     1.0000 0.29350  0.12570  0.87430  Biso   1.000  C
  C685     1.0000 0.32280  0.13810  0.86190  Biso   1.000  C
  C686     1.0000 0.27690  0.10690  0.89310  Biso   1.000  C
  C687     1.0000 0.30190  0.11700  0.88300  Biso   1.000  C
  C688     1.0000 0.33120  0.12940  0.87060  Biso   1.000  C
  C689     1.0000 0.68445  0.58193  0.91807  Biso   1.000  C
  H1359    1.0000 0.66490  0.57450  0.92550  Biso   1.000  H
  C690     1.0000 0.74391  0.60149  0.89851  Biso   1.000  C
  C691     1.0000 0.77090  0.61570  0.88430  Biso   1.000  C
  C692     1.0000 0.79350  0.62570  0.87430  Biso   1.000  C
  C693     1.0000 0.82280  0.63810  0.86190  Biso   1.000  C
  C694     1.0000 0.77690  0.60690  0.89310  Biso   1.000  C
  C695     1.0000 0.80190  0.61700  0.88300  Biso   1.000  C
  C696     1.0000 0.83120  0.62940  0.87060  Biso   1.000  C
  C697     1.0000 0.68445  0.08193  0.41807  Biso   1.000  C
  H1360    1.0000 0.66490  0.07450  0.42550  Biso   1.000  H
  C698     1.0000 0.74391  0.10149  0.39851  Biso   1.000  C
  C699     1.0000 0.77090  0.11570  0.38430  Biso   1.000  C
  C700     1.0000 0.79350  0.12570  0.37430  Biso   1.000  C
  C701     1.0000 0.82280  0.13810  0.36190  Biso   1.000  C
  C702     1.0000 0.77690  0.10690  0.39310  Biso   1.000  C
  C703     1.0000 0.80190  0.11700  0.38300  Biso   1.000  C
  C704     1.0000 0.83120  0.12940  0.37060  Biso   1.000  C
  C705     1.0000 0.58193  0.18445  0.41807  Biso   1.000  C
  H1361    1.0000 0.57450  0.16490  0.42550  Biso   1.000  H
  C706     1.0000 0.60149  0.24391  0.39851  Biso   1.000  C
  C707     1.0000 0.61570  0.27090  0.38430  Biso   1.000  C
  C708     1.0000 0.62570  0.29350  0.37430  Biso   1.000  C
  C709     1.0000 0.63810  0.32280  0.36190  Biso   1.000  C
  C710     1.0000 0.60690  0.27690  0.39310  Biso   1.000  C
  C711     1.0000 0.61700  0.30190  0.38300  Biso   1.000  C
  C712     1.0000 0.62940  0.33120  0.37060  Biso   1.000  C
  C713     1.0000 0.58193  0.68445  0.91807  Biso   1.000  C
  H1362    1.0000 0.57450  0.66490  0.92550  Biso   1.000  H
  C714     1.0000 0.60149  0.74391  0.89851  Biso   1.000  C
  C715     1.0000 0.61570  0.77090  0.88430  Biso   1.000  C
  C716     1.0000 0.62570  0.79350  0.87430  Biso   1.000  C
  C717     1.0000 0.63810  0.82280  0.86190  Biso   1.000  C
  C718     1.0000 0.60690  0.77690  0.89310  Biso   1.000  C
  C719     1.0000 0.61700  0.80190  0.88300  Biso   1.000  C
  C720     1.0000 0.62940  0.83120  0.87060  Biso   1.000  C
  C721     1.0000 0.08193  0.18445  0.91807  Biso   1.000  C
  H1363    1.0000 0.07450  0.16490  0.92550  Biso   1.000  H
  C722     1.0000 0.10149  0.24391  0.89851  Biso   1.000  C
  C723     1.0000 0.11570  0.27090  0.88430  Biso   1.000  C
  C724     1.0000 0.12570  0.29350  0.87430  Biso   1.000  C
  C725     1.0000 0.13810  0.32280  0.86190  Biso   1.000  C
  C726     1.0000 0.10690  0.27690  0.89310  Biso   1.000  C
  C727     1.0000 0.11700  0.30190  0.88300  Biso   1.000  C
  C728     1.0000 0.12940  0.33120  0.87060  Biso   1.000  C
  C729     1.0000 0.08193  0.68445  0.41807  Biso   1.000  C
  H1364    1.0000 0.07450  0.66490  0.42550  Biso   1.000  H
  C730     1.0000 0.10149  0.74391  0.39851  Biso   1.000  C
  C731     1.0000 0.11570  0.77090  0.38430  Biso   1.000  C
  C732     1.0000 0.12570  0.79350  0.37430  Biso   1.000  C
  C733     1.0000 0.13810  0.82280  0.36190  Biso   1.000  C
  C734     1.0000 0.10690  0.77690  0.39310  Biso   1.000  C
  C735     1.0000 0.11700  0.80190  0.38300  Biso   1.000  C
  C736     1.0000 0.12940  0.83120  0.37060  Biso   1.000  C
  C737     1.0000 0.58193  0.81555  0.58193  Biso   1.000  C
  H1365    1.0000 0.57450  0.83510  0.57450  Biso   1.000  H
  C738     1.0000 0.60149  0.75609  0.60149  Biso   1.000  C
  C739     1.0000 0.61570  0.72910  0.61570  Biso   1.000  C
  C740     1.0000 0.62570  0.70650  0.62570  Biso   1.000  C
  C741     1.0000 0.63810  0.67720  0.63810  Biso   1.000  C
  C742     1.0000 0.60690  0.72310  0.60690  Biso   1.000  C
  C743     1.0000 0.61700  0.69810  0.61700  Biso   1.000  C
  C744     1.0000 0.62940  0.66880  0.62940  Biso   1.000  C
  C745     1.0000 0.58193  0.31555  0.08193  Biso   1.000  C
  H1366    1.0000 0.57450  0.33510  0.07450  Biso   1.000  H
  C746     1.0000 0.60149  0.25609  0.10149  Biso   1.000  C
  C747     1.0000 0.61570  0.22910  0.11570  Biso   1.000  C
  C748     1.0000 0.62570  0.20650  0.12570  Biso   1.000  C
  C749     1.0000 0.63810  0.17720  0.13810  Biso   1.000  C
  C750     1.0000 0.60690  0.22310  0.10690  Biso   1.000  C
  C751     1.0000 0.61700  0.19810  0.11700  Biso   1.000  C
  C752     1.0000 0.62940  0.16880  0.12940  Biso   1.000  C
  C753     1.0000 0.08193  0.81555  0.08193  Biso   1.000  C
  H1367    1.0000 0.07450  0.83510  0.07450  Biso   1.000  H
  C754     1.0000 0.10149  0.75609  0.10149  Biso   1.000  C
  C755     1.0000 0.11570  0.72910  0.11570  Biso   1.000  C
  C756     1.0000 0.12570  0.70650  0.12570  Biso   1.000  C
  C757     1.0000 0.13810  0.67720  0.13810  Biso   1.000  C
  C758     1.0000 0.10690  0.72310  0.10690  Biso   1.000  C
  C759     1.0000 0.11700  0.69810  0.11700  Biso   1.000  C
  C760     1.0000 0.12940  0.66880  0.12940  Biso   1.000  C
  C761     1.0000 0.08193  0.31555  0.58193  Biso   1.000  C
  H1368    1.0000 0.07450  0.33510  0.57450  Biso   1.000  H
  C762     1.0000 0.10149  0.25609  0.60149  Biso   1.000  C
  C763     1.0000 0.11570  0.22910  0.61570  Biso   1.000  C
  C764     1.0000 0.12570  0.20650  0.62570  Biso   1.000  C
  C765     1.0000 0.13810  0.17720  0.63810  Biso   1.000  C
  C766     1.0000 0.10690  0.22310  0.60690  Biso   1.000  C
  C767     1.0000 0.11700  0.19810  0.61700  Biso   1.000  C
  C768     1.0000 0.12940  0.16880  0.62940  Biso   1.000  C
  C769     1.0000 0.41807  0.81555  0.41807  Biso   1.000  C
  H1369    1.0000 0.42550  0.83510  0.42550  Biso   1.000  H
  C770     1.0000 0.39851  0.75609  0.39851  Biso   1.000  C
  C771     1.0000 0.38430  0.72910  0.38430  Biso   1.000  C
  C772     1.0000 0.37430  0.70650  0.37430  Biso   1.000  C
  C773     1.0000 0.36190  0.67720  0.36190  Biso   1.000  C
  C774     1.0000 0.39310  0.72310  0.39310  Biso   1.000  C
  C775     1.0000 0.38300  0.69810  0.38300  Biso   1.000  C
  C776     1.0000 0.37060  0.66880  0.37060  Biso   1.000  C
  C777     1.0000 0.41807  0.31555  0.91807  Biso   1.000  C
  H1370    1.0000 0.42550  0.33510  0.92550  Biso   1.000  H
  C778     1.0000 0.39851  0.25609  0.89851  Biso   1.000  C
  C779     1.0000 0.38430  0.22910  0.88430  Biso   1.000  C
  C780     1.0000 0.37430  0.20650  0.87430  Biso   1.000  C
  C781     1.0000 0.36190  0.17720  0.86190  Biso   1.000  C
  C782     1.0000 0.39310  0.22310  0.89310  Biso   1.000  C
  C783     1.0000 0.38300  0.19810  0.88300  Biso   1.000  C
  C784     1.0000 0.37060  0.16880  0.87060  Biso   1.000  C
  C785     1.0000 0.91807  0.81555  0.91807  Biso   1.000  C
  H1371    1.0000 0.92550  0.83510  0.92550  Biso   1.000  H
  C786     1.0000 0.89851  0.75609  0.89851  Biso   1.000  C
  C787     1.0000 0.88430  0.72910  0.88430  Biso   1.000  C
  C788     1.0000 0.87430  0.70650  0.87430  Biso   1.000  C
  C789     1.0000 0.86190  0.67720  0.86190  Biso   1.000  C
  C790     1.0000 0.89310  0.72310  0.89310  Biso   1.000  C
  C791     1.0000 0.88300  0.69810  0.88300  Biso   1.000  C
  C792     1.0000 0.87060  0.66880  0.87060  Biso   1.000  C
  C793     1.0000 0.91807  0.31555  0.41807  Biso   1.000  C
  H1372    1.0000 0.92550  0.33510  0.42550  Biso   1.000  H
  C794     1.0000 0.89851  0.25609  0.39851  Biso   1.000  C
  C795     1.0000 0.88430  0.22910  0.38430  Biso   1.000  C
  C796     1.0000 0.87430  0.20650  0.37430  Biso   1.000  C
  C797     1.0000 0.86190  0.17720  0.36190  Biso   1.000  C
  C798     1.0000 0.89310  0.22310  0.39310  Biso   1.000  C
  C799     1.0000 0.88300  0.19810  0.38300  Biso   1.000  C
  C800     1.0000 0.87060  0.16880  0.37060  Biso   1.000  C
  C801     1.0000 0.41807  0.18445  0.58193  Biso   1.000  C
  H1373    1.0000 0.42550  0.16490  0.57450  Biso   1.000  H
  C802     1.0000 0.39851  0.24391  0.60149  Biso   1.000  C
  C803     1.0000 0.38430  0.27090  0.61570  Biso   1.000  C
  C804     1.0000 0.37430  0.29350  0.62570  Biso   1.000  C
  C805     1.0000 0.36190  0.32280  0.63810  Biso   1.000  C
  C806     1.0000 0.39310  0.27690  0.60690  Biso   1.000  C
  C807     1.0000 0.38300  0.30190  0.61700  Biso   1.000  C
  C808     1.0000 0.37060  0.33120  0.62940  Biso   1.000  C
  C809     1.0000 0.41807  0.68445  0.08193  Biso   1.000  C
  H1374    1.0000 0.42550  0.66490  0.07450  Biso   1.000  H
  C810     1.0000 0.39851  0.74391  0.10149  Biso   1.000  C
  C811     1.0000 0.38430  0.77090  0.11570  Biso   1.000  C
  C812     1.0000 0.37430  0.79350  0.12570  Biso   1.000  C
  C813     1.0000 0.36190  0.82280  0.13810  Biso   1.000  C
  C814     1.0000 0.39310  0.77690  0.10690  Biso   1.000  C
  C815     1.0000 0.38300  0.80190  0.11700  Biso   1.000  C
  C816     1.0000 0.37060  0.83120  0.12940  Biso   1.000  C
  C817     1.0000 0.91807  0.18445  0.08193  Biso   1.000  C
  H1375    1.0000 0.92550  0.16490  0.07450  Biso   1.000  H
  C818     1.0000 0.89851  0.24391  0.10149  Biso   1.000  C
  C819     1.0000 0.88430  0.27090  0.11570  Biso   1.000  C
  C820     1.0000 0.87430  0.29350  0.12570  Biso   1.000  C
  C821     1.0000 0.86190  0.32280  0.13810  Biso   1.000  C
  C822     1.0000 0.89310  0.27690  0.10690  Biso   1.000  C
  C823     1.0000 0.88300  0.30190  0.11700  Biso   1.000  C
  C824     1.0000 0.87060  0.33120  0.12940  Biso   1.000  C
  C825     1.0000 0.91807  0.68445  0.58193  Biso   1.000  C
  H1376    1.0000 0.92550  0.66490  0.57450  Biso   1.000  H
  C826     1.0000 0.89851  0.74391  0.60149  Biso   1.000  C
  C827     1.0000 0.88430  0.77090  0.61570  Biso   1.000  C
  C828     1.0000 0.87430  0.79350  0.62570  Biso   1.000  C
  C829     1.0000 0.86190  0.82280  0.63810  Biso   1.000  C
  C830     1.0000 0.89310  0.77690  0.60690  Biso   1.000  C
  C831     1.0000 0.88300  0.80190  0.61700  Biso   1.000  C
  C832     1.0000 0.87060  0.83120  0.62940  Biso   1.000  C
  C833     1.0000 0.41807  0.58193  0.18445  Biso   1.000  C
  H1377    1.0000 0.42550  0.57450  0.16490  Biso   1.000  H
  C834     1.0000 0.39851  0.60149  0.24391  Biso   1.000  C
  C835     1.0000 0.38430  0.61570  0.27090  Biso   1.000  C
  C836     1.0000 0.37430  0.62570  0.29350  Biso   1.000  C
  C837     1.0000 0.36190  0.63810  0.32280  Biso   1.000  C
  C838     1.0000 0.39310  0.60690  0.27690  Biso   1.000  C
  C839     1.0000 0.38300  0.61700  0.30190  Biso   1.000  C
  C840     1.0000 0.37060  0.62940  0.33120  Biso   1.000  C
  C841     1.0000 0.41807  0.08193  0.68445  Biso   1.000  C
  H1378    1.0000 0.42550  0.07450  0.66490  Biso   1.000  H
  C842     1.0000 0.39851  0.10149  0.74391  Biso   1.000  C
  C843     1.0000 0.38430  0.11570  0.77090  Biso   1.000  C
  C844     1.0000 0.37430  0.12570  0.79350  Biso   1.000  C
  C845     1.0000 0.36190  0.13810  0.82280  Biso   1.000  C
  C846     1.0000 0.39310  0.10690  0.77690  Biso   1.000  C
  C847     1.0000 0.38300  0.11700  0.80190  Biso   1.000  C
  C848     1.0000 0.37060  0.12940  0.83120  Biso   1.000  C
  C849     1.0000 0.91807  0.58193  0.68445  Biso   1.000  C
  H1379    1.0000 0.92550  0.57450  0.66490  Biso   1.000  H
  C850     1.0000 0.89851  0.60149  0.74391  Biso   1.000  C
  C851     1.0000 0.88430  0.61570  0.77090  Biso   1.000  C
  C852     1.0000 0.87430  0.62570  0.79350  Biso   1.000  C
  C853     1.0000 0.86190  0.63810  0.82280  Biso   1.000  C
  C854     1.0000 0.89310  0.60690  0.77690  Biso   1.000  C
  C855     1.0000 0.88300  0.61700  0.80190  Biso   1.000  C
  C856     1.0000 0.87060  0.62940  0.83120  Biso   1.000  C
  C857     1.0000 0.91807  0.08193  0.18445  Biso   1.000  C
  H1380    1.0000 0.92550  0.07450  0.16490  Biso   1.000  H
  C858     1.0000 0.89851  0.10149  0.24391  Biso   1.000  C
  C859     1.0000 0.88430  0.11570  0.27090  Biso   1.000  C
  C860     1.0000 0.87430  0.12570  0.29350  Biso   1.000  C
  C861     1.0000 0.86190  0.13810  0.32280  Biso   1.000  C
  C862     1.0000 0.89310  0.10690  0.27690  Biso   1.000  C
  C863     1.0000 0.88300  0.11700  0.30190  Biso   1.000  C
  C864     1.0000 0.87060  0.12940  0.33120  Biso   1.000  C
  C865     1.0000 0.58193  0.58193  0.81555  Biso   1.000  C
  H1381    1.0000 0.57450  0.57450  0.83510  Biso   1.000  H
  C866     1.0000 0.60149  0.60149  0.75609  Biso   1.000  C
  C867     1.0000 0.61570  0.61570  0.72910  Biso   1.000  C
  C868     1.0000 0.62570  0.62570  0.70650  Biso   1.000  C
  C869     1.0000 0.63810  0.63810  0.67720  Biso   1.000  C
  C870     1.0000 0.60690  0.60690  0.72310  Biso   1.000  C
  C871     1.0000 0.61700  0.61700  0.69810  Biso   1.000  C
  C872     1.0000 0.62940  0.62940  0.66880  Biso   1.000  C
  C873     1.0000 0.58193  0.08193  0.31555  Biso   1.000  C
  H1382    1.0000 0.57450  0.07450  0.33510  Biso   1.000  H
  C874     1.0000 0.60149  0.10149  0.25609  Biso   1.000  C
  C875     1.0000 0.61570  0.11570  0.22910  Biso   1.000  C
  C876     1.0000 0.62570  0.12570  0.20650  Biso   1.000  C
  C877     1.0000 0.63810  0.13810  0.17720  Biso   1.000  C
  C878     1.0000 0.60690  0.10690  0.22310  Biso   1.000  C
  C879     1.0000 0.61700  0.11700  0.19810  Biso   1.000  C
  C880     1.0000 0.62940  0.12940  0.16880  Biso   1.000  C
  C881     1.0000 0.08193  0.58193  0.31555  Biso   1.000  C
  H1383    1.0000 0.07450  0.57450  0.33510  Biso   1.000  H
  C882     1.0000 0.10149  0.60149  0.25609  Biso   1.000  C
  C883     1.0000 0.11570  0.61570  0.22910  Biso   1.000  C
  C884     1.0000 0.12570  0.62570  0.20650  Biso   1.000  C
  C885     1.0000 0.13810  0.63810  0.17720  Biso   1.000  C
  C886     1.0000 0.10690  0.60690  0.22310  Biso   1.000  C
  C887     1.0000 0.11700  0.61700  0.19810  Biso   1.000  C
  C888     1.0000 0.12940  0.62940  0.16880  Biso   1.000  C
  C889     1.0000 0.08193  0.08193  0.81555  Biso   1.000  C
  H1384    1.0000 0.07450  0.07450  0.83510  Biso   1.000  H
  C890     1.0000 0.10149  0.10149  0.75609  Biso   1.000  C
  C891     1.0000 0.11570  0.11570  0.72910  Biso   1.000  C
  C892     1.0000 0.12570  0.12570  0.70650  Biso   1.000  C
  C893     1.0000 0.13810  0.13810  0.67720  Biso   1.000  C
  C894     1.0000 0.10690  0.10690  0.72310  Biso   1.000  C
  C895     1.0000 0.11700  0.11700  0.69810  Biso   1.000  C
  C896     1.0000 0.12940  0.12940  0.66880  Biso   1.000  C
  C897     1.0000 0.41807  0.41807  0.81555  Biso   1.000  C
  H1385    1.0000 0.42550  0.42550  0.83510  Biso   1.000  H
  C898     1.0000 0.39851  0.39851  0.75609  Biso   1.000  C
  C899     1.0000 0.38430  0.38430  0.72910  Biso   1.000  C
  C900     1.0000 0.37430  0.37430  0.70650  Biso   1.000  C
  C901     1.0000 0.36190  0.36190  0.67720  Biso   1.000  C
  C902     1.0000 0.39310  0.39310  0.72310  Biso   1.000  C
  C903     1.0000 0.38300  0.38300  0.69810  Biso   1.000  C
  C904     1.0000 0.37060  0.37060  0.66880  Biso   1.000  C
  C905     1.0000 0.41807  0.91807  0.31555  Biso   1.000  C
  H1386    1.0000 0.42550  0.92550  0.33510  Biso   1.000  H
  C906     1.0000 0.39851  0.89851  0.25609  Biso   1.000  C
  C907     1.0000 0.38430  0.88430  0.22910  Biso   1.000  C
  C908     1.0000 0.37430  0.87430  0.20650  Biso   1.000  C
  C909     1.0000 0.36190  0.86190  0.17720  Biso   1.000  C
  C910     1.0000 0.39310  0.89310  0.22310  Biso   1.000  C
  C911     1.0000 0.38300  0.88300  0.19810  Biso   1.000  C
  C912     1.0000 0.37060  0.87060  0.16880  Biso   1.000  C
  C913     1.0000 0.91807  0.41807  0.31555  Biso   1.000  C
  H1387    1.0000 0.92550  0.42550  0.33510  Biso   1.000  H
  C914     1.0000 0.89851  0.39851  0.25609  Biso   1.000  C
  C915     1.0000 0.88430  0.38430  0.22910  Biso   1.000  C
  C916     1.0000 0.87430  0.37430  0.20650  Biso   1.000  C
  C917     1.0000 0.86190  0.36190  0.17720  Biso   1.000  C
  C918     1.0000 0.89310  0.39310  0.22310  Biso   1.000  C
  C919     1.0000 0.88300  0.38300  0.19810  Biso   1.000  C
  C920     1.0000 0.87060  0.37060  0.16880  Biso   1.000  C
  C921     1.0000 0.91807  0.91807  0.81555  Biso   1.000  C
  H1388    1.0000 0.92550  0.92550  0.83510  Biso   1.000  H
  C922     1.0000 0.89851  0.89851  0.75609  Biso   1.000  C
  C923     1.0000 0.88430  0.88430  0.72910  Biso   1.000  C
  C924     1.0000 0.87430  0.87430  0.70650  Biso   1.000  C
  C925     1.0000 0.86190  0.86190  0.67720  Biso   1.000  C
  C926     1.0000 0.89310  0.89310  0.72310  Biso   1.000  C
  C927     1.0000 0.88300  0.88300  0.69810  Biso   1.000  C
  C928     1.0000 0.87060  0.87060  0.66880  Biso   1.000  C
  C929     1.0000 0.58193  0.41807  0.18445  Biso   1.000  C
  H1389    1.0000 0.57450  0.42550  0.16490  Biso   1.000  H
  C930     1.0000 0.60149  0.39851  0.24391  Biso   1.000  C
  C931     1.0000 0.61570  0.38430  0.27090  Biso   1.000  C
  C932     1.0000 0.62570  0.37430  0.29350  Biso   1.000  C
  C933     1.0000 0.63810  0.36190  0.32280  Biso   1.000  C
  C934     1.0000 0.60690  0.39310  0.27690  Biso   1.000  C
  C935     1.0000 0.61700  0.38300  0.30190  Biso   1.000  C
  C936     1.0000 0.62940  0.37060  0.33120  Biso   1.000  C
  C937     1.0000 0.58193  0.91807  0.68445  Biso   1.000  C
  H1390    1.0000 0.57450  0.92550  0.66490  Biso   1.000  H
  C938     1.0000 0.60149  0.89851  0.74391  Biso   1.000  C
  C939     1.0000 0.61570  0.88430  0.77090  Biso   1.000  C
  C940     1.0000 0.62570  0.87430  0.79350  Biso   1.000  C
  C941     1.0000 0.63810  0.86190  0.82280  Biso   1.000  C
  C942     1.0000 0.60690  0.89310  0.77690  Biso   1.000  C
  C943     1.0000 0.61700  0.88300  0.80190  Biso   1.000  C
  C944     1.0000 0.62940  0.87060  0.83120  Biso   1.000  C
  C945     1.0000 0.08193  0.41807  0.68445  Biso   1.000  C
  H1391    1.0000 0.07450  0.42550  0.66490  Biso   1.000  H
  C946     1.0000 0.10149  0.39851  0.74391  Biso   1.000  C
  C947     1.0000 0.11570  0.38430  0.77090  Biso   1.000  C
  C948     1.0000 0.12570  0.37430  0.79350  Biso   1.000  C
  C949     1.0000 0.13810  0.36190  0.82280  Biso   1.000  C
  C950     1.0000 0.10690  0.39310  0.77690  Biso   1.000  C
  C951     1.0000 0.11700  0.38300  0.80190  Biso   1.000  C
  C952     1.0000 0.12940  0.37060  0.83120  Biso   1.000  C
  C953     1.0000 0.08193  0.91807  0.18445  Biso   1.000  C
  H1392    1.0000 0.07450  0.92550  0.16490  Biso   1.000  H
  C954     1.0000 0.10149  0.89851  0.24391  Biso   1.000  C
  C955     1.0000 0.11570  0.88430  0.27090  Biso   1.000  C
  C956     1.0000 0.12570  0.87430  0.29350  Biso   1.000  C
  C957     1.0000 0.13810  0.86190  0.32280  Biso   1.000  C
  C958     1.0000 0.10690  0.89310  0.27690  Biso   1.000  C
  C959     1.0000 0.11700  0.88300  0.30190  Biso   1.000  C
  C960     1.0000 0.12940  0.87060  0.33120  Biso   1.000  C
  C961     1.0000 0.41807  0.18445  0.41807  Biso   1.000  C
  H1393    1.0000 0.42550  0.16490  0.42550  Biso   1.000  H
  C962     1.0000 0.39851  0.24391  0.39851  Biso   1.000  C
  C963     1.0000 0.38430  0.27090  0.38430  Biso   1.000  C
  C964     1.0000 0.37430  0.29350  0.37430  Biso   1.000  C
  C965     1.0000 0.36190  0.32280  0.36190  Biso   1.000  C
  C966     1.0000 0.39310  0.27690  0.39310  Biso   1.000  C
  C967     1.0000 0.38300  0.30190  0.38300  Biso   1.000  C
  C968     1.0000 0.37060  0.33120  0.37060  Biso   1.000  C
  C969     1.0000 0.41807  0.68445  0.91807  Biso   1.000  C
  H1394    1.0000 0.42550  0.66490  0.92550  Biso   1.000  H
  C970     1.0000 0.39851  0.74391  0.89851  Biso   1.000  C
  C971     1.0000 0.38430  0.77090  0.88430  Biso   1.000  C
  C972     1.0000 0.37430  0.79350  0.87430  Biso   1.000  C
  C973     1.0000 0.36190  0.82280  0.86190  Biso   1.000  C
  C974     1.0000 0.39310  0.77690  0.89310  Biso   1.000  C
  C975     1.0000 0.38300  0.80190  0.88300  Biso   1.000  C
  C976     1.0000 0.37060  0.83120  0.87060  Biso   1.000  C
  C977     1.0000 0.91807  0.18445  0.91807  Biso   1.000  C
  H1395    1.0000 0.92550  0.16490  0.92550  Biso   1.000  H
  C978     1.0000 0.89851  0.24391  0.89851  Biso   1.000  C
  C979     1.0000 0.88430  0.27090  0.88430  Biso   1.000  C
  C980     1.0000 0.87430  0.29350  0.87430  Biso   1.000  C
  C981     1.0000 0.86190  0.32280  0.86190  Biso   1.000  C
  C982     1.0000 0.89310  0.27690  0.89310  Biso   1.000  C
  C983     1.0000 0.88300  0.30190  0.88300  Biso   1.000  C
  C984     1.0000 0.87060  0.33120  0.87060  Biso   1.000  C
  C985     1.0000 0.91807  0.68445  0.41807  Biso   1.000  C
  H1396    1.0000 0.92550  0.66490  0.42550  Biso   1.000  H
  C986     1.0000 0.89851  0.74391  0.39851  Biso   1.000  C
  C987     1.0000 0.88430  0.77090  0.38430  Biso   1.000  C
  C988     1.0000 0.87430  0.79350  0.37430  Biso   1.000  C
  C989     1.0000 0.86190  0.82280  0.36190  Biso   1.000  C
  C990     1.0000 0.89310  0.77690  0.39310  Biso   1.000  C
  C991     1.0000 0.88300  0.80190  0.38300  Biso   1.000  C
  C992     1.0000 0.87060  0.83120  0.37060  Biso   1.000  C
  C993     1.0000 0.58193  0.81555  0.41807  Biso   1.000  C
  H1397    1.0000 0.57450  0.83510  0.42550  Biso   1.000  H
  C994     1.0000 0.60149  0.75609  0.39851  Biso   1.000  C
  C995     1.0000 0.61570  0.72910  0.38430  Biso   1.000  C
  C996     1.0000 0.62570  0.70650  0.37430  Biso   1.000  C
  C997     1.0000 0.63810  0.67720  0.36190  Biso   1.000  C
  C998     1.0000 0.60690  0.72310  0.39310  Biso   1.000  C
  C999     1.0000 0.61700  0.69810  0.38300  Biso   1.000  C
  C1000    1.0000 0.62940  0.66880  0.37060  Biso   1.000  C
  C1001    1.0000 0.58193  0.31555  0.91807  Biso   1.000  C
  H1398    1.0000 0.57450  0.33510  0.92550  Biso   1.000  H
  C1002    1.0000 0.60149  0.25609  0.89851  Biso   1.000  C
  C1003    1.0000 0.61570  0.22910  0.88430  Biso   1.000  C
  C1004    1.0000 0.62570  0.20650  0.87430  Biso   1.000  C
  C1005    1.0000 0.63810  0.17720  0.86190  Biso   1.000  C
  C1006    1.0000 0.60690  0.22310  0.89310  Biso   1.000  C
  C1007    1.0000 0.61700  0.19810  0.88300  Biso   1.000  C
  C1008    1.0000 0.62940  0.16880  0.87060  Biso   1.000  C
  C1009    1.0000 0.08193  0.81555  0.91807  Biso   1.000  C
  H1399    1.0000 0.07450  0.83510  0.92550  Biso   1.000  H
  C1010    1.0000 0.10149  0.75609  0.89851  Biso   1.000  C
  C1011    1.0000 0.11570  0.72910  0.88430  Biso   1.000  C
  C1012    1.0000 0.12570  0.70650  0.87430  Biso   1.000  C
  C1013    1.0000 0.13810  0.67720  0.86190  Biso   1.000  C
  C1014    1.0000 0.10690  0.72310  0.89310  Biso   1.000  C
  C1015    1.0000 0.11700  0.69810  0.88300  Biso   1.000  C
  C1016    1.0000 0.12940  0.66880  0.87060  Biso   1.000  C
  C1017    1.0000 0.08193  0.31555  0.41807  Biso   1.000  C
  H1400    1.0000 0.07450  0.33510  0.42550  Biso   1.000  H
  C1018    1.0000 0.10149  0.25609  0.39851  Biso   1.000  C
  C1019    1.0000 0.11570  0.22910  0.38430  Biso   1.000  C
  C1020    1.0000 0.12570  0.20650  0.37430  Biso   1.000  C
  C1021    1.0000 0.13810  0.17720  0.36190  Biso   1.000  C
  C1022    1.0000 0.10690  0.22310  0.39310  Biso   1.000  C
  C1023    1.0000 0.11700  0.19810  0.38300  Biso   1.000  C
  C1024    1.0000 0.12940  0.16880  0.37060  Biso   1.000  C
  C1025    1.0000 0.41807  0.81555  0.58193  Biso   1.000  C
  H1401    1.0000 0.42550  0.83510  0.57450  Biso   1.000  H
  C1026    1.0000 0.39851  0.75609  0.60149  Biso   1.000  C
  C1027    1.0000 0.38430  0.72910  0.61570  Biso   1.000  C
  C1028    1.0000 0.37430  0.70650  0.62570  Biso   1.000  C
  C1029    1.0000 0.36190  0.67720  0.63810  Biso   1.000  C
  C1030    1.0000 0.39310  0.72310  0.60690  Biso   1.000  C
  C1031    1.0000 0.38300  0.69810  0.61700  Biso   1.000  C
  C1032    1.0000 0.37060  0.66880  0.62940  Biso   1.000  C
  C1033    1.0000 0.41807  0.31555  0.08193  Biso   1.000  C
  H1402    1.0000 0.42550  0.33510  0.07450  Biso   1.000  H
  C1034    1.0000 0.39851  0.25609  0.10149  Biso   1.000  C
  C1035    1.0000 0.38430  0.22910  0.11570  Biso   1.000  C
  C1036    1.0000 0.37430  0.20650  0.12570  Biso   1.000  C
  C1037    1.0000 0.36190  0.17720  0.13810  Biso   1.000  C
  C1038    1.0000 0.39310  0.22310  0.10690  Biso   1.000  C
  C1039    1.0000 0.38300  0.19810  0.11700  Biso   1.000  C
  C1040    1.0000 0.37060  0.16880  0.12940  Biso   1.000  C
  C1041    1.0000 0.91807  0.81555  0.08193  Biso   1.000  C
  H1403    1.0000 0.92550  0.83510  0.07450  Biso   1.000  H
  C1042    1.0000 0.89851  0.75609  0.10149  Biso   1.000  C
  C1043    1.0000 0.88430  0.72910  0.11570  Biso   1.000  C
  C1044    1.0000 0.87430  0.70650  0.12570  Biso   1.000  C
  C1045    1.0000 0.86190  0.67720  0.13810  Biso   1.000  C
  C1046    1.0000 0.89310  0.72310  0.10690  Biso   1.000  C
  C1047    1.0000 0.88300  0.69810  0.11700  Biso   1.000  C
  C1048    1.0000 0.87060  0.66880  0.12940  Biso   1.000  C
  C1049    1.0000 0.91807  0.31555  0.58193  Biso   1.000  C
  H1404    1.0000 0.92550  0.33510  0.57450  Biso   1.000  H
  C1050    1.0000 0.89851  0.25609  0.60149  Biso   1.000  C
  C1051    1.0000 0.88430  0.22910  0.61570  Biso   1.000  C
  C1052    1.0000 0.87430  0.20650  0.62570  Biso   1.000  C
  C1053    1.0000 0.86190  0.17720  0.63810  Biso   1.000  C
  C1054    1.0000 0.89310  0.22310  0.60690  Biso   1.000  C
  C1055    1.0000 0.88300  0.19810  0.61700  Biso   1.000  C
  C1056    1.0000 0.87060  0.16880  0.62940  Biso   1.000  C
  C1057    1.0000 0.58193  0.18445  0.58193  Biso   1.000  C
  H1405    1.0000 0.57450  0.16490  0.57450  Biso   1.000  H
  C1058    1.0000 0.60149  0.24391  0.60149  Biso   1.000  C
  C1059    1.0000 0.61570  0.27090  0.61570  Biso   1.000  C
  C1060    1.0000 0.62570  0.29350  0.62570  Biso   1.000  C
  C1061    1.0000 0.63810  0.32280  0.63810  Biso   1.000  C
  C1062    1.0000 0.60690  0.27690  0.60690  Biso   1.000  C
  C1063    1.0000 0.61700  0.30190  0.61700  Biso   1.000  C
  C1064    1.0000 0.62940  0.33120  0.62940  Biso   1.000  C
  C1065    1.0000 0.58193  0.68445  0.08193  Biso   1.000  C
  H1406    1.0000 0.57450  0.66490  0.07450  Biso   1.000  H
  C1066    1.0000 0.60149  0.74391  0.10149  Biso   1.000  C
  C1067    1.0000 0.61570  0.77090  0.11570  Biso   1.000  C
  C1068    1.0000 0.62570  0.79350  0.12570  Biso   1.000  C
  C1069    1.0000 0.63810  0.82280  0.13810  Biso   1.000  C
  C1070    1.0000 0.60690  0.77690  0.10690  Biso   1.000  C
  C1071    1.0000 0.61700  0.80190  0.11700  Biso   1.000  C
  C1072    1.0000 0.62940  0.83120  0.12940  Biso   1.000  C
  C1073    1.0000 0.08193  0.18445  0.08193  Biso   1.000  C
  H1407    1.0000 0.07450  0.16490  0.07450  Biso   1.000  H
  C1074    1.0000 0.10149  0.24391  0.10149  Biso   1.000  C
  C1075    1.0000 0.11570  0.27090  0.11570  Biso   1.000  C
  C1076    1.0000 0.12570  0.29350  0.12570  Biso   1.000  C
  C1077    1.0000 0.13810  0.32280  0.13810  Biso   1.000  C
  C1078    1.0000 0.10690  0.27690  0.10690  Biso   1.000  C
  C1079    1.0000 0.11700  0.30190  0.11700  Biso   1.000  C
  C1080    1.0000 0.12940  0.33120  0.12940  Biso   1.000  C
  C1081    1.0000 0.08193  0.68445  0.58193  Biso   1.000  C
  H1408    1.0000 0.07450  0.66490  0.57450  Biso   1.000  H
  C1082    1.0000 0.10149  0.74391  0.60149  Biso   1.000  C
  C1083    1.0000 0.11570  0.77090  0.61570  Biso   1.000  C
  C1084    1.0000 0.12570  0.79350  0.62570  Biso   1.000  C
  C1085    1.0000 0.13810  0.82280  0.63810  Biso   1.000  C
  C1086    1.0000 0.10690  0.77690  0.60690  Biso   1.000  C
  C1087    1.0000 0.11700  0.80190  0.61700  Biso   1.000  C
  C1088    1.0000 0.12940  0.83120  0.62940  Biso   1.000  C
  C1089    1.0000 0.18445  0.58193  0.58193  Biso   1.000  C
  H1409    1.0000 0.16490  0.57450  0.57450  Biso   1.000  H
  C1090    1.0000 0.24391  0.60149  0.60149  Biso   1.000  C
  C1091    1.0000 0.27090  0.61570  0.61570  Biso   1.000  C
  C1092    1.0000 0.29350  0.62570  0.62570  Biso   1.000  C
  C1093    1.0000 0.32280  0.63810  0.63810  Biso   1.000  C
  C1094    1.0000 0.27690  0.60690  0.60690  Biso   1.000  C
  C1095    1.0000 0.30190  0.61700  0.61700  Biso   1.000  C
  C1096    1.0000 0.33120  0.62940  0.62940  Biso   1.000  C
  C1097    1.0000 0.18445  0.08193  0.08193  Biso   1.000  C
  H1410    1.0000 0.16490  0.07450  0.07450  Biso   1.000  H
  C1098    1.0000 0.24391  0.10149  0.10149  Biso   1.000  C
  C1099    1.0000 0.27090  0.11570  0.11570  Biso   1.000  C
  C1100    1.0000 0.29350  0.12570  0.12570  Biso   1.000  C
  C1101    1.0000 0.32280  0.13810  0.13810  Biso   1.000  C
  C1102    1.0000 0.27690  0.10690  0.10690  Biso   1.000  C
  C1103    1.0000 0.30190  0.11700  0.11700  Biso   1.000  C
  C1104    1.0000 0.33120  0.12940  0.12940  Biso   1.000  C
  C1105    1.0000 0.68445  0.58193  0.08193  Biso   1.000  C
  H1411    1.0000 0.66490  0.57450  0.07450  Biso   1.000  H
  C1106    1.0000 0.74391  0.60149  0.10149  Biso   1.000  C
  C1107    1.0000 0.77090  0.61570  0.11570  Biso   1.000  C
  C1108    1.0000 0.79350  0.62570  0.12570  Biso   1.000  C
  C1109    1.0000 0.82280  0.63810  0.13810  Biso   1.000  C
  C1110    1.0000 0.77690  0.60690  0.10690  Biso   1.000  C
  C1111    1.0000 0.80190  0.61700  0.11700  Biso   1.000  C
  C1112    1.0000 0.83120  0.62940  0.12940  Biso   1.000  C
  C1113    1.0000 0.68445  0.08193  0.58193  Biso   1.000  C
  H1412    1.0000 0.66490  0.07450  0.57450  Biso   1.000  H
  C1114    1.0000 0.74391  0.10149  0.60149  Biso   1.000  C
  C1115    1.0000 0.77090  0.11570  0.61570  Biso   1.000  C
  C1116    1.0000 0.79350  0.12570  0.62570  Biso   1.000  C
  C1117    1.0000 0.82280  0.13810  0.63810  Biso   1.000  C
  C1118    1.0000 0.77690  0.10690  0.60690  Biso   1.000  C
  C1119    1.0000 0.80190  0.11700  0.61700  Biso   1.000  C
  C1120    1.0000 0.83120  0.12940  0.62940  Biso   1.000  C
  C1121    1.0000 0.81555  0.58193  0.41807  Biso   1.000  C
  H1413    1.0000 0.83510  0.57450  0.42550  Biso   1.000  H
  C1122    1.0000 0.75609  0.60149  0.39851  Biso   1.000  C
  C1123    1.0000 0.72910  0.61570  0.38430  Biso   1.000  C
  C1124    1.0000 0.70650  0.62570  0.37430  Biso   1.000  C
  C1125    1.0000 0.67720  0.63810  0.36190  Biso   1.000  C
  C1126    1.0000 0.72310  0.60690  0.39310  Biso   1.000  C
  C1127    1.0000 0.69810  0.61700  0.38300  Biso   1.000  C
  C1128    1.0000 0.66880  0.62940  0.37060  Biso   1.000  C
  C1129    1.0000 0.81555  0.08193  0.91807  Biso   1.000  C
  H1414    1.0000 0.83510  0.07450  0.92550  Biso   1.000  H
  C1130    1.0000 0.75609  0.10149  0.89851  Biso   1.000  C
  C1131    1.0000 0.72910  0.11570  0.88430  Biso   1.000  C
  C1132    1.0000 0.70650  0.12570  0.87430  Biso   1.000  C
  C1133    1.0000 0.67720  0.13810  0.86190  Biso   1.000  C
  C1134    1.0000 0.72310  0.10690  0.89310  Biso   1.000  C
  C1135    1.0000 0.69810  0.11700  0.88300  Biso   1.000  C
  C1136    1.0000 0.66880  0.12940  0.87060  Biso   1.000  C
  C1137    1.0000 0.31555  0.58193  0.91807  Biso   1.000  C
  H1415    1.0000 0.33510  0.57450  0.92550  Biso   1.000  H
  C1138    1.0000 0.25609  0.60149  0.89851  Biso   1.000  C
  C1139    1.0000 0.22910  0.61570  0.88430  Biso   1.000  C
  C1140    1.0000 0.20650  0.62570  0.87430  Biso   1.000  C
  C1141    1.0000 0.17720  0.63810  0.86190  Biso   1.000  C
  C1142    1.0000 0.22310  0.60690  0.89310  Biso   1.000  C
  C1143    1.0000 0.19810  0.61700  0.88300  Biso   1.000  C
  C1144    1.0000 0.16880  0.62940  0.87060  Biso   1.000  C
  C1145    1.0000 0.31555  0.08193  0.41807  Biso   1.000  C
  H1416    1.0000 0.33510  0.07450  0.42550  Biso   1.000  H
  C1146    1.0000 0.25609  0.10149  0.39851  Biso   1.000  C
  C1147    1.0000 0.22910  0.11570  0.38430  Biso   1.000  C
  C1148    1.0000 0.20650  0.12570  0.37430  Biso   1.000  C
  C1149    1.0000 0.17720  0.13810  0.36190  Biso   1.000  C
  C1150    1.0000 0.22310  0.10690  0.39310  Biso   1.000  C
  C1151    1.0000 0.19810  0.11700  0.38300  Biso   1.000  C
  C1152    1.0000 0.16880  0.12940  0.37060  Biso   1.000  C
  C1153    1.0000 0.81555  0.41807  0.58193  Biso   1.000  C
  H1417    1.0000 0.83510  0.42550  0.57450  Biso   1.000  H
  C1154    1.0000 0.75609  0.39851  0.60149  Biso   1.000  C
  C1155    1.0000 0.72910  0.38430  0.61570  Biso   1.000  C
  C1156    1.0000 0.70650  0.37430  0.62570  Biso   1.000  C
  C1157    1.0000 0.67720  0.36190  0.63810  Biso   1.000  C
  C1158    1.0000 0.72310  0.39310  0.60690  Biso   1.000  C
  C1159    1.0000 0.69810  0.38300  0.61700  Biso   1.000  C
  C1160    1.0000 0.66880  0.37060  0.62940  Biso   1.000  C
  C1161    1.0000 0.81555  0.91807  0.08193  Biso   1.000  C
  H1418    1.0000 0.83510  0.92550  0.07450  Biso   1.000  H
  C1162    1.0000 0.75609  0.89851  0.10149  Biso   1.000  C
  C1163    1.0000 0.72910  0.88430  0.11570  Biso   1.000  C
  C1164    1.0000 0.70650  0.87430  0.12570  Biso   1.000  C
  C1165    1.0000 0.67720  0.86190  0.13810  Biso   1.000  C
  C1166    1.0000 0.72310  0.89310  0.10690  Biso   1.000  C
  C1167    1.0000 0.69810  0.88300  0.11700  Biso   1.000  C
  C1168    1.0000 0.66880  0.87060  0.12940  Biso   1.000  C
  C1169    1.0000 0.31555  0.41807  0.08193  Biso   1.000  C
  H1419    1.0000 0.33510  0.42550  0.07450  Biso   1.000  H
  C1170    1.0000 0.25609  0.39851  0.10149  Biso   1.000  C
  C1171    1.0000 0.22910  0.38430  0.11570  Biso   1.000  C
  C1172    1.0000 0.20650  0.37430  0.12570  Biso   1.000  C
  C1173    1.0000 0.17720  0.36190  0.13810  Biso   1.000  C
  C1174    1.0000 0.22310  0.39310  0.10690  Biso   1.000  C
  C1175    1.0000 0.19810  0.38300  0.11700  Biso   1.000  C
  C1176    1.0000 0.16880  0.37060  0.12940  Biso   1.000  C
  C1177    1.0000 0.31555  0.91807  0.58193  Biso   1.000  C
  H1420    1.0000 0.33510  0.92550  0.57450  Biso   1.000  H
  C1178    1.0000 0.25609  0.89851  0.60149  Biso   1.000  C
  C1179    1.0000 0.22910  0.88430  0.61570  Biso   1.000  C
  C1180    1.0000 0.20650  0.87430  0.62570  Biso   1.000  C
  C1181    1.0000 0.17720  0.86190  0.63810  Biso   1.000  C
  C1182    1.0000 0.22310  0.89310  0.60690  Biso   1.000  C
  C1183    1.0000 0.19810  0.88300  0.61700  Biso   1.000  C
  C1184    1.0000 0.16880  0.87060  0.62940  Biso   1.000  C
  C1185    1.0000 0.18445  0.41807  0.41807  Biso   1.000  C
  H1421    1.0000 0.16490  0.42550  0.42550  Biso   1.000  H
  C1186    1.0000 0.24391  0.39851  0.39851  Biso   1.000  C
  C1187    1.0000 0.27090  0.38430  0.38430  Biso   1.000  C
  C1188    1.0000 0.29350  0.37430  0.37430  Biso   1.000  C
  C1189    1.0000 0.32280  0.36190  0.36190  Biso   1.000  C
  C1190    1.0000 0.27690  0.39310  0.39310  Biso   1.000  C
  C1191    1.0000 0.30190  0.38300  0.38300  Biso   1.000  C
  C1192    1.0000 0.33120  0.37060  0.37060  Biso   1.000  C
  C1193    1.0000 0.18445  0.91807  0.91807  Biso   1.000  C
  H1422    1.0000 0.16490  0.92550  0.92550  Biso   1.000  H
  C1194    1.0000 0.24391  0.89851  0.89851  Biso   1.000  C
  C1195    1.0000 0.27090  0.88430  0.88430  Biso   1.000  C
  C1196    1.0000 0.29350  0.87430  0.87430  Biso   1.000  C
  C1197    1.0000 0.32280  0.86190  0.86190  Biso   1.000  C
  C1198    1.0000 0.27690  0.89310  0.89310  Biso   1.000  C
  C1199    1.0000 0.30190  0.88300  0.88300  Biso   1.000  C
  C1200    1.0000 0.33120  0.87060  0.87060  Biso   1.000  C
  C1201    1.0000 0.68445  0.41807  0.91807  Biso   1.000  C
  H1423    1.0000 0.66490  0.42550  0.92550  Biso   1.000  H
  C1202    1.0000 0.74391  0.39851  0.89851  Biso   1.000  C
  C1203    1.0000 0.77090  0.38430  0.88430  Biso   1.000  C
  C1204    1.0000 0.79350  0.37430  0.87430  Biso   1.000  C
  C1205    1.0000 0.82280  0.36190  0.86190  Biso   1.000  C
  C1206    1.0000 0.77690  0.39310  0.89310  Biso   1.000  C
  C1207    1.0000 0.80190  0.38300  0.88300  Biso   1.000  C
  C1208    1.0000 0.83120  0.37060  0.87060  Biso   1.000  C
  C1209    1.0000 0.68445  0.91807  0.41807  Biso   1.000  C
  H1424    1.0000 0.66490  0.92550  0.42550  Biso   1.000  H
  C1210    1.0000 0.74391  0.89851  0.39851  Biso   1.000  C
  C1211    1.0000 0.77090  0.88430  0.38430  Biso   1.000  C
  C1212    1.0000 0.79350  0.87430  0.37430  Biso   1.000  C
  C1213    1.0000 0.82280  0.86190  0.36190  Biso   1.000  C
  C1214    1.0000 0.77690  0.89310  0.39310  Biso   1.000  C
  C1215    1.0000 0.80190  0.88300  0.38300  Biso   1.000  C
  C1216    1.0000 0.83120  0.87060  0.37060  Biso   1.000  C
  C1217    1.0000 0.58193  0.41807  0.81555  Biso   1.000  C
  H1425    1.0000 0.57450  0.42550  0.83510  Biso   1.000  H
  C1218    1.0000 0.60149  0.39851  0.75609  Biso   1.000  C
  C1219    1.0000 0.61570  0.38430  0.72910  Biso   1.000  C
  C1220    1.0000 0.62570  0.37430  0.70650  Biso   1.000  C
  C1221    1.0000 0.63810  0.36190  0.67720  Biso   1.000  C
  C1222    1.0000 0.60690  0.39310  0.72310  Biso   1.000  C
  C1223    1.0000 0.61700  0.38300  0.69810  Biso   1.000  C
  C1224    1.0000 0.62940  0.37060  0.66880  Biso   1.000  C
  C1225    1.0000 0.58193  0.91807  0.31555  Biso   1.000  C
  H1426    1.0000 0.57450  0.92550  0.33510  Biso   1.000  H
  C1226    1.0000 0.60149  0.89851  0.25609  Biso   1.000  C
  C1227    1.0000 0.61570  0.88430  0.22910  Biso   1.000  C
  C1228    1.0000 0.62570  0.87430  0.20650  Biso   1.000  C
  C1229    1.0000 0.63810  0.86190  0.17720  Biso   1.000  C
  C1230    1.0000 0.60690  0.89310  0.22310  Biso   1.000  C
  C1231    1.0000 0.61700  0.88300  0.19810  Biso   1.000  C
  C1232    1.0000 0.62940  0.87060  0.16880  Biso   1.000  C
  C1233    1.0000 0.08193  0.41807  0.31555  Biso   1.000  C
  H1427    1.0000 0.07450  0.42550  0.33510  Biso   1.000  H
  C1234    1.0000 0.10149  0.39851  0.25609  Biso   1.000  C
  C1235    1.0000 0.11570  0.38430  0.22910  Biso   1.000  C
  C1236    1.0000 0.12570  0.37430  0.20650  Biso   1.000  C
  C1237    1.0000 0.13810  0.36190  0.17720  Biso   1.000  C
  C1238    1.0000 0.10690  0.39310  0.22310  Biso   1.000  C
  C1239    1.0000 0.11700  0.38300  0.19810  Biso   1.000  C
  C1240    1.0000 0.12940  0.37060  0.16880  Biso   1.000  C
  C1241    1.0000 0.08193  0.91807  0.81555  Biso   1.000  C
  H1428    1.0000 0.07450  0.92550  0.83510  Biso   1.000  H
  C1242    1.0000 0.10149  0.89851  0.75609  Biso   1.000  C
  C1243    1.0000 0.11570  0.88430  0.72910  Biso   1.000  C
  C1244    1.0000 0.12570  0.87430  0.70650  Biso   1.000  C
  C1245    1.0000 0.13810  0.86190  0.67720  Biso   1.000  C
  C1246    1.0000 0.10690  0.89310  0.72310  Biso   1.000  C
  C1247    1.0000 0.11700  0.88300  0.69810  Biso   1.000  C
  C1248    1.0000 0.12940  0.87060  0.66880  Biso   1.000  C
  C1249    1.0000 0.58193  0.58193  0.18445  Biso   1.000  C
  H1429    1.0000 0.57450  0.57450  0.16490  Biso   1.000  H
  C1250    1.0000 0.60149  0.60149  0.24391  Biso   1.000  C
  C1251    1.0000 0.61570  0.61570  0.27090  Biso   1.000  C
  C1252    1.0000 0.62570  0.62570  0.29350  Biso   1.000  C
  C1253    1.0000 0.63810  0.63810  0.32280  Biso   1.000  C
  C1254    1.0000 0.60690  0.60690  0.27690  Biso   1.000  C
  C1255    1.0000 0.61700  0.61700  0.30190  Biso   1.000  C
  C1256    1.0000 0.62940  0.62940  0.33120  Biso   1.000  C
  C1257    1.0000 0.58193  0.08193  0.68445  Biso   1.000  C
  H1430    1.0000 0.57450  0.07450  0.66490  Biso   1.000  H
  C1258    1.0000 0.60149  0.10149  0.74391  Biso   1.000  C
  C1259    1.0000 0.61570  0.11570  0.77090  Biso   1.000  C
  C1260    1.0000 0.62570  0.12570  0.79350  Biso   1.000  C
  C1261    1.0000 0.63810  0.13810  0.82280  Biso   1.000  C
  C1262    1.0000 0.60690  0.10690  0.77690  Biso   1.000  C
  C1263    1.0000 0.61700  0.11700  0.80190  Biso   1.000  C
  C1264    1.0000 0.62940  0.12940  0.83120  Biso   1.000  C
  C1265    1.0000 0.08193  0.58193  0.68445  Biso   1.000  C
  H1431    1.0000 0.07450  0.57450  0.66490  Biso   1.000  H
  C1266    1.0000 0.10149  0.60149  0.74391  Biso   1.000  C
  C1267    1.0000 0.11570  0.61570  0.77090  Biso   1.000  C
  C1268    1.0000 0.12570  0.62570  0.79350  Biso   1.000  C
  C1269    1.0000 0.13810  0.63810  0.82280  Biso   1.000  C
  C1270    1.0000 0.10690  0.60690  0.77690  Biso   1.000  C
  C1271    1.0000 0.11700  0.61700  0.80190  Biso   1.000  C
  C1272    1.0000 0.12940  0.62940  0.83120  Biso   1.000  C
  C1273    1.0000 0.08193  0.08193  0.18445  Biso   1.000  C
  H1432    1.0000 0.07450  0.07450  0.16490  Biso   1.000  H
  C1274    1.0000 0.10149  0.10149  0.24391  Biso   1.000  C
  C1275    1.0000 0.11570  0.11570  0.27090  Biso   1.000  C
  C1276    1.0000 0.12570  0.12570  0.29350  Biso   1.000  C
  C1277    1.0000 0.13810  0.13810  0.32280  Biso   1.000  C
  C1278    1.0000 0.10690  0.10690  0.27690  Biso   1.000  C
  C1279    1.0000 0.11700  0.11700  0.30190  Biso   1.000  C
  C1280    1.0000 0.12940  0.12940  0.33120  Biso   1.000  C
  C1281    1.0000 0.41807  0.41807  0.18445  Biso   1.000  C
  H1433    1.0000 0.42550  0.42550  0.16490  Biso   1.000  H
  C1282    1.0000 0.39851  0.39851  0.24391  Biso   1.000  C
  C1283    1.0000 0.38430  0.38430  0.27090  Biso   1.000  C
  C1284    1.0000 0.37430  0.37430  0.29350  Biso   1.000  C
  C1285    1.0000 0.36190  0.36190  0.32280  Biso   1.000  C
  C1286    1.0000 0.39310  0.39310  0.27690  Biso   1.000  C
  C1287    1.0000 0.38300  0.38300  0.30190  Biso   1.000  C
  C1288    1.0000 0.37060  0.37060  0.33120  Biso   1.000  C
  C1289    1.0000 0.41807  0.91807  0.68445  Biso   1.000  C
  H1434    1.0000 0.42550  0.92550  0.66490  Biso   1.000  H
  C1290    1.0000 0.39851  0.89851  0.74391  Biso   1.000  C
  C1291    1.0000 0.38430  0.88430  0.77090  Biso   1.000  C
  C1292    1.0000 0.37430  0.87430  0.79350  Biso   1.000  C
  C1293    1.0000 0.36190  0.86190  0.82280  Biso   1.000  C
  C1294    1.0000 0.39310  0.89310  0.77690  Biso   1.000  C
  C1295    1.0000 0.38300  0.88300  0.80190  Biso   1.000  C
  C1296    1.0000 0.37060  0.87060  0.83120  Biso   1.000  C
  C1297    1.0000 0.91807  0.41807  0.68445  Biso   1.000  C
  H1435    1.0000 0.92550  0.42550  0.66490  Biso   1.000  H
  C1298    1.0000 0.89851  0.39851  0.74391  Biso   1.000  C
  C1299    1.0000 0.88430  0.38430  0.77090  Biso   1.000  C
  C1300    1.0000 0.87430  0.37430  0.79350  Biso   1.000  C
  C1301    1.0000 0.86190  0.36190  0.82280  Biso   1.000  C
  C1302    1.0000 0.89310  0.39310  0.77690  Biso   1.000  C
  C1303    1.0000 0.88300  0.38300  0.80190  Biso   1.000  C
  C1304    1.0000 0.87060  0.37060  0.83120  Biso   1.000  C
  C1305    1.0000 0.91807  0.91807  0.18445  Biso   1.000  C
  H1436    1.0000 0.92550  0.92550  0.16490  Biso   1.000  H
  C1306    1.0000 0.89851  0.89851  0.24391  Biso   1.000  C
  C1307    1.0000 0.88430  0.88430  0.27090  Biso   1.000  C
  C1308    1.0000 0.87430  0.87430  0.29350  Biso   1.000  C
  C1309    1.0000 0.86190  0.86190  0.32280  Biso   1.000  C
  C1310    1.0000 0.89310  0.89310  0.27690  Biso   1.000  C
  C1311    1.0000 0.88300  0.88300  0.30190  Biso   1.000  C
  C1312    1.0000 0.87060  0.87060  0.33120  Biso   1.000  C
  C1313    1.0000 0.41807  0.58193  0.81555  Biso   1.000  C
  H1437    1.0000 0.42550  0.57450  0.83510  Biso   1.000  H
  C1314    1.0000 0.39851  0.60149  0.75609  Biso   1.000  C
  C1315    1.0000 0.38430  0.61570  0.72910  Biso   1.000  C
  C1316    1.0000 0.37430  0.62570  0.70650  Biso   1.000  C
  C1317    1.0000 0.36190  0.63810  0.67720  Biso   1.000  C
  C1318    1.0000 0.39310  0.60690  0.72310  Biso   1.000  C
  C1319    1.0000 0.38300  0.61700  0.69810  Biso   1.000  C
  C1320    1.0000 0.37060  0.62940  0.66880  Biso   1.000  C
  C1321    1.0000 0.41807  0.08193  0.31555  Biso   1.000  C
  H1438    1.0000 0.42550  0.07450  0.33510  Biso   1.000  H
  C1322    1.0000 0.39851  0.10149  0.25609  Biso   1.000  C
  C1323    1.0000 0.38430  0.11570  0.22910  Biso   1.000  C
  C1324    1.0000 0.37430  0.12570  0.20650  Biso   1.000  C
  C1325    1.0000 0.36190  0.13810  0.17720  Biso   1.000  C
  C1326    1.0000 0.39310  0.10690  0.22310  Biso   1.000  C
  C1327    1.0000 0.38300  0.11700  0.19810  Biso   1.000  C
  C1328    1.0000 0.37060  0.12940  0.16880  Biso   1.000  C
  C1329    1.0000 0.91807  0.58193  0.31555  Biso   1.000  C
  H1439    1.0000 0.92550  0.57450  0.33510  Biso   1.000  H
  C1330    1.0000 0.89851  0.60149  0.25609  Biso   1.000  C
  C1331    1.0000 0.88430  0.61570  0.22910  Biso   1.000  C
  C1332    1.0000 0.87430  0.62570  0.20650  Biso   1.000  C
  C1333    1.0000 0.86190  0.63810  0.17720  Biso   1.000  C
  C1334    1.0000 0.89310  0.60690  0.22310  Biso   1.000  C
  C1335    1.0000 0.88300  0.61700  0.19810  Biso   1.000  C
  C1336    1.0000 0.87060  0.62940  0.16880  Biso   1.000  C
  C1337    1.0000 0.91807  0.08193  0.81555  Biso   1.000  C
  H1440    1.0000 0.92550  0.07450  0.83510  Biso   1.000  H
  C1338    1.0000 0.89851  0.10149  0.75609  Biso   1.000  C
  C1339    1.0000 0.88430  0.11570  0.72910  Biso   1.000  C
  C1340    1.0000 0.87430  0.12570  0.70650  Biso   1.000  C
  C1341    1.0000 0.86190  0.13810  0.67720  Biso   1.000  C
  C1342    1.0000 0.89310  0.10690  0.72310  Biso   1.000  C
  C1343    1.0000 0.88300  0.11700  0.69810  Biso   1.000  C
  C1344    1.0000 0.87060  0.12940  0.66880  Biso   1.000  C
  C1345    1.0000 0.33590  0.37680  0.66410  Biso   1.000  C
  C1346    1.0000 0.32080  0.40450  0.67920  Biso   1.000  C
  C1347    1.0000 0.34440  0.38530  0.65560  Biso   1.000  C
  C1348    1.0000 0.33050  0.41430  0.66950  Biso   1.000  C
  C1349    1.0000 0.33590  0.87680  0.16410  Biso   1.000  C
  C1350    1.0000 0.32080  0.90450  0.17920  Biso   1.000  C
  C1351    1.0000 0.34440  0.88530  0.15560  Biso   1.000  C
  C1352    1.0000 0.33050  0.91430  0.16950  Biso   1.000  C
  C1353    1.0000 0.83590  0.37680  0.16410  Biso   1.000  C
  C1354    1.0000 0.82080  0.40450  0.17920  Biso   1.000  C
  C1355    1.0000 0.84440  0.38530  0.15560  Biso   1.000  C
  C1356    1.0000 0.83050  0.41430  0.16950  Biso   1.000  C
  C1357    1.0000 0.83590  0.87680  0.66410  Biso   1.000  C
  C1358    1.0000 0.82080  0.90450  0.67920  Biso   1.000  C
  C1359    1.0000 0.84440  0.88530  0.65560  Biso   1.000  C
  C1360    1.0000 0.83050  0.91430  0.66950  Biso   1.000  C
  C1361    1.0000 0.66410  0.62320  0.66410  Biso   1.000  C
  C1362    1.0000 0.67920  0.59550  0.67920  Biso   1.000  C
  C1363    1.0000 0.65560  0.61470  0.65560  Biso   1.000  C
  C1364    1.0000 0.66950  0.58570  0.66950  Biso   1.000  C
  C1365    1.0000 0.66410  0.12320  0.16410  Biso   1.000  C
  C1366    1.0000 0.67920  0.09550  0.17920  Biso   1.000  C
  C1367    1.0000 0.65560  0.11470  0.15560  Biso   1.000  C
  C1368    1.0000 0.66950  0.08570  0.16950  Biso   1.000  C
  C1369    1.0000 0.16410  0.62320  0.16410  Biso   1.000  C
  C1370    1.0000 0.17920  0.59550  0.17920  Biso   1.000  C
  C1371    1.0000 0.15560  0.61470  0.15560  Biso   1.000  C
  C1372    1.0000 0.16950  0.58570  0.16950  Biso   1.000  C
  C1373    1.0000 0.16410  0.12320  0.66410  Biso   1.000  C
  C1374    1.0000 0.17920  0.09550  0.67920  Biso   1.000  C
  C1375    1.0000 0.15560  0.11470  0.65560  Biso   1.000  C
  C1376    1.0000 0.16950  0.08570  0.66950  Biso   1.000  C
  C1377    1.0000 0.66410  0.37680  0.33590  Biso   1.000  C
  C1378    1.0000 0.67920  0.40450  0.32080  Biso   1.000  C
  C1379    1.0000 0.65560  0.38530  0.34440  Biso   1.000  C
  C1380    1.0000 0.66950  0.41430  0.33050  Biso   1.000  C
  C1381    1.0000 0.66410  0.87680  0.83590  Biso   1.000  C
  C1382    1.0000 0.67920  0.90450  0.82080  Biso   1.000  C
  C1383    1.0000 0.65560  0.88530  0.84440  Biso   1.000  C
  C1384    1.0000 0.66950  0.91430  0.83050  Biso   1.000  C
  C1385    1.0000 0.16410  0.37680  0.83590  Biso   1.000  C
  C1386    1.0000 0.17920  0.40450  0.82080  Biso   1.000  C
  C1387    1.0000 0.15560  0.38530  0.84440  Biso   1.000  C
  C1388    1.0000 0.16950  0.41430  0.83050  Biso   1.000  C
  C1389    1.0000 0.16410  0.87680  0.33590  Biso   1.000  C
  C1390    1.0000 0.17920  0.90450  0.32080  Biso   1.000  C
  C1391    1.0000 0.15560  0.88530  0.34440  Biso   1.000  C
  C1392    1.0000 0.16950  0.91430  0.33050  Biso   1.000  C
  C1393    1.0000 0.33590  0.62320  0.33590  Biso   1.000  C
  C1394    1.0000 0.32080  0.59550  0.32080  Biso   1.000  C
  C1395    1.0000 0.34440  0.61470  0.34440  Biso   1.000  C
  C1396    1.0000 0.33050  0.58570  0.33050  Biso   1.000  C
  C1397    1.0000 0.33590  0.12320  0.83590  Biso   1.000  C
  C1398    1.0000 0.32080  0.09550  0.82080  Biso   1.000  C
  C1399    1.0000 0.34440  0.11470  0.84440  Biso   1.000  C
  C1400    1.0000 0.33050  0.08570  0.83050  Biso   1.000  C
  C1401    1.0000 0.83590  0.62320  0.83590  Biso   1.000  C
  C1402    1.0000 0.82080  0.59550  0.82080  Biso   1.000  C
  C1403    1.0000 0.84440  0.61470  0.84440  Biso   1.000  C
  C1404    1.0000 0.83050  0.58570  0.83050  Biso   1.000  C
  C1405    1.0000 0.83590  0.12320  0.33590  Biso   1.000  C
  C1406    1.0000 0.82080  0.09550  0.32080  Biso   1.000  C
  C1407    1.0000 0.84440  0.11470  0.34440  Biso   1.000  C
  C1408    1.0000 0.83050  0.08570  0.33050  Biso   1.000  C
  C1409    1.0000 0.66410  0.33590  0.37680  Biso   1.000  C
  C1410    1.0000 0.67920  0.32080  0.40450  Biso   1.000  C
  C1411    1.0000 0.65560  0.34440  0.38530  Biso   1.000  C
  C1412    1.0000 0.66950  0.33050  0.41430  Biso   1.000  C
  C1413    1.0000 0.66410  0.83590  0.87680  Biso   1.000  C
  C1414    1.0000 0.67920  0.82080  0.90450  Biso   1.000  C
  C1415    1.0000 0.65560  0.84440  0.88530  Biso   1.000  C
  C1416    1.0000 0.66950  0.83050  0.91430  Biso   1.000  C
  C1417    1.0000 0.16410  0.33590  0.87680  Biso   1.000  C
  C1418    1.0000 0.17920  0.32080  0.90450  Biso   1.000  C
  C1419    1.0000 0.15560  0.34440  0.88530  Biso   1.000  C
  C1420    1.0000 0.16950  0.33050  0.91430  Biso   1.000  C
  C1421    1.0000 0.16410  0.83590  0.37680  Biso   1.000  C
  C1422    1.0000 0.17920  0.82080  0.40450  Biso   1.000  C
  C1423    1.0000 0.15560  0.84440  0.38530  Biso   1.000  C
  C1424    1.0000 0.16950  0.83050  0.41430  Biso   1.000  C
  C1425    1.0000 0.66410  0.66410  0.62320  Biso   1.000  C
  C1426    1.0000 0.67920  0.67920  0.59550  Biso   1.000  C
  C1427    1.0000 0.65560  0.65560  0.61470  Biso   1.000  C
  C1428    1.0000 0.66950  0.66950  0.58570  Biso   1.000  C
  C1429    1.0000 0.66410  0.16410  0.12320  Biso   1.000  C
  C1430    1.0000 0.67920  0.17920  0.09550  Biso   1.000  C
  C1431    1.0000 0.65560  0.15560  0.11470  Biso   1.000  C
  C1432    1.0000 0.66950  0.16950  0.08570  Biso   1.000  C
  C1433    1.0000 0.16410  0.66410  0.12320  Biso   1.000  C
  C1434    1.0000 0.17920  0.67920  0.09550  Biso   1.000  C
  C1435    1.0000 0.15560  0.65560  0.11470  Biso   1.000  C
  C1436    1.0000 0.16950  0.66950  0.08570  Biso   1.000  C
  C1437    1.0000 0.16410  0.16410  0.62320  Biso   1.000  C
  C1438    1.0000 0.17920  0.17920  0.59550  Biso   1.000  C
  C1439    1.0000 0.15560  0.15560  0.61470  Biso   1.000  C
  C1440    1.0000 0.16950  0.16950  0.58570  Biso   1.000  C
  C1441    1.0000 0.33590  0.66410  0.37680  Biso   1.000  C
  C1442    1.0000 0.32080  0.67920  0.40450  Biso   1.000  C
  C1443    1.0000 0.34440  0.65560  0.38530  Biso   1.000  C
  C1444    1.0000 0.33050  0.66950  0.41430  Biso   1.000  C
  C1445    1.0000 0.33590  0.16410  0.87680  Biso   1.000  C
  C1446    1.0000 0.32080  0.17920  0.90450  Biso   1.000  C
  C1447    1.0000 0.34440  0.15560  0.88530  Biso   1.000  C
  C1448    1.0000 0.33050  0.16950  0.91430  Biso   1.000  C
  C1449    1.0000 0.83590  0.66410  0.87680  Biso   1.000  C
  C1450    1.0000 0.82080  0.67920  0.90450  Biso   1.000  C
  C1451    1.0000 0.84440  0.65560  0.88530  Biso   1.000  C
  C1452    1.0000 0.83050  0.66950  0.91430  Biso   1.000  C
  C1453    1.0000 0.83590  0.16410  0.37680  Biso   1.000  C
  C1454    1.0000 0.82080  0.17920  0.40450  Biso   1.000  C
  C1455    1.0000 0.84440  0.15560  0.38530  Biso   1.000  C
  C1456    1.0000 0.83050  0.16950  0.41430  Biso   1.000  C
  C1457    1.0000 0.33590  0.33590  0.62320  Biso   1.000  C
  C1458    1.0000 0.32080  0.32080  0.59550  Biso   1.000  C
  C1459    1.0000 0.34440  0.34440  0.61470  Biso   1.000  C
  C1460    1.0000 0.33050  0.33050  0.58570  Biso   1.000  C
  C1461    1.0000 0.33590  0.83590  0.12320  Biso   1.000  C
  C1462    1.0000 0.32080  0.82080  0.09550  Biso   1.000  C
  C1463    1.0000 0.34440  0.84440  0.11470  Biso   1.000  C
  C1464    1.0000 0.33050  0.83050  0.08570  Biso   1.000  C
  C1465    1.0000 0.83590  0.33590  0.12320  Biso   1.000  C
  C1466    1.0000 0.82080  0.32080  0.09550  Biso   1.000  C
  C1467    1.0000 0.84440  0.34440  0.11470  Biso   1.000  C
  C1468    1.0000 0.83050  0.33050  0.08570  Biso   1.000  C
  C1469    1.0000 0.83590  0.83590  0.62320  Biso   1.000  C
  C1470    1.0000 0.82080  0.82080  0.59550  Biso   1.000  C
  C1471    1.0000 0.84440  0.84440  0.61470  Biso   1.000  C
  C1472    1.0000 0.83050  0.83050  0.58570  Biso   1.000  C
  C1473    1.0000 0.37680  0.66410  0.33590  Biso   1.000  C
  C1474    1.0000 0.40450  0.67920  0.32080  Biso   1.000  C
  C1475    1.0000 0.38530  0.65560  0.34440  Biso   1.000  C
  C1476    1.0000 0.41430  0.66950  0.33050  Biso   1.000  C
  C1477    1.0000 0.37680  0.16410  0.83590  Biso   1.000  C
  C1478    1.0000 0.40450  0.17920  0.82080  Biso   1.000  C
  C1479    1.0000 0.38530  0.15560  0.84440  Biso   1.000  C
  C1480    1.0000 0.41430  0.16950  0.83050  Biso   1.000  C
  C1481    1.0000 0.87680  0.66410  0.83590  Biso   1.000  C
  C1482    1.0000 0.90450  0.67920  0.82080  Biso   1.000  C
  C1483    1.0000 0.88530  0.65560  0.84440  Biso   1.000  C
  C1484    1.0000 0.91430  0.66950  0.83050  Biso   1.000  C
  C1485    1.0000 0.87680  0.16410  0.33590  Biso   1.000  C
  C1486    1.0000 0.90450  0.17920  0.32080  Biso   1.000  C
  C1487    1.0000 0.88530  0.15560  0.34440  Biso   1.000  C
  C1488    1.0000 0.91430  0.16950  0.33050  Biso   1.000  C
  C1489    1.0000 0.62320  0.66410  0.66410  Biso   1.000  C
  C1490    1.0000 0.59550  0.67920  0.67920  Biso   1.000  C
  C1491    1.0000 0.61470  0.65560  0.65560  Biso   1.000  C
  C1492    1.0000 0.58570  0.66950  0.66950  Biso   1.000  C
  C1493    1.0000 0.62320  0.16410  0.16410  Biso   1.000  C
  C1494    1.0000 0.59550  0.17920  0.17920  Biso   1.000  C
  C1495    1.0000 0.61470  0.15560  0.15560  Biso   1.000  C
  C1496    1.0000 0.58570  0.16950  0.16950  Biso   1.000  C
  C1497    1.0000 0.12320  0.66410  0.16410  Biso   1.000  C
  C1498    1.0000 0.09550  0.67920  0.17920  Biso   1.000  C
  C1499    1.0000 0.11470  0.65560  0.15560  Biso   1.000  C
  C1500    1.0000 0.08570  0.66950  0.16950  Biso   1.000  C
  C1501    1.0000 0.12320  0.16410  0.66410  Biso   1.000  C
  C1502    1.0000 0.09550  0.17920  0.67920  Biso   1.000  C
  C1503    1.0000 0.11470  0.15560  0.65560  Biso   1.000  C
  C1504    1.0000 0.08570  0.16950  0.66950  Biso   1.000  C
  C1505    1.0000 0.37680  0.33590  0.66410  Biso   1.000  C
  C1506    1.0000 0.40450  0.32080  0.67920  Biso   1.000  C
  C1507    1.0000 0.38530  0.34440  0.65560  Biso   1.000  C
  C1508    1.0000 0.41430  0.33050  0.66950  Biso   1.000  C
  C1509    1.0000 0.37680  0.83590  0.16410  Biso   1.000  C
  C1510    1.0000 0.40450  0.82080  0.17920  Biso   1.000  C
  C1511    1.0000 0.38530  0.84440  0.15560  Biso   1.000  C
  C1512    1.0000 0.41430  0.83050  0.16950  Biso   1.000  C
  C1513    1.0000 0.87680  0.33590  0.16410  Biso   1.000  C
  C1514    1.0000 0.90450  0.32080  0.17920  Biso   1.000  C
  C1515    1.0000 0.88530  0.34440  0.15560  Biso   1.000  C
  C1516    1.0000 0.91430  0.33050  0.16950  Biso   1.000  C
  C1517    1.0000 0.87680  0.83590  0.66410  Biso   1.000  C
  C1518    1.0000 0.90450  0.82080  0.67920  Biso   1.000  C
  C1519    1.0000 0.88530  0.84440  0.65560  Biso   1.000  C
  C1520    1.0000 0.91430  0.83050  0.66950  Biso   1.000  C
  C1521    1.0000 0.62320  0.33590  0.33590  Biso   1.000  C
  C1522    1.0000 0.59550  0.32080  0.32080  Biso   1.000  C
  C1523    1.0000 0.61470  0.34440  0.34440  Biso   1.000  C
  C1524    1.0000 0.58570  0.33050  0.33050  Biso   1.000  C
  C1525    1.0000 0.62320  0.83590  0.83590  Biso   1.000  C
  C1526    1.0000 0.59550  0.82080  0.82080  Biso   1.000  C
  C1527    1.0000 0.61470  0.84440  0.84440  Biso   1.000  C
  C1528    1.0000 0.58570  0.83050  0.83050  Biso   1.000  C
  C1529    1.0000 0.12320  0.33590  0.83590  Biso   1.000  C
  C1530    1.0000 0.09550  0.32080  0.82080  Biso   1.000  C
  C1531    1.0000 0.11470  0.34440  0.84440  Biso   1.000  C
  C1532    1.0000 0.08570  0.33050  0.83050  Biso   1.000  C
  C1533    1.0000 0.12320  0.83590  0.33590  Biso   1.000  C
  C1534    1.0000 0.09550  0.82080  0.32080  Biso   1.000  C
  C1535    1.0000 0.11470  0.84440  0.34440  Biso   1.000  C
  C1536    1.0000 0.08570  0.83050  0.33050  Biso   1.000  C
  C1537    1.0000 0.37680  0.33590  0.33590  Biso   1.000  C
  C1538    1.0000 0.40450  0.32080  0.32080  Biso   1.000  C
  C1539    1.0000 0.38530  0.34440  0.34440  Biso   1.000  C
  C1540    1.0000 0.41430  0.33050  0.33050  Biso   1.000  C
  C1541    1.0000 0.37680  0.83590  0.83590  Biso   1.000  C
  C1542    1.0000 0.40450  0.82080  0.82080  Biso   1.000  C
  C1543    1.0000 0.38530  0.84440  0.84440  Biso   1.000  C
  C1544    1.0000 0.41430  0.83050  0.83050  Biso   1.000  C
  C1545    1.0000 0.87680  0.33590  0.83590  Biso   1.000  C
  C1546    1.0000 0.90450  0.32080  0.82080  Biso   1.000  C
  C1547    1.0000 0.88530  0.34440  0.84440  Biso   1.000  C
  C1548    1.0000 0.91430  0.33050  0.83050  Biso   1.000  C
  C1549    1.0000 0.87680  0.83590  0.33590  Biso   1.000  C
  C1550    1.0000 0.90450  0.82080  0.32080  Biso   1.000  C
  C1551    1.0000 0.88530  0.84440  0.34440  Biso   1.000  C
  C1552    1.0000 0.91430  0.83050  0.33050  Biso   1.000  C
  C1553    1.0000 0.62320  0.66410  0.33590  Biso   1.000  C
  C1554    1.0000 0.59550  0.67920  0.32080  Biso   1.000  C
  C1555    1.0000 0.61470  0.65560  0.34440  Biso   1.000  C
  C1556    1.0000 0.58570  0.66950  0.33050  Biso   1.000  C
  C1557    1.0000 0.62320  0.16410  0.83590  Biso   1.000  C
  C1558    1.0000 0.59550  0.17920  0.82080  Biso   1.000  C
  C1559    1.0000 0.61470  0.15560  0.84440  Biso   1.000  C
  C1560    1.0000 0.58570  0.16950  0.83050  Biso   1.000  C
  C1561    1.0000 0.12320  0.66410  0.83590  Biso   1.000  C
  C1562    1.0000 0.09550  0.67920  0.82080  Biso   1.000  C
  C1563    1.0000 0.11470  0.65560  0.84440  Biso   1.000  C
  C1564    1.0000 0.08570  0.66950  0.83050  Biso   1.000  C
  C1565    1.0000 0.12320  0.16410  0.33590  Biso   1.000  C
  C1566    1.0000 0.09550  0.17920  0.32080  Biso   1.000  C
  C1567    1.0000 0.11470  0.15560  0.34440  Biso   1.000  C
  C1568    1.0000 0.08570  0.16950  0.33050  Biso   1.000  C
  C1569    1.0000 0.37680  0.66410  0.66410  Biso   1.000  C
  C1570    1.0000 0.40450  0.67920  0.67920  Biso   1.000  C
  C1571    1.0000 0.38530  0.65560  0.65560  Biso   1.000  C
  C1572    1.0000 0.41430  0.66950  0.66950  Biso   1.000  C
  C1573    1.0000 0.37680  0.16410  0.16410  Biso   1.000  C
  C1574    1.0000 0.40450  0.17920  0.17920  Biso   1.000  C
  C1575    1.0000 0.38530  0.15560  0.15560  Biso   1.000  C
  C1576    1.0000 0.41430  0.16950  0.16950  Biso   1.000  C
  C1577    1.0000 0.87680  0.66410  0.16410  Biso   1.000  C
  C1578    1.0000 0.90450  0.67920  0.17920  Biso   1.000  C
  C1579    1.0000 0.88530  0.65560  0.15560  Biso   1.000  C
  C1580    1.0000 0.91430  0.66950  0.16950  Biso   1.000  C
  C1581    1.0000 0.87680  0.16410  0.66410  Biso   1.000  C
  C1582    1.0000 0.90450  0.17920  0.67920  Biso   1.000  C
  C1583    1.0000 0.88530  0.15560  0.65560  Biso   1.000  C
  C1584    1.0000 0.91430  0.16950  0.66950  Biso   1.000  C
  C1585    1.0000 0.62320  0.33590  0.66410  Biso   1.000  C
  C1586    1.0000 0.59550  0.32080  0.67920  Biso   1.000  C
  C1587    1.0000 0.61470  0.34440  0.65560  Biso   1.000  C
  C1588    1.0000 0.58570  0.33050  0.66950  Biso   1.000  C
  C1589    1.0000 0.62320  0.83590  0.16410  Biso   1.000  C
  C1590    1.0000 0.59550  0.82080  0.17920  Biso   1.000  C
  C1591    1.0000 0.61470  0.84440  0.15560  Biso   1.000  C
  C1592    1.0000 0.58570  0.83050  0.16950  Biso   1.000  C
  C1593    1.0000 0.12320  0.33590  0.16410  Biso   1.000  C
  C1594    1.0000 0.09550  0.32080  0.17920  Biso   1.000  C
  C1595    1.0000 0.11470  0.34440  0.15560  Biso   1.000  C
  C1596    1.0000 0.08570  0.33050  0.16950  Biso   1.000  C
  C1597    1.0000 0.12320  0.83590  0.66410  Biso   1.000  C
  C1598    1.0000 0.09550  0.82080  0.67920  Biso   1.000  C
  C1599    1.0000 0.11470  0.84440  0.65560  Biso   1.000  C
  C1600    1.0000 0.08570  0.83050  0.66950  Biso   1.000  C
  C1601    1.0000 0.33590  0.66410  0.62320  Biso   1.000  C
  C1602    1.0000 0.32080  0.67920  0.59550  Biso   1.000  C
  C1603    1.0000 0.34440  0.65560  0.61470  Biso   1.000  C
  C1604    1.0000 0.33050  0.66950  0.58570  Biso   1.000  C
  C1605    1.0000 0.33590  0.16410  0.12320  Biso   1.000  C
  C1606    1.0000 0.32080  0.17920  0.09550  Biso   1.000  C
  C1607    1.0000 0.34440  0.15560  0.11470  Biso   1.000  C
  C1608    1.0000 0.33050  0.16950  0.08570  Biso   1.000  C
  C1609    1.0000 0.83590  0.66410  0.12320  Biso   1.000  C
  C1610    1.0000 0.82080  0.67920  0.09550  Biso   1.000  C
  C1611    1.0000 0.84440  0.65560  0.11470  Biso   1.000  C
  C1612    1.0000 0.83050  0.66950  0.08570  Biso   1.000  C
  C1613    1.0000 0.83590  0.16410  0.62320  Biso   1.000  C
  C1614    1.0000 0.82080  0.17920  0.59550  Biso   1.000  C
  C1615    1.0000 0.84440  0.15560  0.61470  Biso   1.000  C
  C1616    1.0000 0.83050  0.16950  0.58570  Biso   1.000  C
  C1617    1.0000 0.66410  0.66410  0.37680  Biso   1.000  C
  C1618    1.0000 0.67920  0.67920  0.40450  Biso   1.000  C
  C1619    1.0000 0.65560  0.65560  0.38530  Biso   1.000  C
  C1620    1.0000 0.66950  0.66950  0.41430  Biso   1.000  C
  C1621    1.0000 0.66410  0.16410  0.87680  Biso   1.000  C
  C1622    1.0000 0.67920  0.17920  0.90450  Biso   1.000  C
  C1623    1.0000 0.65560  0.15560  0.88530  Biso   1.000  C
  C1624    1.0000 0.66950  0.16950  0.91430  Biso   1.000  C
  C1625    1.0000 0.16410  0.66410  0.87680  Biso   1.000  C
  C1626    1.0000 0.17920  0.67920  0.90450  Biso   1.000  C
  C1627    1.0000 0.15560  0.65560  0.88530  Biso   1.000  C
  C1628    1.0000 0.16950  0.66950  0.91430  Biso   1.000  C
  C1629    1.0000 0.16410  0.16410  0.37680  Biso   1.000  C
  C1630    1.0000 0.17920  0.17920  0.40450  Biso   1.000  C
  C1631    1.0000 0.15560  0.15560  0.38530  Biso   1.000  C
  C1632    1.0000 0.16950  0.16950  0.41430  Biso   1.000  C
  C1633    1.0000 0.66410  0.33590  0.62320  Biso   1.000  C
  C1634    1.0000 0.67920  0.32080  0.59550  Biso   1.000  C
  C1635    1.0000 0.65560  0.34440  0.61470  Biso   1.000  C
  C1636    1.0000 0.66950  0.33050  0.58570  Biso   1.000  C
  C1637    1.0000 0.66410  0.83590  0.12320  Biso   1.000  C
  C1638    1.0000 0.67920  0.82080  0.09550  Biso   1.000  C
  C1639    1.0000 0.65560  0.84440  0.11470  Biso   1.000  C
  C1640    1.0000 0.66950  0.83050  0.08570  Biso   1.000  C
  C1641    1.0000 0.16410  0.33590  0.12320  Biso   1.000  C
  C1642    1.0000 0.17920  0.32080  0.09550  Biso   1.000  C
  C1643    1.0000 0.15560  0.34440  0.11470  Biso   1.000  C
  C1644    1.0000 0.16950  0.33050  0.08570  Biso   1.000  C
  C1645    1.0000 0.16410  0.83590  0.62320  Biso   1.000  C
  C1646    1.0000 0.17920  0.82080  0.59550  Biso   1.000  C
  C1647    1.0000 0.15560  0.84440  0.61470  Biso   1.000  C
  C1648    1.0000 0.16950  0.83050  0.58570  Biso   1.000  C
  C1649    1.0000 0.33590  0.33590  0.37680  Biso   1.000  C
  C1650    1.0000 0.32080  0.32080  0.40450  Biso   1.000  C
  C1651    1.0000 0.34440  0.34440  0.38530  Biso   1.000  C
  C1652    1.0000 0.33050  0.33050  0.41430  Biso   1.000  C
  C1653    1.0000 0.33590  0.83590  0.87680  Biso   1.000  C
  C1654    1.0000 0.32080  0.82080  0.90450  Biso   1.000  C
  C1655    1.0000 0.34440  0.84440  0.88530  Biso   1.000  C
  C1656    1.0000 0.33050  0.83050  0.91430  Biso   1.000  C
  C1657    1.0000 0.83590  0.33590  0.87680  Biso   1.000  C
  C1658    1.0000 0.82080  0.32080  0.90450  Biso   1.000  C
  C1659    1.0000 0.84440  0.34440  0.88530  Biso   1.000  C
  C1660    1.0000 0.83050  0.33050  0.91430  Biso   1.000  C
  C1661    1.0000 0.83590  0.83590  0.37680  Biso   1.000  C
  C1662    1.0000 0.82080  0.82080  0.40450  Biso   1.000  C
  C1663    1.0000 0.84440  0.84440  0.38530  Biso   1.000  C
  C1664    1.0000 0.83050  0.83050  0.41430  Biso   1.000  C
  C1665    1.0000 0.66410  0.37680  0.66410  Biso   1.000  C
  C1666    1.0000 0.67920  0.40450  0.67920  Biso   1.000  C
  C1667    1.0000 0.65560  0.38530  0.65560  Biso   1.000  C
  C1668    1.0000 0.66950  0.41430  0.66950  Biso   1.000  C
  C1669    1.0000 0.66410  0.87680  0.16410  Biso   1.000  C
  C1670    1.0000 0.67920  0.90450  0.17920  Biso   1.000  C
  C1671    1.0000 0.65560  0.88530  0.15560  Biso   1.000  C
  C1672    1.0000 0.66950  0.91430  0.16950  Biso   1.000  C
  C1673    1.0000 0.16410  0.37680  0.16410  Biso   1.000  C
  C1674    1.0000 0.17920  0.40450  0.17920  Biso   1.000  C
  C1675    1.0000 0.15560  0.38530  0.15560  Biso   1.000  C
  C1676    1.0000 0.16950  0.41430  0.16950  Biso   1.000  C
  C1677    1.0000 0.16410  0.87680  0.66410  Biso   1.000  C
  C1678    1.0000 0.17920  0.90450  0.67920  Biso   1.000  C
  C1679    1.0000 0.15560  0.88530  0.65560  Biso   1.000  C
  C1680    1.0000 0.16950  0.91430  0.66950  Biso   1.000  C
  C1681    1.0000 0.66410  0.62320  0.33590  Biso   1.000  C
  C1682    1.0000 0.67920  0.59550  0.32080  Biso   1.000  C
  C1683    1.0000 0.65560  0.61470  0.34440  Biso   1.000  C
  C1684    1.0000 0.66950  0.58570  0.33050  Biso   1.000  C
  C1685    1.0000 0.66410  0.12320  0.83590  Biso   1.000  C
  C1686    1.0000 0.67920  0.09550  0.82080  Biso   1.000  C
  C1687    1.0000 0.65560  0.11470  0.84440  Biso   1.000  C
  C1688    1.0000 0.66950  0.08570  0.83050  Biso   1.000  C
  C1689    1.0000 0.16410  0.62320  0.83590  Biso   1.000  C
  C1690    1.0000 0.17920  0.59550  0.82080  Biso   1.000  C
  C1691    1.0000 0.15560  0.61470  0.84440  Biso   1.000  C
  C1692    1.0000 0.16950  0.58570  0.83050  Biso   1.000  C
  C1693    1.0000 0.16410  0.12320  0.33590  Biso   1.000  C
  C1694    1.0000 0.17920  0.09550  0.32080  Biso   1.000  C
  C1695    1.0000 0.15560  0.11470  0.34440  Biso   1.000  C
  C1696    1.0000 0.16950  0.08570  0.33050  Biso   1.000  C
  C1697    1.0000 0.33590  0.37680  0.33590  Biso   1.000  C
  C1698    1.0000 0.32080  0.40450  0.32080  Biso   1.000  C
  C1699    1.0000 0.34440  0.38530  0.34440  Biso   1.000  C
  C1700    1.0000 0.33050  0.41430  0.33050  Biso   1.000  C
  C1701    1.0000 0.33590  0.87680  0.83590  Biso   1.000  C
  C1702    1.0000 0.32080  0.90450  0.82080  Biso   1.000  C
  C1703    1.0000 0.34440  0.88530  0.84440  Biso   1.000  C
  C1704    1.0000 0.33050  0.91430  0.83050  Biso   1.000  C
  C1705    1.0000 0.83590  0.37680  0.83590  Biso   1.000  C
  C1706    1.0000 0.82080  0.40450  0.82080  Biso   1.000  C
  C1707    1.0000 0.84440  0.38530  0.84440  Biso   1.000  C
  C1708    1.0000 0.83050  0.41430  0.83050  Biso   1.000  C
  C1709    1.0000 0.83590  0.87680  0.33590  Biso   1.000  C
  C1710    1.0000 0.82080  0.90450  0.32080  Biso   1.000  C
  C1711    1.0000 0.84440  0.88530  0.34440  Biso   1.000  C
  C1712    1.0000 0.83050  0.91430  0.33050  Biso   1.000  C
  C1713    1.0000 0.33590  0.62320  0.66410  Biso   1.000  C
  C1714    1.0000 0.32080  0.59550  0.67920  Biso   1.000  C
  C1715    1.0000 0.34440  0.61470  0.65560  Biso   1.000  C
  C1716    1.0000 0.33050  0.58570  0.66950  Biso   1.000  C
  C1717    1.0000 0.33590  0.12320  0.16410  Biso   1.000  C
  C1718    1.0000 0.32080  0.09550  0.17920  Biso   1.000  C
  C1719    1.0000 0.34440  0.11470  0.15560  Biso   1.000  C
  C1720    1.0000 0.33050  0.08570  0.16950  Biso   1.000  C
  C1721    1.0000 0.83590  0.62320  0.16410  Biso   1.000  C
  C1722    1.0000 0.82080  0.59550  0.17920  Biso   1.000  C
  C1723    1.0000 0.84440  0.61470  0.15560  Biso   1.000  C
  C1724    1.0000 0.83050  0.58570  0.16950  Biso   1.000  C
  C1725    1.0000 0.83590  0.12320  0.66410  Biso   1.000  C
  C1726    1.0000 0.82080  0.09550  0.67920  Biso   1.000  C
  C1727    1.0000 0.84440  0.11470  0.65560  Biso   1.000  C
  C1728    1.0000 0.83050  0.08570  0.66950  Biso   1.000  C
