data_image0
_cell_length_a       15.482
_cell_length_b       15.482
_cell_length_c       40.32
_cell_angle_alpha    90
_cell_angle_beta     90
_cell_angle_gamma    120

_symmetry_space_group_name_H-M    "P 1"
_symmetry_int_tables_number       1

loop_
  _symmetry_equiv_pos_as_xyz
  'x, y, z'

loop_
  _atom_site_label
  _atom_site_occupancy
  _atom_site_fract_x
  _atom_site_fract_y
  _atom_site_fract_z
  _atom_site_thermal_displace_type
  _atom_site_B_iso_or_equiv
  _atom_site_type_symbol
  O1       1.0000 0.03340  0.15950  0.07660  Biso   1.000  O
  O2       1.0000 0.99730  0.16500  0.12870  Biso   1.000  O
  O3       1.0000 0.75060  0.05220  0.12910  Biso   1.000  O
  O4       1.0000 0.82850  0.17120  0.16740  Biso   1.000  O
  C1       1.0000 0.04890  0.15020  0.10520  Biso   1.000  C
  C2       1.0000 0.12060  0.12170  0.11780  Biso   1.000  C
  C3       1.0000 0.12760  0.10020  0.15080  Biso   1.000  C
  H1       1.0000 0.09000  0.10950  0.16680  Biso   1.000  H
  C4       1.0000 0.19100  0.06480  0.15980  Biso   1.000  C
  H2       1.0000 0.19560  0.05040  0.18190  Biso   1.000  H
  C5       1.0000 0.24730  0.05080  0.13580  Biso   1.000  C
  C6       1.0000 0.24030  0.07230  0.10280  Biso   1.000  C
  H3       1.0000 0.27800  0.06300  0.08670  Biso   1.000  H
  C7       1.0000 0.17700  0.10780  0.09370  Biso   1.000  C
  H4       1.0000 0.17230  0.12210  0.07160  Biso   1.000  H
  O5       1.0000 0.28890  0.96500  0.17730  Biso   1.000  O
  C8       1.0000 0.30870  0.00620  0.15000  Biso   1.000  C
  C9       1.0000 0.39620  0.01200  0.13000  Biso   1.000  C
  C10      1.0000 0.48930  0.09290  0.12240  Biso   1.000  C
  H5       1.0000 0.50840  0.15550  0.13120  Biso   1.000  H
  C11      1.0000 0.55400  0.08020  0.10180  Biso   1.000  C
  H6       1.0000 0.61640  0.13420  0.09680  Biso   1.000  H
  C12      1.0000 0.52560  0.98700  0.08870  Biso   1.000  C
  C13      1.0000 0.43200  0.90590  0.09620  Biso   1.000  C
  H7       1.0000 0.41340  0.84330  0.08750  Biso   1.000  H
  C14      1.0000 0.36770  0.91860  0.11680  Biso   1.000  C
  H8       1.0000 0.30540  0.86460  0.12190  Biso   1.000  H
  C15      1.0000 0.60340  0.98070  0.06680  Biso   1.000  C
  O6       1.0000 0.57160  0.89670  0.05540  Biso   1.000  O
  O7       1.0000 0.68600  0.05480  0.06260  Biso   1.000  O
  O8       1.0000 0.27810  0.92410  0.15710  Biso   1.000  O
  C16      1.0000 0.30540  0.99490  0.13710  Biso   1.000  C
  C17      1.0000 0.39530  0.02340  0.11470  Biso   1.000  C
  C18      1.0000 0.45890  0.12440  0.10870  Biso   1.000  C
  H9       1.0000 0.44060  0.17060  0.11530  Biso   1.000  H
  C19      1.0000 0.55000  0.15630  0.09310  Biso   1.000  C
  H10      1.0000 0.59260  0.22390  0.08920  Biso   1.000  H
  C20      1.0000 0.57750  0.08730  0.08340  Biso   1.000  C
  C21      1.0000 0.51390  0.98630  0.08930  Biso   1.000  C
  H11      1.0000 0.53220  0.94010  0.08280  Biso   1.000  H
  C22      1.0000 0.42280  0.95430  0.10490  Biso   1.000  C
  H12      1.0000 0.38020  0.88670  0.10890  Biso   1.000  H
  C23      1.0000 0.68190  0.11780  0.07000  Biso   1.000  C
  O9       1.0000 0.68400  0.04540  0.05860  Biso   1.000  O
  O10      1.0000 0.74050  0.20700  0.07360  Biso   1.000  O
  C24      1.0000 0.75600  0.08800  0.15690  Biso   1.000  C
  C25      1.0000 0.67640  0.03250  0.18290  Biso   1.000  C
  C26      1.0000 0.68430  0.07170  0.21450  Biso   1.000  C
  H13      1.0000 0.74090  0.13110  0.22040  Biso   1.000  H
  C27      1.0000 0.60760  0.02200  0.23730  Biso   1.000  C
  H14      1.0000 0.61290  0.04830  0.25840  Biso   1.000  H
  C28      1.0000 0.52300  0.93320  0.22850  Biso   1.000  C
  C29      1.0000 0.51510  0.89400  0.19690  Biso   1.000  C
  H15      1.0000 0.45850  0.83450  0.19100  Biso   1.000  H
  C30      1.0000 0.59180  0.94360  0.17410  Biso   1.000  C
  H16      1.0000 0.58650  0.91740  0.15300  Biso   1.000  H
  N1       1.0000 0.09460  0.49920  0.17010  Biso   1.000  N
  C31      1.0000 0.19820  0.54820  0.17110  Biso   1.000  C
  H17      1.0000 0.23100  0.51170  0.17140  Biso   1.000  H
  C32      1.0000 0.25280  0.65180  0.17170  Biso   1.000  C
  H18      1.0000 0.32210  0.68460  0.17230  Biso   1.000  H
  C33      1.0000 0.20380  0.70640  0.17130  Biso   1.000  C
  H19      1.0000 0.24030  0.77580  0.17170  Biso   1.000  H
  C34      1.0000 0.10020  0.65740  0.17030  Biso   1.000  C
  C35      1.0000 0.04560  0.55380  0.16970  Biso   1.000  C
  C36      1.0000 0.04640  0.70800  0.16980  Biso   1.000  C
  H20      1.0000 0.07890  0.77610  0.17410  Biso   1.000  H
  O11      1.0000 0.84050  0.87390  0.74327  Biso   1.000  O
  O12      1.0000 0.83500  0.83230  0.79537  Biso   1.000  O
  O13      1.0000 0.94780  0.69840  0.79577  Biso   1.000  O
  O14      1.0000 0.82880  0.65730  0.83407  Biso   1.000  O
  C37      1.0000 0.84980  0.89870  0.77187  Biso   1.000  C
  C38      1.0000 0.87830  0.99890  0.78447  Biso   1.000  C
  C39      1.0000 0.89980  0.02740  0.81747  Biso   1.000  C
  H21      1.0000 0.89050  0.98050  0.83347  Biso   1.000  H
  C40      1.0000 0.93520  0.12620  0.82647  Biso   1.000  C
  H22      1.0000 0.94960  0.14520  0.84857  Biso   1.000  H
  C41      1.0000 0.94920  0.19650  0.80247  Biso   1.000  C
  C42      1.0000 0.92770  0.16800  0.76947  Biso   1.000  C
  H23      1.0000 0.93700  0.21500  0.75337  Biso   1.000  H
  C43      1.0000 0.89220  0.06920  0.76037  Biso   1.000  C
  H24      1.0000 0.87790  0.05020  0.73827  Biso   1.000  H
  O15      1.0000 0.03500  0.32390  0.84397  Biso   1.000  O
  C44      1.0000 0.99380  0.30250  0.81667  Biso   1.000  C
  C45      1.0000 0.98800  0.38420  0.79667  Biso   1.000  C
  C46      1.0000 0.90710  0.39640  0.78907  Biso   1.000  C
  H25      1.0000 0.84450  0.35290  0.79787  Biso   1.000  H
  C47      1.0000 0.91980  0.47380  0.76847  Biso   1.000  C
  H26      1.0000 0.86580  0.48220  0.76347  Biso   1.000  H
  C48      1.0000 0.01300  0.53860  0.75537  Biso   1.000  C
  C49      1.0000 0.09410  0.52610  0.76287  Biso   1.000  C
  H27      1.0000 0.15670  0.57010  0.75417  Biso   1.000  H
  C50      1.0000 0.08140  0.44910  0.78347  Biso   1.000  C
  H28      1.0000 0.13540  0.44080  0.78857  Biso   1.000  H
  C51      1.0000 0.01930  0.62270  0.73347  Biso   1.000  C
  O16      1.0000 0.10330  0.67490  0.72207  Biso   1.000  O
  O17      1.0000 0.94520  0.63120  0.72927  Biso   1.000  O
  O18      1.0000 0.07590  0.35400  0.82377  Biso   1.000  O
  C52      1.0000 0.00510  0.31050  0.80377  Biso   1.000  C
  C53      1.0000 0.97660  0.37190  0.78137  Biso   1.000  C
  C54      1.0000 0.87560  0.33450  0.77537  Biso   1.000  C
  H29      1.0000 0.82940  0.27000  0.78197  Biso   1.000  H
  C55      1.0000 0.84370  0.39370  0.75977  Biso   1.000  C
  H30      1.0000 0.77610  0.36870  0.75587  Biso   1.000  H
  C56      1.0000 0.91270  0.49020  0.75007  Biso   1.000  C
  C57      1.0000 0.01370  0.52760  0.75597  Biso   1.000  C
  H31      1.0000 0.05990  0.59210  0.74947  Biso   1.000  H
  C58      1.0000 0.04570  0.46850  0.77157  Biso   1.000  C
  H32      1.0000 0.11330  0.49350  0.77557  Biso   1.000  H
  C59      1.0000 0.88220  0.56410  0.73667  Biso   1.000  C
  O19      1.0000 0.95460  0.63860  0.72527  Biso   1.000  O
  O20      1.0000 0.79300  0.53350  0.74027  Biso   1.000  O
  C60      1.0000 0.91200  0.66800  0.82357  Biso   1.000  C
  C61      1.0000 0.96750  0.64390  0.84957  Biso   1.000  C
  C62      1.0000 0.92830  0.61260  0.88117  Biso   1.000  C
  H33      1.0000 0.86890  0.60980  0.88707  Biso   1.000  H
  C63      1.0000 0.97800  0.58560  0.90397  Biso   1.000  C
  H34      1.0000 0.95170  0.56460  0.92507  Biso   1.000  H
  C64      1.0000 0.06680  0.58980  0.89517  Biso   1.000  C
  C65      1.0000 0.10600  0.62110  0.86357  Biso   1.000  C
  H35      1.0000 0.16550  0.62400  0.85767  Biso   1.000  H
  C66      1.0000 0.05640  0.64820  0.84077  Biso   1.000  C
  H36      1.0000 0.08260  0.66910  0.81967  Biso   1.000  H
  N2       1.0000 0.50080  0.59540  0.83677  Biso   1.000  N
  C67      1.0000 0.45180  0.65000  0.83777  Biso   1.000  C
  H37      1.0000 0.48830  0.71930  0.83807  Biso   1.000  H
  C68      1.0000 0.34820  0.60100  0.83837  Biso   1.000  C
  H38      1.0000 0.31540  0.63750  0.83897  Biso   1.000  H
  C69      1.0000 0.29360  0.49740  0.83797  Biso   1.000  C
  H39      1.0000 0.22420  0.46450  0.83837  Biso   1.000  H
  C70      1.0000 0.34260  0.44280  0.83697  Biso   1.000  C
  C71      1.0000 0.44620  0.49180  0.83637  Biso   1.000  C
  C72      1.0000 0.29200  0.33840  0.83647  Biso   1.000  C
  H40      1.0000 0.22390  0.30280  0.84077  Biso   1.000  H
  O21      1.0000 0.12610  0.96660  0.40993  Biso   1.000  O
  O22      1.0000 0.16770  0.00270  0.46203  Biso   1.000  O
  O23      1.0000 0.30160  0.24940  0.46243  Biso   1.000  O
  O24      1.0000 0.34270  0.17150  0.50073  Biso   1.000  O
  C73      1.0000 0.10130  0.95110  0.43853  Biso   1.000  C
  C74      1.0000 0.00110  0.87940  0.45113  Biso   1.000  C
  C75      1.0000 0.97260  0.87240  0.48413  Biso   1.000  C
  H41      1.0000 0.01950  0.91000  0.50013  Biso   1.000  H
  C76      1.0000 0.87380  0.80900  0.49313  Biso   1.000  C
  H42      1.0000 0.85480  0.80440  0.51523  Biso   1.000  H
  C77      1.0000 0.80350  0.75270  0.46913  Biso   1.000  C
  C78      1.0000 0.83200  0.75970  0.43613  Biso   1.000  C
  H43      1.0000 0.78500  0.72200  0.42003  Biso   1.000  H
  C79      1.0000 0.93080  0.82300  0.42703  Biso   1.000  C
  H44      1.0000 0.94980  0.82770  0.40493  Biso   1.000  H
  O25      1.0000 0.67610  0.71110  0.51063  Biso   1.000  O
  C80      1.0000 0.69750  0.69130  0.48333  Biso   1.000  C
  C81      1.0000 0.61580  0.60380  0.46333  Biso   1.000  C
  C82      1.0000 0.60360  0.51070  0.45573  Biso   1.000  C
  H45      1.0000 0.64710  0.49160  0.46453  Biso   1.000  H
  C83      1.0000 0.52620  0.44600  0.43513  Biso   1.000  C
  H46      1.0000 0.51780  0.38360  0.43013  Biso   1.000  H
  C84      1.0000 0.46140  0.47440  0.42203  Biso   1.000  C
  C85      1.0000 0.47390  0.56800  0.42953  Biso   1.000  C
  H47      1.0000 0.42990  0.58660  0.42083  Biso   1.000  H
  C86      1.0000 0.55090  0.63230  0.45013  Biso   1.000  C
  H48      1.0000 0.55920  0.69460  0.45523  Biso   1.000  H
  C87      1.0000 0.37730  0.39660  0.40013  Biso   1.000  C
  O26      1.0000 0.32510  0.42840  0.38873  Biso   1.000  O
  O27      1.0000 0.36880  0.31400  0.39593  Biso   1.000  O
  O28      1.0000 0.64600  0.72190  0.49043  Biso   1.000  O
  C88      1.0000 0.68950  0.69460  0.47043  Biso   1.000  C
  C89      1.0000 0.62810  0.60470  0.44803  Biso   1.000  C
  C90      1.0000 0.66550  0.54110  0.44203  Biso   1.000  C
  H49      1.0000 0.73000  0.55940  0.44863  Biso   1.000  H
  C91      1.0000 0.60630  0.45000  0.42643  Biso   1.000  C
  H50      1.0000 0.63130  0.40740  0.42253  Biso   1.000  H
  C92      1.0000 0.50980  0.42250  0.41673  Biso   1.000  C
  C93      1.0000 0.47240  0.48610  0.42263  Biso   1.000  C
  H51      1.0000 0.40790  0.46780  0.41613  Biso   1.000  H
  C94      1.0000 0.53150  0.57720  0.43823  Biso   1.000  C
  H52      1.0000 0.50650  0.61980  0.44223  Biso   1.000  H
  C95      1.0000 0.43590  0.31810  0.40333  Biso   1.000  C
  O29      1.0000 0.36140  0.31600  0.39193  Biso   1.000  O
  O30      1.0000 0.46650  0.25950  0.40693  Biso   1.000  O
  C96      1.0000 0.33200  0.24400  0.49023  Biso   1.000  C
  C97      1.0000 0.35610  0.32360  0.51623  Biso   1.000  C
  C98      1.0000 0.38740  0.31570  0.54783  Biso   1.000  C
  H53      1.0000 0.39020  0.25910  0.55373  Biso   1.000  H
  C99      1.0000 0.41440  0.39240  0.57063  Biso   1.000  C
  H54      1.0000 0.43540  0.38710  0.59173  Biso   1.000  H
  C100     1.0000 0.41020  0.47700  0.56183  Biso   1.000  C
  C101     1.0000 0.37890  0.48490  0.53023  Biso   1.000  C
  H55      1.0000 0.37600  0.54150  0.52433  Biso   1.000  H
  C102     1.0000 0.35180  0.40820  0.50743  Biso   1.000  C
  H56      1.0000 0.33090  0.41350  0.48633  Biso   1.000  H
  N3       1.0000 0.40460  0.90540  0.50343  Biso   1.000  N
  C103     1.0000 0.35000  0.80180  0.50443  Biso   1.000  C
  H57      1.0000 0.28070  0.76900  0.50473  Biso   1.000  H
  C104     1.0000 0.39900  0.74720  0.50503  Biso   1.000  C
  H58      1.0000 0.36250  0.67790  0.50563  Biso   1.000  H
  C105     1.0000 0.50260  0.79620  0.50463  Biso   1.000  C
  H59      1.0000 0.53550  0.75970  0.50503  Biso   1.000  H
  C106     1.0000 0.55720  0.89980  0.50363  Biso   1.000  C
  C107     1.0000 0.50820  0.95440  0.50303  Biso   1.000  C
  C108     1.0000 0.66160  0.95360  0.50313  Biso   1.000  C
  H60      1.0000 0.69720  0.92110  0.50743  Biso   1.000  H
  O31      1.0000 0.96660  0.84050  0.57660  Biso   1.000  O
  O32      1.0000 0.00270  0.83500  0.62870  Biso   1.000  O
  O33      1.0000 0.24940  0.94780  0.62910  Biso   1.000  O
  O34      1.0000 0.17150  0.82880  0.66740  Biso   1.000  O
  C109     1.0000 0.95110  0.84980  0.60520  Biso   1.000  C
  C110     1.0000 0.87940  0.87830  0.61780  Biso   1.000  C
  C111     1.0000 0.87240  0.89980  0.65080  Biso   1.000  C
  H61      1.0000 0.91000  0.89050  0.66680  Biso   1.000  H
  C112     1.0000 0.80900  0.93520  0.65980  Biso   1.000  C
  H62      1.0000 0.80440  0.94960  0.68190  Biso   1.000  H
  C113     1.0000 0.75270  0.94920  0.63580  Biso   1.000  C
  C114     1.0000 0.75970  0.92770  0.60280  Biso   1.000  C
  H63      1.0000 0.72200  0.93700  0.58670  Biso   1.000  H
  C115     1.0000 0.82300  0.89220  0.59370  Biso   1.000  C
  H64      1.0000 0.82770  0.87790  0.57160  Biso   1.000  H
  O35      1.0000 0.71110  0.03500  0.67730  Biso   1.000  O
  C116     1.0000 0.69130  0.99380  0.65000  Biso   1.000  C
  C117     1.0000 0.60380  0.98800  0.63000  Biso   1.000  C
  C118     1.0000 0.51070  0.90710  0.62240  Biso   1.000  C
  H65      1.0000 0.49160  0.84450  0.63120  Biso   1.000  H
  C119     1.0000 0.44600  0.91980  0.60180  Biso   1.000  C
  H66      1.0000 0.38360  0.86580  0.59680  Biso   1.000  H
  C120     1.0000 0.47440  0.01300  0.58870  Biso   1.000  C
  C121     1.0000 0.56800  0.09410  0.59620  Biso   1.000  C
  H67      1.0000 0.58660  0.15670  0.58750  Biso   1.000  H
  C122     1.0000 0.63230  0.08140  0.61680  Biso   1.000  C
  H68      1.0000 0.69460  0.13540  0.62190  Biso   1.000  H
  C123     1.0000 0.39660  0.01930  0.56680  Biso   1.000  C
  O36      1.0000 0.42840  0.10330  0.55540  Biso   1.000  O
  O37      1.0000 0.31400  0.94520  0.56260  Biso   1.000  O
  O38      1.0000 0.72190  0.07590  0.65710  Biso   1.000  O
  C124     1.0000 0.69460  0.00510  0.63710  Biso   1.000  C
  C125     1.0000 0.60470  0.97660  0.61470  Biso   1.000  C
  C126     1.0000 0.54110  0.87560  0.60870  Biso   1.000  C
  H69      1.0000 0.55940  0.82940  0.61530  Biso   1.000  H
  C127     1.0000 0.45000  0.84370  0.59310  Biso   1.000  C
  H70      1.0000 0.40740  0.77610  0.58920  Biso   1.000  H
  C128     1.0000 0.42250  0.91270  0.58340  Biso   1.000  C
  C129     1.0000 0.48610  0.01370  0.58930  Biso   1.000  C
  H71      1.0000 0.46780  0.05990  0.58280  Biso   1.000  H
  C130     1.0000 0.57720  0.04570  0.60490  Biso   1.000  C
  H72      1.0000 0.61980  0.11330  0.60890  Biso   1.000  H
  C131     1.0000 0.31810  0.88220  0.57000  Biso   1.000  C
  O39      1.0000 0.31600  0.95460  0.55860  Biso   1.000  O
  O40      1.0000 0.25950  0.79300  0.57360  Biso   1.000  O
  C132     1.0000 0.24400  0.91200  0.65690  Biso   1.000  C
  C133     1.0000 0.32360  0.96750  0.68290  Biso   1.000  C
  C134     1.0000 0.31570  0.92830  0.71450  Biso   1.000  C
  H73      1.0000 0.25910  0.86890  0.72040  Biso   1.000  H
  C135     1.0000 0.39240  0.97800  0.73730  Biso   1.000  C
  H74      1.0000 0.38710  0.95170  0.75840  Biso   1.000  H
  C136     1.0000 0.47700  0.06680  0.72850  Biso   1.000  C
  C137     1.0000 0.48490  0.10600  0.69690  Biso   1.000  C
  H75      1.0000 0.54150  0.16550  0.69100  Biso   1.000  H
  C138     1.0000 0.40820  0.05640  0.67410  Biso   1.000  C
  H76      1.0000 0.41350  0.08260  0.65300  Biso   1.000  H
  N4       1.0000 0.90540  0.50080  0.67010  Biso   1.000  N
  C139     1.0000 0.80180  0.45180  0.67110  Biso   1.000  C
  H77      1.0000 0.76900  0.48830  0.67140  Biso   1.000  H
  C140     1.0000 0.74720  0.34820  0.67170  Biso   1.000  C
  H78      1.0000 0.67790  0.31540  0.67230  Biso   1.000  H
  C141     1.0000 0.79620  0.29360  0.67130  Biso   1.000  C
  H79      1.0000 0.75970  0.22420  0.67170  Biso   1.000  H
  C142     1.0000 0.89980  0.34260  0.67030  Biso   1.000  C
  C143     1.0000 0.95440  0.44620  0.66970  Biso   1.000  C
  C144     1.0000 0.95360  0.29200  0.66980  Biso   1.000  C
  H80      1.0000 0.92110  0.22390  0.67410  Biso   1.000  H
  O41      1.0000 0.15950  0.12610  0.24327  Biso   1.000  O
  O42      1.0000 0.16500  0.16770  0.29537  Biso   1.000  O
  O43      1.0000 0.05220  0.30160  0.29577  Biso   1.000  O
  O44      1.0000 0.17120  0.34270  0.33407  Biso   1.000  O
  C145     1.0000 0.15020  0.10130  0.27187  Biso   1.000  C
  C146     1.0000 0.12170  0.00110  0.28447  Biso   1.000  C
  C147     1.0000 0.10020  0.97260  0.31747  Biso   1.000  C
  H81      1.0000 0.10950  0.01950  0.33347  Biso   1.000  H
  C148     1.0000 0.06480  0.87380  0.32647  Biso   1.000  C
  H82      1.0000 0.05040  0.85480  0.34857  Biso   1.000  H
  C149     1.0000 0.05080  0.80350  0.30247  Biso   1.000  C
  C150     1.0000 0.07230  0.83200  0.26947  Biso   1.000  C
  H83      1.0000 0.06300  0.78500  0.25337  Biso   1.000  H
  C151     1.0000 0.10780  0.93080  0.26037  Biso   1.000  C
  H84      1.0000 0.12210  0.94980  0.23827  Biso   1.000  H
  O45      1.0000 0.96500  0.67610  0.34397  Biso   1.000  O
  C152     1.0000 0.00620  0.69750  0.31667  Biso   1.000  C
  C153     1.0000 0.01200  0.61580  0.29667  Biso   1.000  C
  C154     1.0000 0.09290  0.60360  0.28907  Biso   1.000  C
  H85      1.0000 0.15550  0.64710  0.29787  Biso   1.000  H
  C155     1.0000 0.08020  0.52620  0.26847  Biso   1.000  C
  H86      1.0000 0.13420  0.51780  0.26347  Biso   1.000  H
  C156     1.0000 0.98700  0.46140  0.25537  Biso   1.000  C
  C157     1.0000 0.90590  0.47390  0.26287  Biso   1.000  C
  H87      1.0000 0.84330  0.42990  0.25417  Biso   1.000  H
  C158     1.0000 0.91860  0.55090  0.28347  Biso   1.000  C
  H88      1.0000 0.86460  0.55920  0.28857  Biso   1.000  H
  C159     1.0000 0.98070  0.37730  0.23347  Biso   1.000  C
  O46      1.0000 0.89670  0.32510  0.22207  Biso   1.000  O
  O47      1.0000 0.05480  0.36880  0.22927  Biso   1.000  O
  O48      1.0000 0.92410  0.64600  0.32377  Biso   1.000  O
  C160     1.0000 0.99490  0.68950  0.30377  Biso   1.000  C
  C161     1.0000 0.02340  0.62810  0.28137  Biso   1.000  C
  C162     1.0000 0.12440  0.66550  0.27537  Biso   1.000  C
  H89      1.0000 0.17060  0.73000  0.28197  Biso   1.000  H
  C163     1.0000 0.15630  0.60630  0.25977  Biso   1.000  C
  H90      1.0000 0.22390  0.63130  0.25587  Biso   1.000  H
  C164     1.0000 0.08730  0.50980  0.25007  Biso   1.000  C
  C165     1.0000 0.98630  0.47240  0.25597  Biso   1.000  C
  H91      1.0000 0.94010  0.40790  0.24947  Biso   1.000  H
  C166     1.0000 0.95430  0.53150  0.27157  Biso   1.000  C
  H92      1.0000 0.88670  0.50650  0.27557  Biso   1.000  H
  C167     1.0000 0.11780  0.43590  0.23667  Biso   1.000  C
  O49      1.0000 0.04540  0.36140  0.22527  Biso   1.000  O
  O50      1.0000 0.20700  0.46650  0.24027  Biso   1.000  O
  C168     1.0000 0.08800  0.33200  0.32357  Biso   1.000  C
  C169     1.0000 0.03250  0.35610  0.34957  Biso   1.000  C
  C170     1.0000 0.07170  0.38740  0.38117  Biso   1.000  C
  H93      1.0000 0.13110  0.39020  0.38707  Biso   1.000  H
  C171     1.0000 0.02200  0.41440  0.40397  Biso   1.000  C
  H94      1.0000 0.04830  0.43540  0.42507  Biso   1.000  H
  C172     1.0000 0.93320  0.41020  0.39517  Biso   1.000  C
  C173     1.0000 0.89400  0.37890  0.36357  Biso   1.000  C
  H95      1.0000 0.83450  0.37600  0.35767  Biso   1.000  H
  C174     1.0000 0.94360  0.35180  0.34077  Biso   1.000  C
  H96      1.0000 0.91740  0.33090  0.31967  Biso   1.000  H
  N5       1.0000 0.49920  0.40460  0.33677  Biso   1.000  N
  C175     1.0000 0.54820  0.35000  0.33777  Biso   1.000  C
  H97      1.0000 0.51170  0.28070  0.33807  Biso   1.000  H
  C176     1.0000 0.65180  0.39900  0.33837  Biso   1.000  C
  H98      1.0000 0.68460  0.36250  0.33897  Biso   1.000  H
  C177     1.0000 0.70640  0.50260  0.33797  Biso   1.000  C
  H99      1.0000 0.77580  0.53550  0.33837  Biso   1.000  H
  C178     1.0000 0.65740  0.55720  0.33697  Biso   1.000  C
  C179     1.0000 0.55380  0.50820  0.33637  Biso   1.000  C
  C180     1.0000 0.70800  0.66160  0.33647  Biso   1.000  C
  H100     1.0000 0.77610  0.69720  0.34077  Biso   1.000  H
  O51      1.0000 0.87390  0.03340  0.90993  Biso   1.000  O
  O52      1.0000 0.83230  0.99730  0.96203  Biso   1.000  O
  O53      1.0000 0.69840  0.75060  0.96243  Biso   1.000  O
  O54      1.0000 0.65730  0.82850  0.00073  Biso   1.000  O
  C181     1.0000 0.89870  0.04890  0.93853  Biso   1.000  C
  C182     1.0000 0.99890  0.12060  0.95113  Biso   1.000  C
  C183     1.0000 0.02740  0.12760  0.98413  Biso   1.000  C
  H101     1.0000 0.98050  0.09000  0.00013  Biso   1.000  H
  C184     1.0000 0.12620  0.19100  0.99313  Biso   1.000  C
  H102     1.0000 0.14520  0.19560  0.01523  Biso   1.000  H
  C185     1.0000 0.19650  0.24730  0.96913  Biso   1.000  C
  C186     1.0000 0.16800  0.24030  0.93613  Biso   1.000  C
  H103     1.0000 0.21500  0.27800  0.92003  Biso   1.000  H
  C187     1.0000 0.06920  0.17700  0.92703  Biso   1.000  C
  H104     1.0000 0.05020  0.17230  0.90493  Biso   1.000  H
  O55      1.0000 0.32390  0.28890  0.01063  Biso   1.000  O
  C188     1.0000 0.30250  0.30870  0.98333  Biso   1.000  C
  C189     1.0000 0.38420  0.39620  0.96333  Biso   1.000  C
  C190     1.0000 0.39640  0.48930  0.95573  Biso   1.000  C
  H105     1.0000 0.35290  0.50840  0.96453  Biso   1.000  H
  C191     1.0000 0.47380  0.55400  0.93513  Biso   1.000  C
  H106     1.0000 0.48220  0.61640  0.93013  Biso   1.000  H
  C192     1.0000 0.53860  0.52560  0.92203  Biso   1.000  C
  C193     1.0000 0.52610  0.43200  0.92953  Biso   1.000  C
  H107     1.0000 0.57010  0.41340  0.92083  Biso   1.000  H
  C194     1.0000 0.44910  0.36770  0.95013  Biso   1.000  C
  H108     1.0000 0.44080  0.30540  0.95523  Biso   1.000  H
  C195     1.0000 0.62270  0.60340  0.90013  Biso   1.000  C
  O56      1.0000 0.67490  0.57160  0.88873  Biso   1.000  O
  O57      1.0000 0.63120  0.68600  0.89593  Biso   1.000  O
  O58      1.0000 0.35400  0.27810  0.99043  Biso   1.000  O
  C196     1.0000 0.31050  0.30540  0.97043  Biso   1.000  C
  C197     1.0000 0.37190  0.39530  0.94803  Biso   1.000  C
  C198     1.0000 0.33450  0.45890  0.94203  Biso   1.000  C
  H109     1.0000 0.27000  0.44060  0.94863  Biso   1.000  H
  C199     1.0000 0.39370  0.55000  0.92643  Biso   1.000  C
  H110     1.0000 0.36870  0.59260  0.92253  Biso   1.000  H
  C200     1.0000 0.49020  0.57750  0.91673  Biso   1.000  C
  C201     1.0000 0.52760  0.51390  0.92263  Biso   1.000  C
  H111     1.0000 0.59210  0.53220  0.91613  Biso   1.000  H
  C202     1.0000 0.46850  0.42280  0.93823  Biso   1.000  C
  H112     1.0000 0.49350  0.38020  0.94223  Biso   1.000  H
  C203     1.0000 0.56410  0.68190  0.90333  Biso   1.000  C
  O59      1.0000 0.63860  0.68400  0.89193  Biso   1.000  O
  O60      1.0000 0.53350  0.74050  0.90693  Biso   1.000  O
  C204     1.0000 0.66800  0.75600  0.99023  Biso   1.000  C
  C205     1.0000 0.64390  0.67640  0.01623  Biso   1.000  C
  C206     1.0000 0.61260  0.68430  0.04783  Biso   1.000  C
  H113     1.0000 0.60980  0.74090  0.05373  Biso   1.000  H
  C207     1.0000 0.58560  0.60760  0.07063  Biso   1.000  C
  H114     1.0000 0.56460  0.61290  0.09173  Biso   1.000  H
  C208     1.0000 0.58980  0.52300  0.06183  Biso   1.000  C
  C209     1.0000 0.62110  0.51510  0.03023  Biso   1.000  C
  H115     1.0000 0.62400  0.45850  0.02433  Biso   1.000  H
  C210     1.0000 0.64820  0.59180  0.00743  Biso   1.000  C
  H116     1.0000 0.66910  0.58650  0.98633  Biso   1.000  H
  N6       1.0000 0.59540  0.09460  0.00343  Biso   1.000  N
  C211     1.0000 0.65000  0.19820  0.00443  Biso   1.000  C
  H117     1.0000 0.71930  0.23100  0.00473  Biso   1.000  H
  C212     1.0000 0.60100  0.25280  0.00503  Biso   1.000  C
  H118     1.0000 0.63750  0.32210  0.00563  Biso   1.000  H
  C213     1.0000 0.49740  0.20380  0.00463  Biso   1.000  C
  H119     1.0000 0.46450  0.24030  0.00503  Biso   1.000  H
  C214     1.0000 0.44280  0.10020  0.00363  Biso   1.000  C
  C215     1.0000 0.49180  0.04560  0.00303  Biso   1.000  C
  C216     1.0000 0.33840  0.04640  0.00313  Biso   1.000  C
  H120     1.0000 0.30280  0.07890  0.00743  Biso   1.000  H
  O61      1.0000 0.15950  0.03340  0.59007  Biso   1.000  O
  O62      1.0000 0.16500  0.99730  0.53797  Biso   1.000  O
  O63      1.0000 0.05220  0.75060  0.53757  Biso   1.000  O
  O64      1.0000 0.17120  0.82850  0.49927  Biso   1.000  O
  C217     1.0000 0.15020  0.04890  0.56147  Biso   1.000  C
  C218     1.0000 0.12170  0.12060  0.54887  Biso   1.000  C
  C219     1.0000 0.10020  0.12760  0.51587  Biso   1.000  C
  H121     1.0000 0.10950  0.09000  0.49987  Biso   1.000  H
  C220     1.0000 0.06480  0.19100  0.50687  Biso   1.000  C
  H122     1.0000 0.05040  0.19560  0.48477  Biso   1.000  H
  C221     1.0000 0.05080  0.24730  0.53087  Biso   1.000  C
  C222     1.0000 0.07230  0.24030  0.56387  Biso   1.000  C
  H123     1.0000 0.06300  0.27800  0.57997  Biso   1.000  H
  C223     1.0000 0.10780  0.17700  0.57297  Biso   1.000  C
  H124     1.0000 0.12210  0.17230  0.59507  Biso   1.000  H
  O65      1.0000 0.96500  0.28890  0.48937  Biso   1.000  O
  C224     1.0000 0.00620  0.30870  0.51667  Biso   1.000  C
  C225     1.0000 0.01200  0.39620  0.53667  Biso   1.000  C
  C226     1.0000 0.09290  0.48930  0.54427  Biso   1.000  C
  H125     1.0000 0.15550  0.50840  0.53547  Biso   1.000  H
  C227     1.0000 0.08020  0.55400  0.56487  Biso   1.000  C
  H126     1.0000 0.13420  0.61640  0.56987  Biso   1.000  H
  C228     1.0000 0.98700  0.52560  0.57797  Biso   1.000  C
  C229     1.0000 0.90590  0.43200  0.57047  Biso   1.000  C
  H127     1.0000 0.84330  0.41340  0.57917  Biso   1.000  H
  C230     1.0000 0.91860  0.36770  0.54987  Biso   1.000  C
  H128     1.0000 0.86460  0.30540  0.54477  Biso   1.000  H
  C231     1.0000 0.98070  0.60340  0.59987  Biso   1.000  C
  O66      1.0000 0.89670  0.57160  0.61127  Biso   1.000  O
  O67      1.0000 0.05480  0.68600  0.60407  Biso   1.000  O
  O68      1.0000 0.92410  0.27810  0.50957  Biso   1.000  O
  C232     1.0000 0.99490  0.30540  0.52957  Biso   1.000  C
  C233     1.0000 0.02340  0.39530  0.55197  Biso   1.000  C
  C234     1.0000 0.12440  0.45890  0.55797  Biso   1.000  C
  H129     1.0000 0.17060  0.44060  0.55137  Biso   1.000  H
  C235     1.0000 0.15630  0.55000  0.57357  Biso   1.000  C
  H130     1.0000 0.22390  0.59260  0.57747  Biso   1.000  H
  C236     1.0000 0.08730  0.57750  0.58327  Biso   1.000  C
  C237     1.0000 0.98630  0.51390  0.57737  Biso   1.000  C
  H131     1.0000 0.94010  0.53220  0.58387  Biso   1.000  H
  C238     1.0000 0.95430  0.42280  0.56177  Biso   1.000  C
  H132     1.0000 0.88670  0.38020  0.55777  Biso   1.000  H
  C239     1.0000 0.11780  0.68190  0.59667  Biso   1.000  C
  O69      1.0000 0.04540  0.68400  0.60807  Biso   1.000  O
  O70      1.0000 0.20700  0.74050  0.59307  Biso   1.000  O
  C240     1.0000 0.08800  0.75600  0.50977  Biso   1.000  C
  C241     1.0000 0.03250  0.67640  0.48377  Biso   1.000  C
  C242     1.0000 0.07170  0.68430  0.45217  Biso   1.000  C
  H133     1.0000 0.13110  0.74090  0.44627  Biso   1.000  H
  C243     1.0000 0.02200  0.60760  0.42937  Biso   1.000  C
  H134     1.0000 0.04830  0.61290  0.40827  Biso   1.000  H
  C244     1.0000 0.93320  0.52300  0.43817  Biso   1.000  C
  C245     1.0000 0.89400  0.51510  0.46977  Biso   1.000  C
  H135     1.0000 0.83450  0.45850  0.47567  Biso   1.000  H
  C246     1.0000 0.94360  0.59180  0.49257  Biso   1.000  C
  H136     1.0000 0.91740  0.58650  0.51367  Biso   1.000  H
  N7       1.0000 0.49920  0.09460  0.49657  Biso   1.000  N
  C247     1.0000 0.54820  0.19820  0.49557  Biso   1.000  C
  H137     1.0000 0.51170  0.23100  0.49527  Biso   1.000  H
  C248     1.0000 0.65180  0.25280  0.49497  Biso   1.000  C
  H138     1.0000 0.68460  0.32210  0.49437  Biso   1.000  H
  C249     1.0000 0.70640  0.20380  0.49537  Biso   1.000  C
  H139     1.0000 0.77580  0.24030  0.49497  Biso   1.000  H
  C250     1.0000 0.65740  0.10020  0.49637  Biso   1.000  C
  C251     1.0000 0.55380  0.04560  0.49697  Biso   1.000  C
  C252     1.0000 0.70800  0.04640  0.49687  Biso   1.000  C
  H140     1.0000 0.77610  0.07890  0.49257  Biso   1.000  H
  O71      1.0000 0.87390  0.84050  0.92340  Biso   1.000  O
  O72      1.0000 0.83230  0.83500  0.87130  Biso   1.000  O
  O73      1.0000 0.69840  0.94780  0.87090  Biso   1.000  O
  O74      1.0000 0.65730  0.82880  0.83260  Biso   1.000  O
  C253     1.0000 0.89870  0.84980  0.89480  Biso   1.000  C
  C254     1.0000 0.99890  0.87830  0.88220  Biso   1.000  C
  C255     1.0000 0.02740  0.89980  0.84920  Biso   1.000  C
  H141     1.0000 0.98050  0.89050  0.83320  Biso   1.000  H
  C256     1.0000 0.12620  0.93520  0.84020  Biso   1.000  C
  H142     1.0000 0.14520  0.94960  0.81810  Biso   1.000  H
  C257     1.0000 0.19650  0.94920  0.86420  Biso   1.000  C
  C258     1.0000 0.16800  0.92770  0.89720  Biso   1.000  C
  H143     1.0000 0.21500  0.93700  0.91330  Biso   1.000  H
  C259     1.0000 0.06920  0.89220  0.90630  Biso   1.000  C
  H144     1.0000 0.05020  0.87790  0.92840  Biso   1.000  H
  O75      1.0000 0.32390  0.03500  0.82270  Biso   1.000  O
  C260     1.0000 0.30250  0.99380  0.85000  Biso   1.000  C
  C261     1.0000 0.38420  0.98800  0.87000  Biso   1.000  C
  C262     1.0000 0.39640  0.90710  0.87760  Biso   1.000  C
  H145     1.0000 0.35290  0.84450  0.86880  Biso   1.000  H
  C263     1.0000 0.47380  0.91980  0.89820  Biso   1.000  C
  H146     1.0000 0.48220  0.86580  0.90320  Biso   1.000  H
  C264     1.0000 0.53860  0.01300  0.91130  Biso   1.000  C
  C265     1.0000 0.52610  0.09410  0.90380  Biso   1.000  C
  H147     1.0000 0.57010  0.15670  0.91250  Biso   1.000  H
  C266     1.0000 0.44910  0.08140  0.88320  Biso   1.000  C
  H148     1.0000 0.44080  0.13540  0.87810  Biso   1.000  H
  C267     1.0000 0.62270  0.01930  0.93320  Biso   1.000  C
  O76      1.0000 0.67490  0.10330  0.94460  Biso   1.000  O
  O77      1.0000 0.63120  0.94520  0.93740  Biso   1.000  O
  O78      1.0000 0.35400  0.07590  0.84290  Biso   1.000  O
  C268     1.0000 0.31050  0.00510  0.86290  Biso   1.000  C
  C269     1.0000 0.37190  0.97660  0.88530  Biso   1.000  C
  C270     1.0000 0.33450  0.87560  0.89130  Biso   1.000  C
  H149     1.0000 0.27000  0.82940  0.88470  Biso   1.000  H
  C271     1.0000 0.39370  0.84370  0.90690  Biso   1.000  C
  H150     1.0000 0.36870  0.77610  0.91080  Biso   1.000  H
  C272     1.0000 0.49020  0.91270  0.91660  Biso   1.000  C
  C273     1.0000 0.52760  0.01370  0.91070  Biso   1.000  C
  H151     1.0000 0.59210  0.05990  0.91720  Biso   1.000  H
  C274     1.0000 0.46850  0.04570  0.89510  Biso   1.000  C
  H152     1.0000 0.49350  0.11330  0.89110  Biso   1.000  H
  C275     1.0000 0.56410  0.88220  0.93000  Biso   1.000  C
  O79      1.0000 0.63860  0.95460  0.94140  Biso   1.000  O
  O80      1.0000 0.53350  0.79300  0.92640  Biso   1.000  O
  C276     1.0000 0.66800  0.91200  0.84310  Biso   1.000  C
  C277     1.0000 0.64390  0.96750  0.81710  Biso   1.000  C
  C278     1.0000 0.61260  0.92830  0.78550  Biso   1.000  C
  H153     1.0000 0.60980  0.86890  0.77960  Biso   1.000  H
  C279     1.0000 0.58560  0.97800  0.76270  Biso   1.000  C
  H154     1.0000 0.56460  0.95170  0.74160  Biso   1.000  H
  C280     1.0000 0.58980  0.06680  0.77150  Biso   1.000  C
  C281     1.0000 0.62110  0.10600  0.80310  Biso   1.000  C
  H155     1.0000 0.62400  0.16550  0.80900  Biso   1.000  H
  C282     1.0000 0.64820  0.05640  0.82590  Biso   1.000  C
  H156     1.0000 0.66910  0.08260  0.84700  Biso   1.000  H
  N8       1.0000 0.59540  0.50080  0.82990  Biso   1.000  N
  C283     1.0000 0.65000  0.45180  0.82890  Biso   1.000  C
  H157     1.0000 0.71930  0.48830  0.82860  Biso   1.000  H
  C284     1.0000 0.60100  0.34820  0.82830  Biso   1.000  C
  H158     1.0000 0.63750  0.31540  0.82770  Biso   1.000  H
  C285     1.0000 0.49740  0.29360  0.82870  Biso   1.000  C
  H159     1.0000 0.46450  0.22420  0.82830  Biso   1.000  H
  C286     1.0000 0.44280  0.34260  0.82970  Biso   1.000  C
  C287     1.0000 0.49180  0.44620  0.83030  Biso   1.000  C
  C288     1.0000 0.33840  0.29200  0.83020  Biso   1.000  C
  H160     1.0000 0.30280  0.22390  0.82590  Biso   1.000  H
  O81      1.0000 0.96660  0.12610  0.25673  Biso   1.000  O
  O82      1.0000 0.00270  0.16770  0.20463  Biso   1.000  O
  O83      1.0000 0.24940  0.30160  0.20423  Biso   1.000  O
  O84      1.0000 0.17150  0.34270  0.16593  Biso   1.000  O
  C289     1.0000 0.95110  0.10130  0.22813  Biso   1.000  C
  C290     1.0000 0.87940  0.00110  0.21553  Biso   1.000  C
  C291     1.0000 0.87240  0.97260  0.18253  Biso   1.000  C
  H161     1.0000 0.91000  0.01950  0.16653  Biso   1.000  H
  C292     1.0000 0.80900  0.87380  0.17353  Biso   1.000  C
  H162     1.0000 0.80440  0.85480  0.15143  Biso   1.000  H
  C293     1.0000 0.75270  0.80350  0.19753  Biso   1.000  C
  C294     1.0000 0.75970  0.83200  0.23053  Biso   1.000  C
  H163     1.0000 0.72200  0.78500  0.24663  Biso   1.000  H
  C295     1.0000 0.82300  0.93080  0.23963  Biso   1.000  C
  H164     1.0000 0.82770  0.94980  0.26173  Biso   1.000  H
  O85      1.0000 0.71110  0.67610  0.15603  Biso   1.000  O
  C296     1.0000 0.69130  0.69750  0.18333  Biso   1.000  C
  C297     1.0000 0.60380  0.61580  0.20333  Biso   1.000  C
  C298     1.0000 0.51070  0.60360  0.21093  Biso   1.000  C
  H165     1.0000 0.49160  0.64710  0.20213  Biso   1.000  H
  C299     1.0000 0.44600  0.52620  0.23153  Biso   1.000  C
  H166     1.0000 0.38360  0.51780  0.23653  Biso   1.000  H
  C300     1.0000 0.47440  0.46140  0.24463  Biso   1.000  C
  C301     1.0000 0.56800  0.47390  0.23713  Biso   1.000  C
  H167     1.0000 0.58660  0.42990  0.24583  Biso   1.000  H
  C302     1.0000 0.63230  0.55090  0.21653  Biso   1.000  C
  H168     1.0000 0.69460  0.55920  0.21143  Biso   1.000  H
  C303     1.0000 0.39660  0.37730  0.26653  Biso   1.000  C
  O86      1.0000 0.42840  0.32510  0.27793  Biso   1.000  O
  O87      1.0000 0.31400  0.36880  0.27073  Biso   1.000  O
  O88      1.0000 0.72190  0.64600  0.17623  Biso   1.000  O
  C304     1.0000 0.69460  0.68950  0.19623  Biso   1.000  C
  C305     1.0000 0.60470  0.62810  0.21863  Biso   1.000  C
  C306     1.0000 0.54110  0.66550  0.22463  Biso   1.000  C
  H169     1.0000 0.55940  0.73000  0.21803  Biso   1.000  H
  C307     1.0000 0.45000  0.60630  0.24023  Biso   1.000  C
  H170     1.0000 0.40740  0.63130  0.24413  Biso   1.000  H
  C308     1.0000 0.42250  0.50980  0.24993  Biso   1.000  C
  C309     1.0000 0.48610  0.47240  0.24403  Biso   1.000  C
  H171     1.0000 0.46780  0.40790  0.25053  Biso   1.000  H
  C310     1.0000 0.57720  0.53150  0.22843  Biso   1.000  C
  H172     1.0000 0.61980  0.50650  0.22443  Biso   1.000  H
  C311     1.0000 0.31810  0.43590  0.26333  Biso   1.000  C
  O89      1.0000 0.31600  0.36140  0.27473  Biso   1.000  O
  O90      1.0000 0.25950  0.46650  0.25973  Biso   1.000  O
  C312     1.0000 0.24400  0.33200  0.17643  Biso   1.000  C
  C313     1.0000 0.32360  0.35610  0.15043  Biso   1.000  C
  C314     1.0000 0.31570  0.38740  0.11883  Biso   1.000  C
  H173     1.0000 0.25910  0.39020  0.11293  Biso   1.000  H
  C315     1.0000 0.39240  0.41440  0.09603  Biso   1.000  C
  H174     1.0000 0.38710  0.43540  0.07493  Biso   1.000  H
  C316     1.0000 0.47700  0.41020  0.10483  Biso   1.000  C
  C317     1.0000 0.48490  0.37890  0.13643  Biso   1.000  C
  H175     1.0000 0.54150  0.37600  0.14233  Biso   1.000  H
  C318     1.0000 0.40820  0.35180  0.15923  Biso   1.000  C
  H176     1.0000 0.41350  0.33090  0.18033  Biso   1.000  H
  N9       1.0000 0.90540  0.40460  0.16323  Biso   1.000  N
  C319     1.0000 0.80180  0.35000  0.16223  Biso   1.000  C
  H177     1.0000 0.76900  0.28070  0.16193  Biso   1.000  H
  C320     1.0000 0.74720  0.39900  0.16163  Biso   1.000  C
  H178     1.0000 0.67790  0.36250  0.16103  Biso   1.000  H
  C321     1.0000 0.79620  0.50260  0.16203  Biso   1.000  C
  H179     1.0000 0.75970  0.53550  0.16163  Biso   1.000  H
  C322     1.0000 0.89980  0.55720  0.16303  Biso   1.000  C
  C323     1.0000 0.95440  0.50820  0.16363  Biso   1.000  C
  C324     1.0000 0.95360  0.66160  0.16353  Biso   1.000  C
  H180     1.0000 0.92110  0.69720  0.15923  Biso   1.000  H
  O91      1.0000 0.84050  0.96660  0.09007  Biso   1.000  O
  O92      1.0000 0.83500  0.00270  0.03797  Biso   1.000  O
  O93      1.0000 0.94780  0.24940  0.03757  Biso   1.000  O
  O94      1.0000 0.82880  0.17150  0.99927  Biso   1.000  O
  C325     1.0000 0.84980  0.95110  0.06147  Biso   1.000  C
  C326     1.0000 0.87830  0.87940  0.04887  Biso   1.000  C
  C327     1.0000 0.89980  0.87240  0.01587  Biso   1.000  C
  H181     1.0000 0.89050  0.91000  0.99987  Biso   1.000  H
  C328     1.0000 0.93520  0.80900  0.00687  Biso   1.000  C
  H182     1.0000 0.94960  0.80440  0.98477  Biso   1.000  H
  C329     1.0000 0.94920  0.75270  0.03087  Biso   1.000  C
  C330     1.0000 0.92770  0.75970  0.06387  Biso   1.000  C
  H183     1.0000 0.93700  0.72200  0.07997  Biso   1.000  H
  C331     1.0000 0.89220  0.82300  0.07297  Biso   1.000  C
  H184     1.0000 0.87790  0.82770  0.09507  Biso   1.000  H
  O95      1.0000 0.03500  0.71110  0.98937  Biso   1.000  O
  C332     1.0000 0.99380  0.69130  0.01667  Biso   1.000  C
  C333     1.0000 0.98800  0.60380  0.03667  Biso   1.000  C
  C334     1.0000 0.90710  0.51070  0.04427  Biso   1.000  C
  H185     1.0000 0.84450  0.49160  0.03547  Biso   1.000  H
  C335     1.0000 0.91980  0.44600  0.06487  Biso   1.000  C
  H186     1.0000 0.86580  0.38360  0.06987  Biso   1.000  H
  C336     1.0000 0.01300  0.47440  0.07797  Biso   1.000  C
  C337     1.0000 0.09410  0.56800  0.07047  Biso   1.000  C
  H187     1.0000 0.15670  0.58660  0.07917  Biso   1.000  H
  C338     1.0000 0.08140  0.63230  0.04987  Biso   1.000  C
  H188     1.0000 0.13540  0.69460  0.04477  Biso   1.000  H
  C339     1.0000 0.01930  0.39660  0.09987  Biso   1.000  C
  O96      1.0000 0.10330  0.42840  0.11127  Biso   1.000  O
  O97      1.0000 0.94520  0.31400  0.10407  Biso   1.000  O
  O98      1.0000 0.07590  0.72190  0.00957  Biso   1.000  O
  C340     1.0000 0.00510  0.69460  0.02957  Biso   1.000  C
  C341     1.0000 0.97660  0.60470  0.05197  Biso   1.000  C
  C342     1.0000 0.87560  0.54110  0.05797  Biso   1.000  C
  H189     1.0000 0.82940  0.55940  0.05137  Biso   1.000  H
  C343     1.0000 0.84370  0.45000  0.07357  Biso   1.000  C
  H190     1.0000 0.77610  0.40740  0.07747  Biso   1.000  H
  C344     1.0000 0.91270  0.42250  0.08327  Biso   1.000  C
  C345     1.0000 0.01370  0.48610  0.07737  Biso   1.000  C
  H191     1.0000 0.05990  0.46780  0.08387  Biso   1.000  H
  C346     1.0000 0.04570  0.57720  0.06177  Biso   1.000  C
  H192     1.0000 0.11330  0.61980  0.05777  Biso   1.000  H
  C347     1.0000 0.88220  0.31810  0.09667  Biso   1.000  C
  O99      1.0000 0.95460  0.31600  0.10807  Biso   1.000  O
  O100     1.0000 0.79300  0.25950  0.09307  Biso   1.000  O
  C348     1.0000 0.91200  0.24400  0.00977  Biso   1.000  C
  C349     1.0000 0.96750  0.32360  0.98377  Biso   1.000  C
  C350     1.0000 0.92830  0.31570  0.95217  Biso   1.000  C
  H193     1.0000 0.86890  0.25910  0.94627  Biso   1.000  H
  C351     1.0000 0.97800  0.39240  0.92937  Biso   1.000  C
  H194     1.0000 0.95170  0.38710  0.90827  Biso   1.000  H
  C352     1.0000 0.06680  0.47700  0.93817  Biso   1.000  C
  C353     1.0000 0.10600  0.48490  0.96977  Biso   1.000  C
  H195     1.0000 0.16550  0.54150  0.97567  Biso   1.000  H
  C354     1.0000 0.05640  0.40820  0.99257  Biso   1.000  C
  H196     1.0000 0.08260  0.41350  0.01367  Biso   1.000  H
  N10      1.0000 0.50080  0.90540  0.99657  Biso   1.000  N
  C355     1.0000 0.45180  0.80180  0.99557  Biso   1.000  C
  H197     1.0000 0.48830  0.76900  0.99527  Biso   1.000  H
  C356     1.0000 0.34820  0.74720  0.99497  Biso   1.000  C
  H198     1.0000 0.31540  0.67790  0.99437  Biso   1.000  H
  C357     1.0000 0.29360  0.79620  0.99537  Biso   1.000  C
  H199     1.0000 0.22420  0.75970  0.99497  Biso   1.000  H
  C358     1.0000 0.34260  0.89980  0.99637  Biso   1.000  C
  C359     1.0000 0.44620  0.95440  0.99697  Biso   1.000  C
  C360     1.0000 0.29200  0.95360  0.99687  Biso   1.000  C
  H200     1.0000 0.22390  0.92110  0.99257  Biso   1.000  H
  O101     1.0000 0.12610  0.15950  0.42340  Biso   1.000  O
  O102     1.0000 0.16770  0.16500  0.37130  Biso   1.000  O
  O103     1.0000 0.30160  0.05220  0.37090  Biso   1.000  O
  O104     1.0000 0.34270  0.17120  0.33260  Biso   1.000  O
  C361     1.0000 0.10130  0.15020  0.39480  Biso   1.000  C
  C362     1.0000 0.00110  0.12170  0.38220  Biso   1.000  C
  C363     1.0000 0.97260  0.10020  0.34920  Biso   1.000  C
  H201     1.0000 0.01950  0.10950  0.33320  Biso   1.000  H
  C364     1.0000 0.87380  0.06480  0.34020  Biso   1.000  C
  H202     1.0000 0.85480  0.05040  0.31810  Biso   1.000  H
  C365     1.0000 0.80350  0.05080  0.36420  Biso   1.000  C
  C366     1.0000 0.83200  0.07230  0.39720  Biso   1.000  C
  H203     1.0000 0.78500  0.06300  0.41330  Biso   1.000  H
  C367     1.0000 0.93080  0.10780  0.40630  Biso   1.000  C
  H204     1.0000 0.94980  0.12210  0.42840  Biso   1.000  H
  O105     1.0000 0.67610  0.96500  0.32270  Biso   1.000  O
  C368     1.0000 0.69750  0.00620  0.35000  Biso   1.000  C
  C369     1.0000 0.61580  0.01200  0.37000  Biso   1.000  C
  C370     1.0000 0.60360  0.09290  0.37760  Biso   1.000  C
  H205     1.0000 0.64710  0.15550  0.36880  Biso   1.000  H
  C371     1.0000 0.52620  0.08020  0.39820  Biso   1.000  C
  H206     1.0000 0.51780  0.13420  0.40320  Biso   1.000  H
  C372     1.0000 0.46140  0.98700  0.41130  Biso   1.000  C
  C373     1.0000 0.47390  0.90590  0.40380  Biso   1.000  C
  H207     1.0000 0.42990  0.84330  0.41250  Biso   1.000  H
  C374     1.0000 0.55090  0.91860  0.38320  Biso   1.000  C
  H208     1.0000 0.55920  0.86460  0.37810  Biso   1.000  H
  C375     1.0000 0.37730  0.98070  0.43320  Biso   1.000  C
  O106     1.0000 0.32510  0.89670  0.44460  Biso   1.000  O
  O107     1.0000 0.36880  0.05480  0.43740  Biso   1.000  O
  O108     1.0000 0.64600  0.92410  0.34290  Biso   1.000  O
  C376     1.0000 0.68950  0.99490  0.36290  Biso   1.000  C
  C377     1.0000 0.62810  0.02340  0.38530  Biso   1.000  C
  C378     1.0000 0.66550  0.12440  0.39130  Biso   1.000  C
  H209     1.0000 0.73000  0.17060  0.38470  Biso   1.000  H
  C379     1.0000 0.60630  0.15630  0.40690  Biso   1.000  C
  H210     1.0000 0.63130  0.22390  0.41080  Biso   1.000  H
  C380     1.0000 0.50980  0.08730  0.41660  Biso   1.000  C
  C381     1.0000 0.47240  0.98630  0.41070  Biso   1.000  C
  H211     1.0000 0.40790  0.94010  0.41720  Biso   1.000  H
  C382     1.0000 0.53150  0.95430  0.39510  Biso   1.000  C
  H212     1.0000 0.50650  0.88670  0.39110  Biso   1.000  H
  C383     1.0000 0.43590  0.11780  0.43000  Biso   1.000  C
  O109     1.0000 0.36140  0.04540  0.44140  Biso   1.000  O
  O110     1.0000 0.46650  0.20700  0.42640  Biso   1.000  O
  C384     1.0000 0.33200  0.08800  0.34310  Biso   1.000  C
  C385     1.0000 0.35610  0.03250  0.31710  Biso   1.000  C
  C386     1.0000 0.38740  0.07170  0.28550  Biso   1.000  C
  H213     1.0000 0.39020  0.13110  0.27960  Biso   1.000  H
  C387     1.0000 0.41440  0.02200  0.26270  Biso   1.000  C
  H214     1.0000 0.43540  0.04830  0.24160  Biso   1.000  H
  C388     1.0000 0.41020  0.93320  0.27150  Biso   1.000  C
  C389     1.0000 0.37890  0.89400  0.30310  Biso   1.000  C
  H215     1.0000 0.37600  0.83450  0.30900  Biso   1.000  H
  C390     1.0000 0.35180  0.94360  0.32590  Biso   1.000  C
  H216     1.0000 0.33090  0.91740  0.34700  Biso   1.000  H
  N11      1.0000 0.40460  0.49920  0.32990  Biso   1.000  N
  C391     1.0000 0.35000  0.54820  0.32890  Biso   1.000  C
  H217     1.0000 0.28070  0.51170  0.32860  Biso   1.000  H
  C392     1.0000 0.39900  0.65180  0.32830  Biso   1.000  C
  H218     1.0000 0.36250  0.68460  0.32770  Biso   1.000  H
  C393     1.0000 0.50260  0.70640  0.32870  Biso   1.000  C
  H219     1.0000 0.53550  0.77580  0.32830  Biso   1.000  H
  C394     1.0000 0.55720  0.65740  0.32970  Biso   1.000  C
  C395     1.0000 0.50820  0.55380  0.33030  Biso   1.000  C
  C396     1.0000 0.66160  0.70800  0.33020  Biso   1.000  C
  H220     1.0000 0.69720  0.77610  0.32590  Biso   1.000  H
  O111     1.0000 0.03340  0.87390  0.75673  Biso   1.000  O
  O112     1.0000 0.99730  0.83230  0.70463  Biso   1.000  O
  O113     1.0000 0.75060  0.69840  0.70423  Biso   1.000  O
  O114     1.0000 0.82850  0.65730  0.66593  Biso   1.000  O
  C397     1.0000 0.04890  0.89870  0.72813  Biso   1.000  C
  C398     1.0000 0.12060  0.99890  0.71553  Biso   1.000  C
  C399     1.0000 0.12760  0.02740  0.68253  Biso   1.000  C
  H221     1.0000 0.09000  0.98050  0.66653  Biso   1.000  H
  C400     1.0000 0.19100  0.12620  0.67353  Biso   1.000  C
  H222     1.0000 0.19560  0.14520  0.65143  Biso   1.000  H
  C401     1.0000 0.24730  0.19650  0.69753  Biso   1.000  C
  C402     1.0000 0.24030  0.16800  0.73053  Biso   1.000  C
  H223     1.0000 0.27800  0.21500  0.74663  Biso   1.000  H
  C403     1.0000 0.17700  0.06920  0.73963  Biso   1.000  C
  H224     1.0000 0.17230  0.05020  0.76173  Biso   1.000  H
  O115     1.0000 0.28890  0.32390  0.65603  Biso   1.000  O
  C404     1.0000 0.30870  0.30250  0.68333  Biso   1.000  C
  C405     1.0000 0.39620  0.38420  0.70333  Biso   1.000  C
  C406     1.0000 0.48930  0.39640  0.71093  Biso   1.000  C
  H225     1.0000 0.50840  0.35290  0.70213  Biso   1.000  H
  C407     1.0000 0.55400  0.47380  0.73153  Biso   1.000  C
  H226     1.0000 0.61640  0.48220  0.73653  Biso   1.000  H
  C408     1.0000 0.52560  0.53860  0.74463  Biso   1.000  C
  C409     1.0000 0.43200  0.52610  0.73713  Biso   1.000  C
  H227     1.0000 0.41340  0.57010  0.74583  Biso   1.000  H
  C410     1.0000 0.36770  0.44910  0.71653  Biso   1.000  C
  H228     1.0000 0.30540  0.44080  0.71143  Biso   1.000  H
  C411     1.0000 0.60340  0.62270  0.76653  Biso   1.000  C
  O116     1.0000 0.57160  0.67490  0.77793  Biso   1.000  O
  O117     1.0000 0.68600  0.63120  0.77073  Biso   1.000  O
  O118     1.0000 0.27810  0.35400  0.67623  Biso   1.000  O
  C412     1.0000 0.30540  0.31050  0.69623  Biso   1.000  C
  C413     1.0000 0.39530  0.37190  0.71863  Biso   1.000  C
  C414     1.0000 0.45890  0.33450  0.72463  Biso   1.000  C
  H229     1.0000 0.44060  0.27000  0.71803  Biso   1.000  H
  C415     1.0000 0.55000  0.39370  0.74023  Biso   1.000  C
  H230     1.0000 0.59260  0.36870  0.74413  Biso   1.000  H
  C416     1.0000 0.57750  0.49020  0.74993  Biso   1.000  C
  C417     1.0000 0.51390  0.52760  0.74403  Biso   1.000  C
  H231     1.0000 0.53220  0.59210  0.75053  Biso   1.000  H
  C418     1.0000 0.42280  0.46850  0.72843  Biso   1.000  C
  H232     1.0000 0.38020  0.49350  0.72443  Biso   1.000  H
  C419     1.0000 0.68190  0.56410  0.76333  Biso   1.000  C
  O119     1.0000 0.68400  0.63860  0.77473  Biso   1.000  O
  O120     1.0000 0.74050  0.53350  0.75973  Biso   1.000  O
  C420     1.0000 0.75600  0.66800  0.67643  Biso   1.000  C
  C421     1.0000 0.67640  0.64390  0.65043  Biso   1.000  C
  C422     1.0000 0.68430  0.61260  0.61883  Biso   1.000  C
  H233     1.0000 0.74090  0.60980  0.61293  Biso   1.000  H
  C423     1.0000 0.60760  0.58560  0.59603  Biso   1.000  C
  H234     1.0000 0.61290  0.56460  0.57493  Biso   1.000  H
  C424     1.0000 0.52300  0.58980  0.60483  Biso   1.000  C
  C425     1.0000 0.51510  0.62110  0.63643  Biso   1.000  C
  H235     1.0000 0.45850  0.62400  0.64233  Biso   1.000  H
  C426     1.0000 0.59180  0.64820  0.65923  Biso   1.000  C
  H236     1.0000 0.58650  0.66910  0.68033  Biso   1.000  H
  N12      1.0000 0.09460  0.59540  0.66323  Biso   1.000  N
  C427     1.0000 0.19820  0.65000  0.66223  Biso   1.000  C
  H237     1.0000 0.23100  0.71930  0.66193  Biso   1.000  H
  C428     1.0000 0.25280  0.60100  0.66163  Biso   1.000  C
  H238     1.0000 0.32210  0.63750  0.66103  Biso   1.000  H
  C429     1.0000 0.20380  0.49740  0.66203  Biso   1.000  C
  H239     1.0000 0.24030  0.46450  0.66163  Biso   1.000  H
  C430     1.0000 0.10020  0.44280  0.66303  Biso   1.000  C
  C431     1.0000 0.04560  0.49180  0.66363  Biso   1.000  C
  C432     1.0000 0.04640  0.33840  0.66353  Biso   1.000  C
  H240     1.0000 0.07890  0.30280  0.65923  Biso   1.000  H
  La1      1.0000 0.86289  0.13711  0.08333  Biso   1.000  La
  La2      1.0000 0.86289  0.72578  0.75000  Biso   1.000  La
  La3      1.0000 0.27422  0.13711  0.41667  Biso   1.000  La
  La4      1.0000 0.13711  0.86289  0.58333  Biso   1.000  La
  La5      1.0000 0.13711  0.27422  0.25000  Biso   1.000  La
  La6      1.0000 0.72578  0.86289  0.91667  Biso   1.000  La
  La7      1.0000 0.00000  0.30087  0.16667  Biso   1.000  La
  La8      1.0000 0.69913  0.69913  0.83333  Biso   1.000  La
  La9      1.0000 0.30087  0.00000  0.50000  Biso   1.000  La
  La10     1.0000 0.00000  0.69913  0.66667  Biso   1.000  La
  La11     1.0000 0.30087  0.30087  0.33333  Biso   1.000  La
  La12     1.0000 0.69913  0.00000  0.00000  Biso   1.000  La
  O121     1.0000 0.39300  0.78600  0.25000  Biso   1.000  O
  C433     1.0000 0.43900  0.87800  0.25000  Biso   1.000  C
  O122     1.0000 0.21400  0.60700  0.91667  Biso   1.000  O
  C434     1.0000 0.12200  0.56100  0.91667  Biso   1.000  C
  O123     1.0000 0.39300  0.60700  0.58333  Biso   1.000  O
  C435     1.0000 0.43900  0.56100  0.58333  Biso   1.000  C
  O124     1.0000 0.60700  0.21400  0.75000  Biso   1.000  O
  C436     1.0000 0.56100  0.12200  0.75000  Biso   1.000  C
  O125     1.0000 0.78600  0.39300  0.41667  Biso   1.000  O
  C437     1.0000 0.87800  0.43900  0.41667  Biso   1.000  C
  O126     1.0000 0.60700  0.39300  0.08333  Biso   1.000  O
  C438     1.0000 0.56100  0.43900  0.08333  Biso   1.000  C
