data_image0
_cell_length_a       31.0998
_cell_length_b       24.0457
_cell_length_c       23.0064
_cell_angle_alpha    90
_cell_angle_beta     131.42
_cell_angle_gamma    90

_symmetry_space_group_name_H-M    "P 1"
_symmetry_int_tables_number       1

loop_
  _symmetry_equiv_pos_as_xyz
  'x, y, z'

loop_
  _atom_site_label
  _atom_site_occupancy
  _atom_site_fract_x
  _atom_site_fract_y
  _atom_site_fract_z
  _atom_site_thermal_displace_type
  _atom_site_B_iso_or_equiv
  _atom_site_type_symbol
  Cd1      1.0000 0.04419  0.46114  0.97872  Biso   1.000  Cd
  Cd2      1.0000 0.19899  0.37499  0.04125  Biso   1.000  Cd
  Cd3      1.0000 0.13906  0.32418  0.13540  Biso   1.000  Cd
  O1       1.0000 0.27703  0.43112  0.08539  Biso   1.000  O
  O2       1.0000 0.23007  0.39243  0.97115  Biso   1.000  O
  O3       1.0000 0.24888  0.42591  0.88400  Biso   1.000  O
  H1       1.0000 0.23410  0.40920  0.89970  Biso   1.000  H
  O4       1.0000 0.26072  0.55421  0.85414  Biso   1.000  O
  H2       1.0000 0.23870  0.57900  0.82450  Biso   1.000  H
  O5       1.0000 0.20275  0.61450  0.73584  Biso   1.000  O
  O6       1.0000 0.20151  0.60366  0.64036  Biso   1.000  O
  O7       1.0000 0.05767  0.27055  0.07987  Biso   1.000  O
  O8       1.0000 0.10957  0.29177  0.20325  Biso   1.000  O
  O9       1.0000 0.07737  0.26649  0.27599  Biso   1.000  O
  H3       1.0000 0.09740  0.28160  0.26730  Biso   1.000  H
  O10      1.0000 0.13068  0.29606  0.03344  Biso   1.000  O
  O11      1.0000 0.14210  0.30941  0.94985  Biso   1.000  O
  O12      1.0000 0.07332  0.26679  0.81498  Biso   1.000  O
  H4       1.0000 0.09760  0.28770  0.85350  Biso   1.000  H
  O13      1.0000 0.04549  0.48168  0.88099  Biso   1.000  O
  O14      1.0000 0.11779  0.42956  0.97279  Biso   1.000  O
  O15      1.0000 0.07848  0.40028  0.08472  Biso   1.000  O
  O16      1.0000 0.02562  0.46939  0.06598  Biso   1.000  O
  N1       1.0000 0.29138  0.75731  0.28840  Biso   1.000  N
  N2       1.0000 0.10740  0.53297  0.05314  Biso   1.000  N
  N3       1.0000 0.97653  0.39387  0.89519  Biso   1.000  N
  N4       1.0000 0.76902  0.19229  0.62547  Biso   1.000  N
  C1       1.0000 0.27124  0.42175  0.02680  Biso   1.000  C
  C2       1.0000 0.31279  0.44567  0.02129  Biso   1.000  C
  C3       1.0000 0.36296  0.46821  0.08530  Biso   1.000  C
  H5       1.0000 0.37100  0.46850  0.13200  Biso   1.000  H
  C4       1.0000 0.40299  0.49110  0.08160  Biso   1.000  C
  C5       1.0000 0.45500  0.51450  0.14770  Biso   1.000  C
  H6       1.0000 0.46370  0.51410  0.19490  Biso   1.000  H
  C6       1.0000 0.49250  0.53780  0.14300  Biso   1.000  C
  H7       1.0000 0.52650  0.55350  0.18680  Biso   1.000  H
  C7       1.0000 0.48040  0.53810  0.07330  Biso   1.000  C
  H8       1.0000 0.50670  0.55330  0.07110  Biso   1.000  H
  C8       1.0000 0.43005  0.51629  0.00740  Biso   1.000  C
  H9       1.0000 0.42250  0.51720  0.96100  Biso   1.000  H
  C9       1.0000 0.38990  0.49262  0.00980  Biso   1.000  C
  C10      1.0000 0.33609  0.47178  0.94230  Biso   1.000  C
  C11      1.0000 0.29959  0.44709  0.94901  Biso   1.000  C
  C12      1.0000 0.31639  0.48290  0.86450  Biso   1.000  C
  C13      1.0000 0.33550  0.45179  0.83310  Biso   1.000  C
  C14      1.0000 0.37222  0.40509  0.87240  Biso   1.000  C
  H10      1.0000 0.38630  0.39590  0.92160  Biso   1.000  H
  C15      1.0000 0.38700  0.37372  0.83880  Biso   1.000  C
  H11      1.0000 0.41100  0.34320  0.86530  Biso   1.000  H
  C16      1.0000 0.36670  0.38640  0.76550  Biso   1.000  C
  H12      1.0000 0.37650  0.36390  0.74290  Biso   1.000  H
  C17      1.0000 0.33210  0.43217  0.72590  Biso   1.000  C
  H13      1.0000 0.31940  0.44090  0.67730  Biso   1.000  H
  C18      1.0000 0.31594  0.46582  0.75890  Biso   1.000  C
  C19      1.0000 0.27918  0.51215  0.71930  Biso   1.000  C
  H14      1.0000 0.26720  0.52230  0.67160  Biso   1.000  H
  C20      1.0000 0.26085  0.54240  0.75000  Biso   1.000  C
  C21      1.0000 0.27944  0.52654  0.82310  Biso   1.000  C
  C22      1.0000 0.21987  0.58938  0.70576  Biso   1.000  C
  C23      1.0000 0.06540  0.26947  0.14070  Biso   1.000  C
  C24      1.0000 0.02388  0.24124  0.14230  Biso   1.000  C
  C25      1.0000 0.97720  0.21595  0.07690  Biso   1.000  C
  H15      1.0000 0.97160  0.21730  0.03190  Biso   1.000  H
  C26      1.0000 0.93700  0.18750  0.07620  Biso   1.000  C
  C27      1.0000 0.88890  0.15970  0.00950  Biso   1.000  C
  H16      1.0000 0.88220  0.16070  0.96370  Biso   1.000  H
  C28      1.0000 0.85240  0.13130  0.01240  Biso   1.000  C
  H17      1.0000 0.82030  0.11380  0.96800  Biso   1.000  H
  C29      1.0000 0.86270  0.12800  0.08230  Biso   1.000  C
  H18      1.0000 0.83850  0.10740  0.08440  Biso   1.000  H
  C30      1.0000 0.90680  0.15430  0.14380  Biso   1.000  C
  H19      1.0000 0.91220  0.15310  0.18860  Biso   1.000  H
  C31      1.0000 0.94690  0.18450  0.14560  Biso   1.000  C
  C32      1.0000 0.99470  0.21189  0.21290  Biso   1.000  C
  C33      1.0000 0.03220  0.23952  0.21100  Biso   1.000  C
  C34      1.0000 0.11780  0.28491  0.97065  Biso   1.000  C
  C35      1.0000 0.07394  0.24137  0.91767  Biso   1.000  C
  C36      1.0000 0.05172  0.20830  0.94097  Biso   1.000  C
  H20      1.0000 0.06500  0.21270  0.99070  Biso   1.000  H
  C37      1.0000 0.00964  0.16812  0.89190  Biso   1.000  C
  C38      1.0000 0.98583  0.13419  0.91460  Biso   1.000  C
  H21      1.0000 0.99900  0.13770  0.96430  Biso   1.000  H
  C39      1.0000 0.94400  0.09642  0.86490  Biso   1.000  C
  H22      1.0000 0.92860  0.07460  0.88070  Biso   1.000  H
  C40      1.0000 0.92400  0.09042  0.78970  Biso   1.000  C
  H23      1.0000 0.89600  0.06410  0.75630  Biso   1.000  H
  C41      1.0000 0.94522  0.12264  0.76500  Biso   1.000  C
  H24      1.0000 0.93080  0.11860  0.71470  Biso   1.000  H
  C42      1.0000 0.98873  0.16213  0.81457  Biso   1.000  C
  C43      1.0000 0.01168  0.19654  0.79057  Biso   1.000  C
  C44      1.0000 0.05335  0.23494  0.84107  Biso   1.000  C
  C45      1.0000 0.09460  0.43330  0.85080  Biso   1.000  C
  H25      1.0000 0.07070  0.40100  0.82550  Biso   1.000  H
  H26      1.0000 0.13370  0.42340  0.87730  Biso   1.000  H
  H27      1.0000 0.08220  0.46140  0.81290  Biso   1.000  H
  C46      1.0000 0.12310  0.47200  0.88300  Biso   1.000  C
  H28      1.0000 0.14590  0.50450  0.91110  Biso   1.000  H
  H29      1.0000 0.09620  0.48010  0.82840  Biso   1.000  H
  H30      1.0000 0.14760  0.44200  0.89310  Biso   1.000  H
  C47      1.0000 0.09060  0.45540  0.90890  Biso   1.000  C
  C48      1.0000 0.06200  0.41180  0.17300  Biso   1.000  C
  H31      1.0000 0.04130  0.43760  0.17840  Biso   1.000  H
  H32      1.0000 0.10180  0.41250  0.21890  Biso   1.000  H
  H33      1.0000 0.04700  0.37500  0.16550  Biso   1.000  H
  C49      1.0000 0.05530  0.42764  0.10470  Biso   1.000  C
  C50      1.0000 0.11040  0.57730  0.02240  Biso   1.000  C
  H34      1.0000 0.08820  0.57810  0.96890  Biso   1.000  H
  C51      1.0000 0.14480  0.62280  0.06510  Biso   1.000  C
  H35      1.0000 0.14450  0.65340  0.04020  Biso   1.000  H
  C52      1.0000 0.17950  0.62286  0.14470  Biso   1.000  C
  C53      1.0000 0.17658  0.57609  0.17640  Biso   1.000  C
  H36      1.0000 0.19890  0.57360  0.22980  Biso   1.000  H
  C54      1.0000 0.14059  0.53296  0.12920  Biso   1.000  C
  H37      1.0000 0.13970  0.50190  0.15250  Biso   1.000  H
  C55      1.0000 0.21767  0.66975  0.19340  Biso   1.000  C
  C56      1.0000 0.22360  0.71580  0.16330  Biso   1.000  C
  H38      1.0000 0.20290  0.71820  0.11030  Biso   1.000  H
  C57      1.0000 0.26010  0.75799  0.21170  Biso   1.000  C
  H39      1.0000 0.26330  0.78860  0.19010  Biso   1.000  H
  C58      1.0000 0.24990  0.66941  0.27260  Biso   1.000  C
  H40      1.0000 0.24730  0.63950  0.29580  Biso   1.000  H
  C59      1.0000 0.28591  0.71324  0.31730  Biso   1.000  C
  H41      1.0000 0.30750  0.71170  0.37050  Biso   1.000  H
  C60      1.0000 0.93540  0.40489  0.82120  Biso   1.000  C
  H42      1.0000 0.93290  0.44090  0.80440  Biso   1.000  H
  C61      1.0000 0.89560  0.36652  0.76680  Biso   1.000  C
  H43      1.0000 0.86840  0.37690  0.71500  Biso   1.000  H
  C62      1.0000 0.89573  0.31344  0.78789  Biso   1.000  C
  C63      1.0000 0.93720  0.30278  0.86520  Biso   1.000  C
  H44      1.0000 0.93940  0.26770  0.88390  Biso   1.000  H
  C64      1.0000 0.97609  0.34328  0.91610  Biso   1.000  C
  H45      1.0000 0.00360  0.33410  0.96840  Biso   1.000  H
  C65      1.0000 0.85234  0.27140  0.73121  Biso   1.000  C
  C66      1.0000 0.85155  0.21864  0.75490  Biso   1.000  C
  H46      1.0000 0.87890  0.20870  0.80690  Biso   1.000  H
  C67      1.0000 0.81020  0.18095  0.70130  Biso   1.000  C
  H47      1.0000 0.81080  0.14570  0.71860  Biso   1.000  H
  C68      1.0000 0.81070  0.28256  0.65200  Biso   1.000  C
  H48      1.0000 0.81000  0.31690  0.63270  Biso   1.000  H
  C69      1.0000 0.77089  0.24288  0.60278  Biso   1.000  C
  H49      1.0000 0.74340  0.25150  0.55030  Biso   1.000  H
  Cd4      1.0000 0.54419  0.96114  0.97872  Biso   1.000  Cd
  Cd5      1.0000 0.69899  0.87499  0.04125  Biso   1.000  Cd
  Cd6      1.0000 0.63906  0.82418  0.13540  Biso   1.000  Cd
  O17      1.0000 0.77703  0.93112  0.08539  Biso   1.000  O
  O18      1.0000 0.73007  0.89243  0.97115  Biso   1.000  O
  O19      1.0000 0.74888  0.92591  0.88400  Biso   1.000  O
  H50      1.0000 0.73410  0.90920  0.89970  Biso   1.000  H
  O20      1.0000 0.76072  0.05421  0.85414  Biso   1.000  O
  H51      1.0000 0.73870  0.07900  0.82450  Biso   1.000  H
  O21      1.0000 0.70275  0.11450  0.73584  Biso   1.000  O
  O22      1.0000 0.70151  0.10366  0.64036  Biso   1.000  O
  O23      1.0000 0.55767  0.77055  0.07987  Biso   1.000  O
  O24      1.0000 0.60957  0.79177  0.20325  Biso   1.000  O
  O25      1.0000 0.57737  0.76649  0.27599  Biso   1.000  O
  H52      1.0000 0.59740  0.78160  0.26730  Biso   1.000  H
  O26      1.0000 0.63068  0.79606  0.03344  Biso   1.000  O
  O27      1.0000 0.64210  0.80941  0.94985  Biso   1.000  O
  O28      1.0000 0.57332  0.76679  0.81498  Biso   1.000  O
  H53      1.0000 0.59760  0.78770  0.85350  Biso   1.000  H
  O29      1.0000 0.54549  0.98168  0.88099  Biso   1.000  O
  O30      1.0000 0.61779  0.92956  0.97279  Biso   1.000  O
  O31      1.0000 0.57848  0.90028  0.08472  Biso   1.000  O
  O32      1.0000 0.52562  0.96939  0.06598  Biso   1.000  O
  N5       1.0000 0.79138  0.25731  0.28840  Biso   1.000  N
  N6       1.0000 0.60740  0.03297  0.05314  Biso   1.000  N
  N7       1.0000 0.47653  0.89387  0.89519  Biso   1.000  N
  N8       1.0000 0.26902  0.69229  0.62547  Biso   1.000  N
  C70      1.0000 0.77124  0.92175  0.02680  Biso   1.000  C
  C71      1.0000 0.81279  0.94567  0.02129  Biso   1.000  C
  C72      1.0000 0.86296  0.96821  0.08530  Biso   1.000  C
  H54      1.0000 0.87100  0.96850  0.13200  Biso   1.000  H
  C73      1.0000 0.90299  0.99110  0.08160  Biso   1.000  C
  C74      1.0000 0.95500  0.01450  0.14770  Biso   1.000  C
  H55      1.0000 0.96370  0.01410  0.19490  Biso   1.000  H
  C75      1.0000 0.99250  0.03780  0.14300  Biso   1.000  C
  H56      1.0000 0.02650  0.05350  0.18680  Biso   1.000  H
  C76      1.0000 0.98040  0.03810  0.07330  Biso   1.000  C
  H57      1.0000 0.00670  0.05330  0.07110  Biso   1.000  H
  C77      1.0000 0.93005  0.01629  0.00740  Biso   1.000  C
  H58      1.0000 0.92250  0.01720  0.96100  Biso   1.000  H
  C78      1.0000 0.88990  0.99262  0.00980  Biso   1.000  C
  C79      1.0000 0.83609  0.97178  0.94230  Biso   1.000  C
  C80      1.0000 0.79959  0.94709  0.94901  Biso   1.000  C
  C81      1.0000 0.81639  0.98290  0.86450  Biso   1.000  C
  C82      1.0000 0.83550  0.95179  0.83310  Biso   1.000  C
  C83      1.0000 0.87222  0.90509  0.87240  Biso   1.000  C
  H59      1.0000 0.88630  0.89590  0.92160  Biso   1.000  H
  C84      1.0000 0.88700  0.87372  0.83880  Biso   1.000  C
  H60      1.0000 0.91100  0.84320  0.86530  Biso   1.000  H
  C85      1.0000 0.86670  0.88640  0.76550  Biso   1.000  C
  H61      1.0000 0.87650  0.86390  0.74290  Biso   1.000  H
  C86      1.0000 0.83210  0.93217  0.72590  Biso   1.000  C
  H62      1.0000 0.81940  0.94090  0.67730  Biso   1.000  H
  C87      1.0000 0.81594  0.96582  0.75890  Biso   1.000  C
  C88      1.0000 0.77918  0.01215  0.71930  Biso   1.000  C
  H63      1.0000 0.76720  0.02230  0.67160  Biso   1.000  H
  C89      1.0000 0.76085  0.04240  0.75000  Biso   1.000  C
  C90      1.0000 0.77944  0.02654  0.82310  Biso   1.000  C
  C91      1.0000 0.71987  0.08938  0.70576  Biso   1.000  C
  C92      1.0000 0.56540  0.76947  0.14070  Biso   1.000  C
  C93      1.0000 0.52388  0.74124  0.14230  Biso   1.000  C
  C94      1.0000 0.47720  0.71595  0.07690  Biso   1.000  C
  H64      1.0000 0.47160  0.71730  0.03190  Biso   1.000  H
  C95      1.0000 0.43700  0.68750  0.07620  Biso   1.000  C
  C96      1.0000 0.38890  0.65970  0.00950  Biso   1.000  C
  H65      1.0000 0.38220  0.66070  0.96370  Biso   1.000  H
  C97      1.0000 0.35240  0.63130  0.01240  Biso   1.000  C
  H66      1.0000 0.32030  0.61380  0.96800  Biso   1.000  H
  C98      1.0000 0.36270  0.62800  0.08230  Biso   1.000  C
  H67      1.0000 0.33850  0.60740  0.08440  Biso   1.000  H
  C99      1.0000 0.40680  0.65430  0.14380  Biso   1.000  C
  H68      1.0000 0.41220  0.65310  0.18860  Biso   1.000  H
  C100     1.0000 0.44690  0.68450  0.14560  Biso   1.000  C
  C101     1.0000 0.49470  0.71189  0.21290  Biso   1.000  C
  C102     1.0000 0.53220  0.73952  0.21100  Biso   1.000  C
  C103     1.0000 0.61780  0.78491  0.97065  Biso   1.000  C
  C104     1.0000 0.57394  0.74137  0.91767  Biso   1.000  C
  C105     1.0000 0.55172  0.70830  0.94097  Biso   1.000  C
  H69      1.0000 0.56500  0.71270  0.99070  Biso   1.000  H
  C106     1.0000 0.50964  0.66812  0.89190  Biso   1.000  C
  C107     1.0000 0.48583  0.63419  0.91460  Biso   1.000  C
  H70      1.0000 0.49900  0.63770  0.96430  Biso   1.000  H
  C108     1.0000 0.44400  0.59642  0.86490  Biso   1.000  C
  H71      1.0000 0.42860  0.57460  0.88070  Biso   1.000  H
  C109     1.0000 0.42400  0.59042  0.78970  Biso   1.000  C
  H72      1.0000 0.39600  0.56410  0.75630  Biso   1.000  H
  C110     1.0000 0.44522  0.62264  0.76500  Biso   1.000  C
  H73      1.0000 0.43080  0.61860  0.71470  Biso   1.000  H
  C111     1.0000 0.48873  0.66213  0.81457  Biso   1.000  C
  C112     1.0000 0.51168  0.69654  0.79057  Biso   1.000  C
  C113     1.0000 0.55335  0.73494  0.84107  Biso   1.000  C
  C114     1.0000 0.59460  0.93330  0.85080  Biso   1.000  C
  H74      1.0000 0.57070  0.90100  0.82550  Biso   1.000  H
  H75      1.0000 0.63370  0.92340  0.87730  Biso   1.000  H
  H76      1.0000 0.58220  0.96140  0.81290  Biso   1.000  H
  C115     1.0000 0.62310  0.97200  0.88300  Biso   1.000  C
  H77      1.0000 0.64590  0.00450  0.91110  Biso   1.000  H
  H78      1.0000 0.59620  0.98010  0.82840  Biso   1.000  H
  H79      1.0000 0.64760  0.94200  0.89310  Biso   1.000  H
  C116     1.0000 0.59060  0.95540  0.90890  Biso   1.000  C
  C117     1.0000 0.56200  0.91180  0.17300  Biso   1.000  C
  H80      1.0000 0.54130  0.93760  0.17840  Biso   1.000  H
  H81      1.0000 0.60180  0.91250  0.21890  Biso   1.000  H
  H82      1.0000 0.54700  0.87500  0.16550  Biso   1.000  H
  C118     1.0000 0.55530  0.92764  0.10470  Biso   1.000  C
  C119     1.0000 0.61040  0.07730  0.02240  Biso   1.000  C
  H83      1.0000 0.58820  0.07810  0.96890  Biso   1.000  H
  C120     1.0000 0.64480  0.12280  0.06510  Biso   1.000  C
  H84      1.0000 0.64450  0.15340  0.04020  Biso   1.000  H
  C121     1.0000 0.67950  0.12286  0.14470  Biso   1.000  C
  C122     1.0000 0.67658  0.07609  0.17640  Biso   1.000  C
  H85      1.0000 0.69890  0.07360  0.22980  Biso   1.000  H
  C123     1.0000 0.64059  0.03296  0.12920  Biso   1.000  C
  H86      1.0000 0.63970  0.00190  0.15250  Biso   1.000  H
  C124     1.0000 0.71767  0.16975  0.19340  Biso   1.000  C
  C125     1.0000 0.72360  0.21580  0.16330  Biso   1.000  C
  H87      1.0000 0.70290  0.21820  0.11030  Biso   1.000  H
  C126     1.0000 0.76010  0.25799  0.21170  Biso   1.000  C
  H88      1.0000 0.76330  0.28860  0.19010  Biso   1.000  H
  C127     1.0000 0.74990  0.16941  0.27260  Biso   1.000  C
  H89      1.0000 0.74730  0.13950  0.29580  Biso   1.000  H
  C128     1.0000 0.78591  0.21324  0.31730  Biso   1.000  C
  H90      1.0000 0.80750  0.21170  0.37050  Biso   1.000  H
  C129     1.0000 0.43540  0.90489  0.82120  Biso   1.000  C
  H91      1.0000 0.43290  0.94090  0.80440  Biso   1.000  H
  C130     1.0000 0.39560  0.86652  0.76680  Biso   1.000  C
  H92      1.0000 0.36840  0.87690  0.71500  Biso   1.000  H
  C131     1.0000 0.39573  0.81344  0.78789  Biso   1.000  C
  C132     1.0000 0.43720  0.80278  0.86520  Biso   1.000  C
  H93      1.0000 0.43940  0.76770  0.88390  Biso   1.000  H
  C133     1.0000 0.47609  0.84328  0.91610  Biso   1.000  C
  H94      1.0000 0.50360  0.83410  0.96840  Biso   1.000  H
  C134     1.0000 0.35234  0.77140  0.73121  Biso   1.000  C
  C135     1.0000 0.35155  0.71864  0.75490  Biso   1.000  C
  H95      1.0000 0.37890  0.70870  0.80690  Biso   1.000  H
  C136     1.0000 0.31020  0.68095  0.70130  Biso   1.000  C
  H96      1.0000 0.31080  0.64570  0.71860  Biso   1.000  H
  C137     1.0000 0.31070  0.78256  0.65200  Biso   1.000  C
  H97      1.0000 0.31000  0.81690  0.63270  Biso   1.000  H
  C138     1.0000 0.27089  0.74288  0.60278  Biso   1.000  C
  H98      1.0000 0.24340  0.75150  0.55030  Biso   1.000  H
  Cd7      1.0000 0.95581  0.46114  0.52128  Biso   1.000  Cd
  Cd8      1.0000 0.80101  0.37499  0.45875  Biso   1.000  Cd
  Cd9      1.0000 0.86094  0.32418  0.36460  Biso   1.000  Cd
  O33      1.0000 0.72297  0.43112  0.41461  Biso   1.000  O
  O34      1.0000 0.76993  0.39243  0.52885  Biso   1.000  O
  O35      1.0000 0.75112  0.42591  0.61600  Biso   1.000  O
  H99      1.0000 0.76590  0.40920  0.60030  Biso   1.000  H
  O36      1.0000 0.73928  0.55421  0.64586  Biso   1.000  O
  H100     1.0000 0.76130  0.57900  0.67550  Biso   1.000  H
  O37      1.0000 0.79725  0.61450  0.76416  Biso   1.000  O
  O38      1.0000 0.79849  0.60366  0.85964  Biso   1.000  O
  O39      1.0000 0.94233  0.27055  0.42013  Biso   1.000  O
  O40      1.0000 0.89043  0.29177  0.29675  Biso   1.000  O
  O41      1.0000 0.92263  0.26649  0.22401  Biso   1.000  O
  H101     1.0000 0.90260  0.28160  0.23270  Biso   1.000  H
  O42      1.0000 0.86932  0.29606  0.46656  Biso   1.000  O
  O43      1.0000 0.85790  0.30941  0.55015  Biso   1.000  O
  O44      1.0000 0.92668  0.26679  0.68502  Biso   1.000  O
  H102     1.0000 0.90240  0.28770  0.64650  Biso   1.000  H
  O45      1.0000 0.95451  0.48168  0.61901  Biso   1.000  O
  O46      1.0000 0.88221  0.42956  0.52721  Biso   1.000  O
  O47      1.0000 0.92152  0.40028  0.41528  Biso   1.000  O
  O48      1.0000 0.97438  0.46939  0.43402  Biso   1.000  O
  N9       1.0000 0.70862  0.75731  0.21160  Biso   1.000  N
  N10      1.0000 0.89260  0.53297  0.44686  Biso   1.000  N
  N11      1.0000 0.02347  0.39387  0.60481  Biso   1.000  N
  N12      1.0000 0.23098  0.19229  0.87453  Biso   1.000  N
  C139     1.0000 0.72876  0.42175  0.47320  Biso   1.000  C
  C140     1.0000 0.68721  0.44567  0.47871  Biso   1.000  C
  C141     1.0000 0.63704  0.46821  0.41470  Biso   1.000  C
  H103     1.0000 0.62900  0.46850  0.36800  Biso   1.000  H
  C142     1.0000 0.59701  0.49110  0.41840  Biso   1.000  C
  C143     1.0000 0.54500  0.51450  0.35230  Biso   1.000  C
  H104     1.0000 0.53630  0.51410  0.30510  Biso   1.000  H
  C144     1.0000 0.50750  0.53780  0.35700  Biso   1.000  C
  H105     1.0000 0.47350  0.55350  0.31320  Biso   1.000  H
  C145     1.0000 0.51960  0.53810  0.42670  Biso   1.000  C
  H106     1.0000 0.49330  0.55330  0.42890  Biso   1.000  H
  C146     1.0000 0.56995  0.51629  0.49260  Biso   1.000  C
  H107     1.0000 0.57750  0.51720  0.53900  Biso   1.000  H
  C147     1.0000 0.61010  0.49262  0.49020  Biso   1.000  C
  C148     1.0000 0.66391  0.47178  0.55770  Biso   1.000  C
  C149     1.0000 0.70041  0.44709  0.55099  Biso   1.000  C
  C150     1.0000 0.68361  0.48290  0.63550  Biso   1.000  C
  C151     1.0000 0.66450  0.45179  0.66690  Biso   1.000  C
  C152     1.0000 0.62778  0.40509  0.62760  Biso   1.000  C
  H108     1.0000 0.61370  0.39590  0.57840  Biso   1.000  H
  C153     1.0000 0.61300  0.37372  0.66120  Biso   1.000  C
  H109     1.0000 0.58900  0.34320  0.63470  Biso   1.000  H
  C154     1.0000 0.63330  0.38640  0.73450  Biso   1.000  C
  H110     1.0000 0.62350  0.36390  0.75710  Biso   1.000  H
  C155     1.0000 0.66790  0.43217  0.77410  Biso   1.000  C
  H111     1.0000 0.68060  0.44090  0.82270  Biso   1.000  H
  C156     1.0000 0.68406  0.46582  0.74110  Biso   1.000  C
  C157     1.0000 0.72082  0.51215  0.78070  Biso   1.000  C
  H112     1.0000 0.73280  0.52230  0.82840  Biso   1.000  H
  C158     1.0000 0.73915  0.54240  0.75000  Biso   1.000  C
  C159     1.0000 0.72056  0.52654  0.67690  Biso   1.000  C
  C160     1.0000 0.78013  0.58938  0.79424  Biso   1.000  C
  C161     1.0000 0.93460  0.26947  0.35930  Biso   1.000  C
  C162     1.0000 0.97612  0.24124  0.35770  Biso   1.000  C
  C163     1.0000 0.02280  0.21595  0.42310  Biso   1.000  C
  H113     1.0000 0.02840  0.21730  0.46810  Biso   1.000  H
  C164     1.0000 0.06300  0.18750  0.42380  Biso   1.000  C
  C165     1.0000 0.11110  0.15970  0.49050  Biso   1.000  C
  H114     1.0000 0.11780  0.16070  0.53630  Biso   1.000  H
  C166     1.0000 0.14760  0.13130  0.48760  Biso   1.000  C
  H115     1.0000 0.17970  0.11380  0.53200  Biso   1.000  H
  C167     1.0000 0.13730  0.12800  0.41770  Biso   1.000  C
  H116     1.0000 0.16150  0.10740  0.41560  Biso   1.000  H
  C168     1.0000 0.09320  0.15430  0.35620  Biso   1.000  C
  H117     1.0000 0.08780  0.15310  0.31140  Biso   1.000  H
  C169     1.0000 0.05310  0.18450  0.35440  Biso   1.000  C
  C170     1.0000 0.00530  0.21189  0.28710  Biso   1.000  C
  C171     1.0000 0.96780  0.23952  0.28900  Biso   1.000  C
  C172     1.0000 0.88220  0.28491  0.52935  Biso   1.000  C
  C173     1.0000 0.92606  0.24137  0.58233  Biso   1.000  C
  C174     1.0000 0.94828  0.20830  0.55903  Biso   1.000  C
  H118     1.0000 0.93500  0.21270  0.50930  Biso   1.000  H
  C175     1.0000 0.99036  0.16812  0.60810  Biso   1.000  C
  C176     1.0000 0.01417  0.13419  0.58540  Biso   1.000  C
  H119     1.0000 0.00100  0.13770  0.53570  Biso   1.000  H
  C177     1.0000 0.05600  0.09642  0.63510  Biso   1.000  C
  H120     1.0000 0.07140  0.07460  0.61930  Biso   1.000  H
  C178     1.0000 0.07600  0.09042  0.71030  Biso   1.000  C
  H121     1.0000 0.10400  0.06410  0.74370  Biso   1.000  H
  C179     1.0000 0.05478  0.12264  0.73500  Biso   1.000  C
  H122     1.0000 0.06920  0.11860  0.78530  Biso   1.000  H
  C180     1.0000 0.01127  0.16213  0.68543  Biso   1.000  C
  C181     1.0000 0.98832  0.19654  0.70943  Biso   1.000  C
  C182     1.0000 0.94665  0.23494  0.65893  Biso   1.000  C
  C183     1.0000 0.90540  0.43330  0.64920  Biso   1.000  C
  H123     1.0000 0.92930  0.40100  0.67450  Biso   1.000  H
  H124     1.0000 0.86630  0.42340  0.62270  Biso   1.000  H
  H125     1.0000 0.91780  0.46140  0.68710  Biso   1.000  H
  C184     1.0000 0.87690  0.47200  0.61700  Biso   1.000  C
  H126     1.0000 0.85410  0.50450  0.58890  Biso   1.000  H
  H127     1.0000 0.90380  0.48010  0.67160  Biso   1.000  H
  H128     1.0000 0.85240  0.44200  0.60690  Biso   1.000  H
  C185     1.0000 0.90940  0.45540  0.59110  Biso   1.000  C
  C186     1.0000 0.93800  0.41180  0.32700  Biso   1.000  C
  H129     1.0000 0.95870  0.43760  0.32160  Biso   1.000  H
  H130     1.0000 0.89820  0.41250  0.28110  Biso   1.000  H
  H131     1.0000 0.95300  0.37500  0.33450  Biso   1.000  H
  C187     1.0000 0.94470  0.42764  0.39530  Biso   1.000  C
  C188     1.0000 0.88960  0.57730  0.47760  Biso   1.000  C
  H132     1.0000 0.91180  0.57810  0.53110  Biso   1.000  H
  C189     1.0000 0.85520  0.62280  0.43490  Biso   1.000  C
  H133     1.0000 0.85550  0.65340  0.45980  Biso   1.000  H
  C190     1.0000 0.82050  0.62286  0.35530  Biso   1.000  C
  C191     1.0000 0.82342  0.57609  0.32360  Biso   1.000  C
  H134     1.0000 0.80110  0.57360  0.27020  Biso   1.000  H
  C192     1.0000 0.85941  0.53296  0.37080  Biso   1.000  C
  H135     1.0000 0.86030  0.50190  0.34750  Biso   1.000  H
  C193     1.0000 0.78233  0.66975  0.30660  Biso   1.000  C
  C194     1.0000 0.77640  0.71580  0.33670  Biso   1.000  C
  H136     1.0000 0.79710  0.71820  0.38970  Biso   1.000  H
  C195     1.0000 0.73990  0.75799  0.28830  Biso   1.000  C
  H137     1.0000 0.73670  0.78860  0.30990  Biso   1.000  H
  C196     1.0000 0.75010  0.66941  0.22740  Biso   1.000  C
  H138     1.0000 0.75270  0.63950  0.20420  Biso   1.000  H
  C197     1.0000 0.71409  0.71324  0.18270  Biso   1.000  C
  H139     1.0000 0.69250  0.71170  0.12950  Biso   1.000  H
  C198     1.0000 0.06460  0.40489  0.67880  Biso   1.000  C
  H140     1.0000 0.06710  0.44090  0.69560  Biso   1.000  H
  C199     1.0000 0.10440  0.36652  0.73320  Biso   1.000  C
  H141     1.0000 0.13160  0.37690  0.78500  Biso   1.000  H
  C200     1.0000 0.10427  0.31344  0.71211  Biso   1.000  C
  C201     1.0000 0.06280  0.30278  0.63480  Biso   1.000  C
  H142     1.0000 0.06060  0.26770  0.61610  Biso   1.000  H
  C202     1.0000 0.02391  0.34328  0.58390  Biso   1.000  C
  H143     1.0000 0.99640  0.33410  0.53160  Biso   1.000  H
  C203     1.0000 0.14766  0.27140  0.76879  Biso   1.000  C
  C204     1.0000 0.14845  0.21864  0.74510  Biso   1.000  C
  H144     1.0000 0.12110  0.20870  0.69310  Biso   1.000  H
  C205     1.0000 0.18980  0.18095  0.79870  Biso   1.000  C
  H145     1.0000 0.18920  0.14570  0.78140  Biso   1.000  H
  C206     1.0000 0.18930  0.28256  0.84800  Biso   1.000  C
  H146     1.0000 0.19000  0.31690  0.86730  Biso   1.000  H
  C207     1.0000 0.22911  0.24288  0.89722  Biso   1.000  C
  H147     1.0000 0.25660  0.25150  0.94970  Biso   1.000  H
  Cd10     1.0000 0.45581  0.96114  0.52128  Biso   1.000  Cd
  Cd11     1.0000 0.30101  0.87499  0.45875  Biso   1.000  Cd
  Cd12     1.0000 0.36094  0.82418  0.36460  Biso   1.000  Cd
  O49      1.0000 0.22297  0.93112  0.41461  Biso   1.000  O
  O50      1.0000 0.26993  0.89243  0.52885  Biso   1.000  O
  O51      1.0000 0.25112  0.92591  0.61600  Biso   1.000  O
  H148     1.0000 0.26590  0.90920  0.60030  Biso   1.000  H
  O52      1.0000 0.23928  0.05421  0.64586  Biso   1.000  O
  H149     1.0000 0.26130  0.07900  0.67550  Biso   1.000  H
  O53      1.0000 0.29725  0.11450  0.76416  Biso   1.000  O
  O54      1.0000 0.29849  0.10366  0.85964  Biso   1.000  O
  O55      1.0000 0.44233  0.77055  0.42013  Biso   1.000  O
  O56      1.0000 0.39043  0.79177  0.29675  Biso   1.000  O
  O57      1.0000 0.42263  0.76649  0.22401  Biso   1.000  O
  H150     1.0000 0.40260  0.78160  0.23270  Biso   1.000  H
  O58      1.0000 0.36932  0.79606  0.46656  Biso   1.000  O
  O59      1.0000 0.35790  0.80941  0.55015  Biso   1.000  O
  O60      1.0000 0.42668  0.76679  0.68502  Biso   1.000  O
  H151     1.0000 0.40240  0.78770  0.64650  Biso   1.000  H
  O61      1.0000 0.45451  0.98168  0.61901  Biso   1.000  O
  O62      1.0000 0.38221  0.92956  0.52721  Biso   1.000  O
  O63      1.0000 0.42152  0.90028  0.41528  Biso   1.000  O
  O64      1.0000 0.47438  0.96939  0.43402  Biso   1.000  O
  N13      1.0000 0.20862  0.25731  0.21160  Biso   1.000  N
  N14      1.0000 0.39260  0.03297  0.44686  Biso   1.000  N
  N15      1.0000 0.52347  0.89387  0.60481  Biso   1.000  N
  N16      1.0000 0.73098  0.69229  0.87453  Biso   1.000  N
  C208     1.0000 0.22876  0.92175  0.47320  Biso   1.000  C
  C209     1.0000 0.18721  0.94567  0.47871  Biso   1.000  C
  C210     1.0000 0.13704  0.96821  0.41470  Biso   1.000  C
  H152     1.0000 0.12900  0.96850  0.36800  Biso   1.000  H
  C211     1.0000 0.09701  0.99110  0.41840  Biso   1.000  C
  C212     1.0000 0.04500  0.01450  0.35230  Biso   1.000  C
  H153     1.0000 0.03630  0.01410  0.30510  Biso   1.000  H
  C213     1.0000 0.00750  0.03780  0.35700  Biso   1.000  C
  H154     1.0000 0.97350  0.05350  0.31320  Biso   1.000  H
  C214     1.0000 0.01960  0.03810  0.42670  Biso   1.000  C
  H155     1.0000 0.99330  0.05330  0.42890  Biso   1.000  H
  C215     1.0000 0.06995  0.01629  0.49260  Biso   1.000  C
  H156     1.0000 0.07750  0.01720  0.53900  Biso   1.000  H
  C216     1.0000 0.11010  0.99262  0.49020  Biso   1.000  C
  C217     1.0000 0.16391  0.97178  0.55770  Biso   1.000  C
  C218     1.0000 0.20041  0.94709  0.55099  Biso   1.000  C
  C219     1.0000 0.18361  0.98290  0.63550  Biso   1.000  C
  C220     1.0000 0.16450  0.95179  0.66690  Biso   1.000  C
  C221     1.0000 0.12778  0.90509  0.62760  Biso   1.000  C
  H157     1.0000 0.11370  0.89590  0.57840  Biso   1.000  H
  C222     1.0000 0.11300  0.87372  0.66120  Biso   1.000  C
  H158     1.0000 0.08900  0.84320  0.63470  Biso   1.000  H
  C223     1.0000 0.13330  0.88640  0.73450  Biso   1.000  C
  H159     1.0000 0.12350  0.86390  0.75710  Biso   1.000  H
  C224     1.0000 0.16790  0.93217  0.77410  Biso   1.000  C
  H160     1.0000 0.18060  0.94090  0.82270  Biso   1.000  H
  C225     1.0000 0.18406  0.96582  0.74110  Biso   1.000  C
  C226     1.0000 0.22082  0.01215  0.78070  Biso   1.000  C
  H161     1.0000 0.23280  0.02230  0.82840  Biso   1.000  H
  C227     1.0000 0.23915  0.04240  0.75000  Biso   1.000  C
  C228     1.0000 0.22056  0.02654  0.67690  Biso   1.000  C
  C229     1.0000 0.28013  0.08938  0.79424  Biso   1.000  C
  C230     1.0000 0.43460  0.76947  0.35930  Biso   1.000  C
  C231     1.0000 0.47612  0.74124  0.35770  Biso   1.000  C
  C232     1.0000 0.52280  0.71595  0.42310  Biso   1.000  C
  H162     1.0000 0.52840  0.71730  0.46810  Biso   1.000  H
  C233     1.0000 0.56300  0.68750  0.42380  Biso   1.000  C
  C234     1.0000 0.61110  0.65970  0.49050  Biso   1.000  C
  H163     1.0000 0.61780  0.66070  0.53630  Biso   1.000  H
  C235     1.0000 0.64760  0.63130  0.48760  Biso   1.000  C
  H164     1.0000 0.67970  0.61380  0.53200  Biso   1.000  H
  C236     1.0000 0.63730  0.62800  0.41770  Biso   1.000  C
  H165     1.0000 0.66150  0.60740  0.41560  Biso   1.000  H
  C237     1.0000 0.59320  0.65430  0.35620  Biso   1.000  C
  H166     1.0000 0.58780  0.65310  0.31140  Biso   1.000  H
  C238     1.0000 0.55310  0.68450  0.35440  Biso   1.000  C
  C239     1.0000 0.50530  0.71189  0.28710  Biso   1.000  C
  C240     1.0000 0.46780  0.73952  0.28900  Biso   1.000  C
  C241     1.0000 0.38220  0.78491  0.52935  Biso   1.000  C
  C242     1.0000 0.42606  0.74137  0.58233  Biso   1.000  C
  C243     1.0000 0.44828  0.70830  0.55903  Biso   1.000  C
  H167     1.0000 0.43500  0.71270  0.50930  Biso   1.000  H
  C244     1.0000 0.49036  0.66812  0.60810  Biso   1.000  C
  C245     1.0000 0.51417  0.63419  0.58540  Biso   1.000  C
  H168     1.0000 0.50100  0.63770  0.53570  Biso   1.000  H
  C246     1.0000 0.55600  0.59642  0.63510  Biso   1.000  C
  H169     1.0000 0.57140  0.57460  0.61930  Biso   1.000  H
  C247     1.0000 0.57600  0.59042  0.71030  Biso   1.000  C
  H170     1.0000 0.60400  0.56410  0.74370  Biso   1.000  H
  C248     1.0000 0.55478  0.62264  0.73500  Biso   1.000  C
  H171     1.0000 0.56920  0.61860  0.78530  Biso   1.000  H
  C249     1.0000 0.51127  0.66213  0.68543  Biso   1.000  C
  C250     1.0000 0.48832  0.69654  0.70943  Biso   1.000  C
  C251     1.0000 0.44665  0.73494  0.65893  Biso   1.000  C
  C252     1.0000 0.40540  0.93330  0.64920  Biso   1.000  C
  H172     1.0000 0.42930  0.90100  0.67450  Biso   1.000  H
  H173     1.0000 0.36630  0.92340  0.62270  Biso   1.000  H
  H174     1.0000 0.41780  0.96140  0.68710  Biso   1.000  H
  C253     1.0000 0.37690  0.97200  0.61700  Biso   1.000  C
  H175     1.0000 0.35410  0.00450  0.58890  Biso   1.000  H
  H176     1.0000 0.40380  0.98010  0.67160  Biso   1.000  H
  H177     1.0000 0.35240  0.94200  0.60690  Biso   1.000  H
  C254     1.0000 0.40940  0.95540  0.59110  Biso   1.000  C
  C255     1.0000 0.43800  0.91180  0.32700  Biso   1.000  C
  H178     1.0000 0.45870  0.93760  0.32160  Biso   1.000  H
  H179     1.0000 0.39820  0.91250  0.28110  Biso   1.000  H
  H180     1.0000 0.45300  0.87500  0.33450  Biso   1.000  H
  C256     1.0000 0.44470  0.92764  0.39530  Biso   1.000  C
  C257     1.0000 0.38960  0.07730  0.47760  Biso   1.000  C
  H181     1.0000 0.41180  0.07810  0.53110  Biso   1.000  H
  C258     1.0000 0.35520  0.12280  0.43490  Biso   1.000  C
  H182     1.0000 0.35550  0.15340  0.45980  Biso   1.000  H
  C259     1.0000 0.32050  0.12286  0.35530  Biso   1.000  C
  C260     1.0000 0.32342  0.07609  0.32360  Biso   1.000  C
  H183     1.0000 0.30110  0.07360  0.27020  Biso   1.000  H
  C261     1.0000 0.35941  0.03296  0.37080  Biso   1.000  C
  H184     1.0000 0.36030  0.00190  0.34750  Biso   1.000  H
  C262     1.0000 0.28233  0.16975  0.30660  Biso   1.000  C
  C263     1.0000 0.27640  0.21580  0.33670  Biso   1.000  C
  H185     1.0000 0.29710  0.21820  0.38970  Biso   1.000  H
  C264     1.0000 0.23990  0.25799  0.28830  Biso   1.000  C
  H186     1.0000 0.23670  0.28860  0.30990  Biso   1.000  H
  C265     1.0000 0.25010  0.16941  0.22740  Biso   1.000  C
  H187     1.0000 0.25270  0.13950  0.20420  Biso   1.000  H
  C266     1.0000 0.21409  0.21324  0.18270  Biso   1.000  C
  H188     1.0000 0.19250  0.21170  0.12950  Biso   1.000  H
  C267     1.0000 0.56460  0.90489  0.67880  Biso   1.000  C
  H189     1.0000 0.56710  0.94090  0.69560  Biso   1.000  H
  C268     1.0000 0.60440  0.86652  0.73320  Biso   1.000  C
  H190     1.0000 0.63160  0.87690  0.78500  Biso   1.000  H
  C269     1.0000 0.60427  0.81344  0.71211  Biso   1.000  C
  C270     1.0000 0.56280  0.80278  0.63480  Biso   1.000  C
  H191     1.0000 0.56060  0.76770  0.61610  Biso   1.000  H
  C271     1.0000 0.52391  0.84328  0.58390  Biso   1.000  C
  H192     1.0000 0.49640  0.83410  0.53160  Biso   1.000  H
  C272     1.0000 0.64766  0.77140  0.76879  Biso   1.000  C
  C273     1.0000 0.64845  0.71864  0.74510  Biso   1.000  C
  H193     1.0000 0.62110  0.70870  0.69310  Biso   1.000  H
  C274     1.0000 0.68980  0.68095  0.79870  Biso   1.000  C
  H194     1.0000 0.68920  0.64570  0.78140  Biso   1.000  H
  C275     1.0000 0.68930  0.78256  0.84800  Biso   1.000  C
  H195     1.0000 0.69000  0.81690  0.86730  Biso   1.000  H
  C276     1.0000 0.72911  0.74288  0.89722  Biso   1.000  C
  H196     1.0000 0.75660  0.75150  0.94970  Biso   1.000  H
  Cd13     1.0000 0.95581  0.53886  0.02128  Biso   1.000  Cd
  Cd14     1.0000 0.80101  0.62501  0.95875  Biso   1.000  Cd
  Cd15     1.0000 0.86094  0.67582  0.86460  Biso   1.000  Cd
  O65      1.0000 0.72297  0.56888  0.91461  Biso   1.000  O
  O66      1.0000 0.76993  0.60757  0.02885  Biso   1.000  O
  O67      1.0000 0.75112  0.57409  0.11600  Biso   1.000  O
  H197     1.0000 0.76590  0.59080  0.10030  Biso   1.000  H
  O68      1.0000 0.73928  0.44579  0.14586  Biso   1.000  O
  H198     1.0000 0.76130  0.42100  0.17550  Biso   1.000  H
  O69      1.0000 0.79725  0.38550  0.26416  Biso   1.000  O
  O70      1.0000 0.79849  0.39634  0.35964  Biso   1.000  O
  O71      1.0000 0.94233  0.72945  0.92013  Biso   1.000  O
  O72      1.0000 0.89043  0.70823  0.79675  Biso   1.000  O
  O73      1.0000 0.92263  0.73351  0.72401  Biso   1.000  O
  H199     1.0000 0.90260  0.71840  0.73270  Biso   1.000  H
  O74      1.0000 0.86932  0.70394  0.96656  Biso   1.000  O
  O75      1.0000 0.85790  0.69059  0.05015  Biso   1.000  O
  O76      1.0000 0.92668  0.73321  0.18502  Biso   1.000  O
  H200     1.0000 0.90240  0.71230  0.14650  Biso   1.000  H
  O77      1.0000 0.95451  0.51832  0.11901  Biso   1.000  O
  O78      1.0000 0.88221  0.57044  0.02721  Biso   1.000  O
  O79      1.0000 0.92152  0.59972  0.91528  Biso   1.000  O
  O80      1.0000 0.97438  0.53061  0.93402  Biso   1.000  O
  N17      1.0000 0.70862  0.24269  0.71160  Biso   1.000  N
  N18      1.0000 0.89260  0.46703  0.94686  Biso   1.000  N
  N19      1.0000 0.02347  0.60613  0.10481  Biso   1.000  N
  N20      1.0000 0.23098  0.80771  0.37453  Biso   1.000  N
  C277     1.0000 0.72876  0.57825  0.97320  Biso   1.000  C
  C278     1.0000 0.68721  0.55433  0.97871  Biso   1.000  C
  C279     1.0000 0.63704  0.53179  0.91470  Biso   1.000  C
  H201     1.0000 0.62900  0.53150  0.86800  Biso   1.000  H
  C280     1.0000 0.59701  0.50890  0.91840  Biso   1.000  C
  C281     1.0000 0.54500  0.48550  0.85230  Biso   1.000  C
  H202     1.0000 0.53630  0.48590  0.80510  Biso   1.000  H
  C282     1.0000 0.50750  0.46220  0.85700  Biso   1.000  C
  H203     1.0000 0.47350  0.44650  0.81320  Biso   1.000  H
  C283     1.0000 0.51960  0.46190  0.92670  Biso   1.000  C
  H204     1.0000 0.49330  0.44670  0.92890  Biso   1.000  H
  C284     1.0000 0.56995  0.48371  0.99260  Biso   1.000  C
  H205     1.0000 0.57750  0.48280  0.03900  Biso   1.000  H
  C285     1.0000 0.61010  0.50738  0.99020  Biso   1.000  C
  C286     1.0000 0.66391  0.52822  0.05770  Biso   1.000  C
  C287     1.0000 0.70041  0.55291  0.05099  Biso   1.000  C
  C288     1.0000 0.68361  0.51710  0.13550  Biso   1.000  C
  C289     1.0000 0.66450  0.54821  0.16690  Biso   1.000  C
  C290     1.0000 0.62778  0.59491  0.12760  Biso   1.000  C
  H206     1.0000 0.61370  0.60410  0.07840  Biso   1.000  H
  C291     1.0000 0.61300  0.62628  0.16120  Biso   1.000  C
  H207     1.0000 0.58900  0.65680  0.13470  Biso   1.000  H
  C292     1.0000 0.63330  0.61360  0.23450  Biso   1.000  C
  H208     1.0000 0.62350  0.63610  0.25710  Biso   1.000  H
  C293     1.0000 0.66790  0.56783  0.27410  Biso   1.000  C
  H209     1.0000 0.68060  0.55910  0.32270  Biso   1.000  H
  C294     1.0000 0.68406  0.53418  0.24110  Biso   1.000  C
  C295     1.0000 0.72082  0.48785  0.28070  Biso   1.000  C
  H210     1.0000 0.73280  0.47770  0.32840  Biso   1.000  H
  C296     1.0000 0.73915  0.45760  0.25000  Biso   1.000  C
  C297     1.0000 0.72056  0.47346  0.17690  Biso   1.000  C
  C298     1.0000 0.78013  0.41062  0.29424  Biso   1.000  C
  C299     1.0000 0.93460  0.73053  0.85930  Biso   1.000  C
  C300     1.0000 0.97612  0.75876  0.85770  Biso   1.000  C
  C301     1.0000 0.02280  0.78405  0.92310  Biso   1.000  C
  H211     1.0000 0.02840  0.78270  0.96810  Biso   1.000  H
  C302     1.0000 0.06300  0.81250  0.92380  Biso   1.000  C
  C303     1.0000 0.11110  0.84030  0.99050  Biso   1.000  C
  H212     1.0000 0.11780  0.83930  0.03630  Biso   1.000  H
  C304     1.0000 0.14760  0.86870  0.98760  Biso   1.000  C
  H213     1.0000 0.17970  0.88620  0.03200  Biso   1.000  H
  C305     1.0000 0.13730  0.87200  0.91770  Biso   1.000  C
  H214     1.0000 0.16150  0.89260  0.91560  Biso   1.000  H
  C306     1.0000 0.09320  0.84570  0.85620  Biso   1.000  C
  H215     1.0000 0.08780  0.84690  0.81140  Biso   1.000  H
  C307     1.0000 0.05310  0.81550  0.85440  Biso   1.000  C
  C308     1.0000 0.00530  0.78811  0.78710  Biso   1.000  C
  C309     1.0000 0.96780  0.76048  0.78900  Biso   1.000  C
  C310     1.0000 0.88220  0.71509  0.02935  Biso   1.000  C
  C311     1.0000 0.92606  0.75863  0.08233  Biso   1.000  C
  C312     1.0000 0.94828  0.79170  0.05903  Biso   1.000  C
  H216     1.0000 0.93500  0.78730  0.00930  Biso   1.000  H
  C313     1.0000 0.99036  0.83188  0.10810  Biso   1.000  C
  C314     1.0000 0.01417  0.86581  0.08540  Biso   1.000  C
  H217     1.0000 0.00100  0.86230  0.03570  Biso   1.000  H
  C315     1.0000 0.05600  0.90358  0.13510  Biso   1.000  C
  H218     1.0000 0.07140  0.92540  0.11930  Biso   1.000  H
  C316     1.0000 0.07600  0.90958  0.21030  Biso   1.000  C
  H219     1.0000 0.10400  0.93590  0.24370  Biso   1.000  H
  C317     1.0000 0.05478  0.87736  0.23500  Biso   1.000  C
  H220     1.0000 0.06920  0.88140  0.28530  Biso   1.000  H
  C318     1.0000 0.01127  0.83787  0.18543  Biso   1.000  C
  C319     1.0000 0.98832  0.80346  0.20943  Biso   1.000  C
  C320     1.0000 0.94665  0.76506  0.15893  Biso   1.000  C
  C321     1.0000 0.90540  0.56670  0.14920  Biso   1.000  C
  H221     1.0000 0.92930  0.59900  0.17450  Biso   1.000  H
  H222     1.0000 0.86630  0.57660  0.12270  Biso   1.000  H
  H223     1.0000 0.91780  0.53860  0.18710  Biso   1.000  H
  C322     1.0000 0.87690  0.52800  0.11700  Biso   1.000  C
  H224     1.0000 0.85410  0.49550  0.08890  Biso   1.000  H
  H225     1.0000 0.90380  0.51990  0.17160  Biso   1.000  H
  H226     1.0000 0.85240  0.55800  0.10690  Biso   1.000  H
  C323     1.0000 0.90940  0.54460  0.09110  Biso   1.000  C
  C324     1.0000 0.93800  0.58820  0.82700  Biso   1.000  C
  H227     1.0000 0.95870  0.56240  0.82160  Biso   1.000  H
  H228     1.0000 0.89820  0.58750  0.78110  Biso   1.000  H
  H229     1.0000 0.95300  0.62500  0.83450  Biso   1.000  H
  C325     1.0000 0.94470  0.57236  0.89530  Biso   1.000  C
  C326     1.0000 0.88960  0.42270  0.97760  Biso   1.000  C
  H230     1.0000 0.91180  0.42190  0.03110  Biso   1.000  H
  C327     1.0000 0.85520  0.37720  0.93490  Biso   1.000  C
  H231     1.0000 0.85550  0.34660  0.95980  Biso   1.000  H
  C328     1.0000 0.82050  0.37714  0.85530  Biso   1.000  C
  C329     1.0000 0.82342  0.42391  0.82360  Biso   1.000  C
  H232     1.0000 0.80110  0.42640  0.77020  Biso   1.000  H
  C330     1.0000 0.85941  0.46704  0.87080  Biso   1.000  C
  H233     1.0000 0.86030  0.49810  0.84750  Biso   1.000  H
  C331     1.0000 0.78233  0.33025  0.80660  Biso   1.000  C
  C332     1.0000 0.77640  0.28420  0.83670  Biso   1.000  C
  H234     1.0000 0.79710  0.28180  0.88970  Biso   1.000  H
  C333     1.0000 0.73990  0.24201  0.78830  Biso   1.000  C
  H235     1.0000 0.73670  0.21140  0.80990  Biso   1.000  H
  C334     1.0000 0.75010  0.33059  0.72740  Biso   1.000  C
  H236     1.0000 0.75270  0.36050  0.70420  Biso   1.000  H
  C335     1.0000 0.71409  0.28676  0.68270  Biso   1.000  C
  H237     1.0000 0.69250  0.28830  0.62950  Biso   1.000  H
  C336     1.0000 0.06460  0.59511  0.17880  Biso   1.000  C
  H238     1.0000 0.06710  0.55910  0.19560  Biso   1.000  H
  C337     1.0000 0.10440  0.63348  0.23320  Biso   1.000  C
  H239     1.0000 0.13160  0.62310  0.28500  Biso   1.000  H
  C338     1.0000 0.10427  0.68656  0.21211  Biso   1.000  C
  C339     1.0000 0.06280  0.69722  0.13480  Biso   1.000  C
  H240     1.0000 0.06060  0.73230  0.11610  Biso   1.000  H
  C340     1.0000 0.02391  0.65672  0.08390  Biso   1.000  C
  H241     1.0000 0.99640  0.66590  0.03160  Biso   1.000  H
  C341     1.0000 0.14766  0.72860  0.26879  Biso   1.000  C
  C342     1.0000 0.14845  0.78136  0.24510  Biso   1.000  C
  H242     1.0000 0.12110  0.79130  0.19310  Biso   1.000  H
  C343     1.0000 0.18980  0.81905  0.29870  Biso   1.000  C
  H243     1.0000 0.18920  0.85430  0.28140  Biso   1.000  H
  C344     1.0000 0.18930  0.71744  0.34800  Biso   1.000  C
  H244     1.0000 0.19000  0.68310  0.36730  Biso   1.000  H
  C345     1.0000 0.22911  0.75712  0.39722  Biso   1.000  C
  H245     1.0000 0.25660  0.74850  0.44970  Biso   1.000  H
  Cd16     1.0000 0.45581  0.03886  0.02128  Biso   1.000  Cd
  Cd17     1.0000 0.30101  0.12501  0.95875  Biso   1.000  Cd
  Cd18     1.0000 0.36094  0.17582  0.86460  Biso   1.000  Cd
  O81      1.0000 0.22297  0.06888  0.91461  Biso   1.000  O
  O82      1.0000 0.26993  0.10757  0.02885  Biso   1.000  O
  O83      1.0000 0.25112  0.07409  0.11600  Biso   1.000  O
  H246     1.0000 0.26590  0.09080  0.10030  Biso   1.000  H
  O84      1.0000 0.23928  0.94579  0.14586  Biso   1.000  O
  H247     1.0000 0.26130  0.92100  0.17550  Biso   1.000  H
  O85      1.0000 0.29725  0.88550  0.26416  Biso   1.000  O
  O86      1.0000 0.29849  0.89634  0.35964  Biso   1.000  O
  O87      1.0000 0.44233  0.22945  0.92013  Biso   1.000  O
  O88      1.0000 0.39043  0.20823  0.79675  Biso   1.000  O
  O89      1.0000 0.42263  0.23351  0.72401  Biso   1.000  O
  H248     1.0000 0.40260  0.21840  0.73270  Biso   1.000  H
  O90      1.0000 0.36932  0.20394  0.96656  Biso   1.000  O
  O91      1.0000 0.35790  0.19059  0.05015  Biso   1.000  O
  O92      1.0000 0.42668  0.23321  0.18502  Biso   1.000  O
  H249     1.0000 0.40240  0.21230  0.14650  Biso   1.000  H
  O93      1.0000 0.45451  0.01832  0.11901  Biso   1.000  O
  O94      1.0000 0.38221  0.07044  0.02721  Biso   1.000  O
  O95      1.0000 0.42152  0.09972  0.91528  Biso   1.000  O
  O96      1.0000 0.47438  0.03061  0.93402  Biso   1.000  O
  N21      1.0000 0.20862  0.74269  0.71160  Biso   1.000  N
  N22      1.0000 0.39260  0.96703  0.94686  Biso   1.000  N
  N23      1.0000 0.52347  0.10613  0.10481  Biso   1.000  N
  N24      1.0000 0.73098  0.30771  0.37453  Biso   1.000  N
  C346     1.0000 0.22876  0.07825  0.97320  Biso   1.000  C
  C347     1.0000 0.18721  0.05433  0.97871  Biso   1.000  C
  C348     1.0000 0.13704  0.03179  0.91470  Biso   1.000  C
  H250     1.0000 0.12900  0.03150  0.86800  Biso   1.000  H
  C349     1.0000 0.09701  0.00890  0.91840  Biso   1.000  C
  C350     1.0000 0.04500  0.98550  0.85230  Biso   1.000  C
  H251     1.0000 0.03630  0.98590  0.80510  Biso   1.000  H
  C351     1.0000 0.00750  0.96220  0.85700  Biso   1.000  C
  H252     1.0000 0.97350  0.94650  0.81320  Biso   1.000  H
  C352     1.0000 0.01960  0.96190  0.92670  Biso   1.000  C
  H253     1.0000 0.99330  0.94670  0.92890  Biso   1.000  H
  C353     1.0000 0.06995  0.98371  0.99260  Biso   1.000  C
  H254     1.0000 0.07750  0.98280  0.03900  Biso   1.000  H
  C354     1.0000 0.11010  0.00738  0.99020  Biso   1.000  C
  C355     1.0000 0.16391  0.02822  0.05770  Biso   1.000  C
  C356     1.0000 0.20041  0.05291  0.05099  Biso   1.000  C
  C357     1.0000 0.18361  0.01710  0.13550  Biso   1.000  C
  C358     1.0000 0.16450  0.04821  0.16690  Biso   1.000  C
  C359     1.0000 0.12778  0.09491  0.12760  Biso   1.000  C
  H255     1.0000 0.11370  0.10410  0.07840  Biso   1.000  H
  C360     1.0000 0.11300  0.12628  0.16120  Biso   1.000  C
  H256     1.0000 0.08900  0.15680  0.13470  Biso   1.000  H
  C361     1.0000 0.13330  0.11360  0.23450  Biso   1.000  C
  H257     1.0000 0.12350  0.13610  0.25710  Biso   1.000  H
  C362     1.0000 0.16790  0.06783  0.27410  Biso   1.000  C
  H258     1.0000 0.18060  0.05910  0.32270  Biso   1.000  H
  C363     1.0000 0.18406  0.03418  0.24110  Biso   1.000  C
  C364     1.0000 0.22082  0.98785  0.28070  Biso   1.000  C
  H259     1.0000 0.23280  0.97770  0.32840  Biso   1.000  H
  C365     1.0000 0.23915  0.95760  0.25000  Biso   1.000  C
  C366     1.0000 0.22056  0.97346  0.17690  Biso   1.000  C
  C367     1.0000 0.28013  0.91062  0.29424  Biso   1.000  C
  C368     1.0000 0.43460  0.23053  0.85930  Biso   1.000  C
  C369     1.0000 0.47612  0.25876  0.85770  Biso   1.000  C
  C370     1.0000 0.52280  0.28405  0.92310  Biso   1.000  C
  H260     1.0000 0.52840  0.28270  0.96810  Biso   1.000  H
  C371     1.0000 0.56300  0.31250  0.92380  Biso   1.000  C
  C372     1.0000 0.61110  0.34030  0.99050  Biso   1.000  C
  H261     1.0000 0.61780  0.33930  0.03630  Biso   1.000  H
  C373     1.0000 0.64760  0.36870  0.98760  Biso   1.000  C
  H262     1.0000 0.67970  0.38620  0.03200  Biso   1.000  H
  C374     1.0000 0.63730  0.37200  0.91770  Biso   1.000  C
  H263     1.0000 0.66150  0.39260  0.91560  Biso   1.000  H
  C375     1.0000 0.59320  0.34570  0.85620  Biso   1.000  C
  H264     1.0000 0.58780  0.34690  0.81140  Biso   1.000  H
  C376     1.0000 0.55310  0.31550  0.85440  Biso   1.000  C
  C377     1.0000 0.50530  0.28811  0.78710  Biso   1.000  C
  C378     1.0000 0.46780  0.26048  0.78900  Biso   1.000  C
  C379     1.0000 0.38220  0.21509  0.02935  Biso   1.000  C
  C380     1.0000 0.42606  0.25863  0.08233  Biso   1.000  C
  C381     1.0000 0.44828  0.29170  0.05903  Biso   1.000  C
  H265     1.0000 0.43500  0.28730  0.00930  Biso   1.000  H
  C382     1.0000 0.49036  0.33188  0.10810  Biso   1.000  C
  C383     1.0000 0.51417  0.36581  0.08540  Biso   1.000  C
  H266     1.0000 0.50100  0.36230  0.03570  Biso   1.000  H
  C384     1.0000 0.55600  0.40358  0.13510  Biso   1.000  C
  H267     1.0000 0.57140  0.42540  0.11930  Biso   1.000  H
  C385     1.0000 0.57600  0.40958  0.21030  Biso   1.000  C
  H268     1.0000 0.60400  0.43590  0.24370  Biso   1.000  H
  C386     1.0000 0.55478  0.37736  0.23500  Biso   1.000  C
  H269     1.0000 0.56920  0.38140  0.28530  Biso   1.000  H
  C387     1.0000 0.51127  0.33787  0.18543  Biso   1.000  C
  C388     1.0000 0.48832  0.30346  0.20943  Biso   1.000  C
  C389     1.0000 0.44665  0.26506  0.15893  Biso   1.000  C
  C390     1.0000 0.40540  0.06670  0.14920  Biso   1.000  C
  H270     1.0000 0.42930  0.09900  0.17450  Biso   1.000  H
  H271     1.0000 0.36630  0.07660  0.12270  Biso   1.000  H
  H272     1.0000 0.41780  0.03860  0.18710  Biso   1.000  H
  C391     1.0000 0.37690  0.02800  0.11700  Biso   1.000  C
  H273     1.0000 0.35410  0.99550  0.08890  Biso   1.000  H
  H274     1.0000 0.40380  0.01990  0.17160  Biso   1.000  H
  H275     1.0000 0.35240  0.05800  0.10690  Biso   1.000  H
  C392     1.0000 0.40940  0.04460  0.09110  Biso   1.000  C
  C393     1.0000 0.43800  0.08820  0.82700  Biso   1.000  C
  H276     1.0000 0.45870  0.06240  0.82160  Biso   1.000  H
  H277     1.0000 0.39820  0.08750  0.78110  Biso   1.000  H
  H278     1.0000 0.45300  0.12500  0.83450  Biso   1.000  H
  C394     1.0000 0.44470  0.07236  0.89530  Biso   1.000  C
  C395     1.0000 0.38960  0.92270  0.97760  Biso   1.000  C
  H279     1.0000 0.41180  0.92190  0.03110  Biso   1.000  H
  C396     1.0000 0.35520  0.87720  0.93490  Biso   1.000  C
  H280     1.0000 0.35550  0.84660  0.95980  Biso   1.000  H
  C397     1.0000 0.32050  0.87714  0.85530  Biso   1.000  C
  C398     1.0000 0.32342  0.92391  0.82360  Biso   1.000  C
  H281     1.0000 0.30110  0.92640  0.77020  Biso   1.000  H
  C399     1.0000 0.35941  0.96704  0.87080  Biso   1.000  C
  H282     1.0000 0.36030  0.99810  0.84750  Biso   1.000  H
  C400     1.0000 0.28233  0.83025  0.80660  Biso   1.000  C
  C401     1.0000 0.27640  0.78420  0.83670  Biso   1.000  C
  H283     1.0000 0.29710  0.78180  0.88970  Biso   1.000  H
  C402     1.0000 0.23990  0.74201  0.78830  Biso   1.000  C
  H284     1.0000 0.23670  0.71140  0.80990  Biso   1.000  H
  C403     1.0000 0.25010  0.83059  0.72740  Biso   1.000  C
  H285     1.0000 0.25270  0.86050  0.70420  Biso   1.000  H
  C404     1.0000 0.21409  0.78676  0.68270  Biso   1.000  C
  H286     1.0000 0.19250  0.78830  0.62950  Biso   1.000  H
  C405     1.0000 0.56460  0.09511  0.17880  Biso   1.000  C
  H287     1.0000 0.56710  0.05910  0.19560  Biso   1.000  H
  C406     1.0000 0.60440  0.13348  0.23320  Biso   1.000  C
  H288     1.0000 0.63160  0.12310  0.28500  Biso   1.000  H
  C407     1.0000 0.60427  0.18656  0.21211  Biso   1.000  C
  C408     1.0000 0.56280  0.19722  0.13480  Biso   1.000  C
  H289     1.0000 0.56060  0.23230  0.11610  Biso   1.000  H
  C409     1.0000 0.52391  0.15672  0.08390  Biso   1.000  C
  H290     1.0000 0.49640  0.16590  0.03160  Biso   1.000  H
  C410     1.0000 0.64766  0.22860  0.26879  Biso   1.000  C
  C411     1.0000 0.64845  0.28136  0.24510  Biso   1.000  C
  H291     1.0000 0.62110  0.29130  0.19310  Biso   1.000  H
  C412     1.0000 0.68980  0.31905  0.29870  Biso   1.000  C
  H292     1.0000 0.68920  0.35430  0.28140  Biso   1.000  H
  C413     1.0000 0.68930  0.21744  0.34800  Biso   1.000  C
  H293     1.0000 0.69000  0.18310  0.36730  Biso   1.000  H
  C414     1.0000 0.72911  0.25712  0.39722  Biso   1.000  C
  H294     1.0000 0.75660  0.24850  0.44970  Biso   1.000  H
  Cd19     1.0000 0.04419  0.53886  0.47872  Biso   1.000  Cd
  Cd20     1.0000 0.19899  0.62501  0.54125  Biso   1.000  Cd
  Cd21     1.0000 0.13906  0.67582  0.63540  Biso   1.000  Cd
  O97      1.0000 0.27703  0.56888  0.58539  Biso   1.000  O
  O98      1.0000 0.23007  0.60757  0.47115  Biso   1.000  O
  O99      1.0000 0.24888  0.57409  0.38400  Biso   1.000  O
  H295     1.0000 0.23410  0.59080  0.39970  Biso   1.000  H
  O100     1.0000 0.26072  0.44579  0.35414  Biso   1.000  O
  H296     1.0000 0.23870  0.42100  0.32450  Biso   1.000  H
  O101     1.0000 0.20275  0.38550  0.23584  Biso   1.000  O
  O102     1.0000 0.20151  0.39634  0.14036  Biso   1.000  O
  O103     1.0000 0.05767  0.72945  0.57987  Biso   1.000  O
  O104     1.0000 0.10957  0.70823  0.70325  Biso   1.000  O
  O105     1.0000 0.07737  0.73351  0.77599  Biso   1.000  O
  H297     1.0000 0.09740  0.71840  0.76730  Biso   1.000  H
  O106     1.0000 0.13068  0.70394  0.53344  Biso   1.000  O
  O107     1.0000 0.14210  0.69059  0.44985  Biso   1.000  O
  O108     1.0000 0.07332  0.73321  0.31498  Biso   1.000  O
  H298     1.0000 0.09760  0.71230  0.35350  Biso   1.000  H
  O109     1.0000 0.04549  0.51832  0.38099  Biso   1.000  O
  O110     1.0000 0.11779  0.57044  0.47279  Biso   1.000  O
  O111     1.0000 0.07848  0.59972  0.58472  Biso   1.000  O
  O112     1.0000 0.02562  0.53061  0.56598  Biso   1.000  O
  N25      1.0000 0.29138  0.24269  0.78840  Biso   1.000  N
  N26      1.0000 0.10740  0.46703  0.55314  Biso   1.000  N
  N27      1.0000 0.97653  0.60613  0.39519  Biso   1.000  N
  N28      1.0000 0.76902  0.80771  0.12547  Biso   1.000  N
  C415     1.0000 0.27124  0.57825  0.52680  Biso   1.000  C
  C416     1.0000 0.31279  0.55433  0.52129  Biso   1.000  C
  C417     1.0000 0.36296  0.53179  0.58530  Biso   1.000  C
  H299     1.0000 0.37100  0.53150  0.63200  Biso   1.000  H
  C418     1.0000 0.40299  0.50890  0.58160  Biso   1.000  C
  C419     1.0000 0.45500  0.48550  0.64770  Biso   1.000  C
  H300     1.0000 0.46370  0.48590  0.69490  Biso   1.000  H
  C420     1.0000 0.49250  0.46220  0.64300  Biso   1.000  C
  H301     1.0000 0.52650  0.44650  0.68680  Biso   1.000  H
  C421     1.0000 0.48040  0.46190  0.57330  Biso   1.000  C
  H302     1.0000 0.50670  0.44670  0.57110  Biso   1.000  H
  C422     1.0000 0.43005  0.48371  0.50740  Biso   1.000  C
  H303     1.0000 0.42250  0.48280  0.46100  Biso   1.000  H
  C423     1.0000 0.38990  0.50738  0.50980  Biso   1.000  C
  C424     1.0000 0.33609  0.52822  0.44230  Biso   1.000  C
  C425     1.0000 0.29959  0.55291  0.44901  Biso   1.000  C
  C426     1.0000 0.31639  0.51710  0.36450  Biso   1.000  C
  C427     1.0000 0.33550  0.54821  0.33310  Biso   1.000  C
  C428     1.0000 0.37222  0.59491  0.37240  Biso   1.000  C
  H304     1.0000 0.38630  0.60410  0.42160  Biso   1.000  H
  C429     1.0000 0.38700  0.62628  0.33880  Biso   1.000  C
  H305     1.0000 0.41100  0.65680  0.36530  Biso   1.000  H
  C430     1.0000 0.36670  0.61360  0.26550  Biso   1.000  C
  H306     1.0000 0.37650  0.63610  0.24290  Biso   1.000  H
  C431     1.0000 0.33210  0.56783  0.22590  Biso   1.000  C
  H307     1.0000 0.31940  0.55910  0.17730  Biso   1.000  H
  C432     1.0000 0.31594  0.53418  0.25890  Biso   1.000  C
  C433     1.0000 0.27918  0.48785  0.21930  Biso   1.000  C
  H308     1.0000 0.26720  0.47770  0.17160  Biso   1.000  H
  C434     1.0000 0.26085  0.45760  0.25000  Biso   1.000  C
  C435     1.0000 0.27944  0.47346  0.32310  Biso   1.000  C
  C436     1.0000 0.21987  0.41062  0.20576  Biso   1.000  C
  C437     1.0000 0.06540  0.73053  0.64070  Biso   1.000  C
  C438     1.0000 0.02388  0.75876  0.64230  Biso   1.000  C
  C439     1.0000 0.97720  0.78405  0.57690  Biso   1.000  C
  H309     1.0000 0.97160  0.78270  0.53190  Biso   1.000  H
  C440     1.0000 0.93700  0.81250  0.57620  Biso   1.000  C
  C441     1.0000 0.88890  0.84030  0.50950  Biso   1.000  C
  H310     1.0000 0.88220  0.83930  0.46370  Biso   1.000  H
  C442     1.0000 0.85240  0.86870  0.51240  Biso   1.000  C
  H311     1.0000 0.82030  0.88620  0.46800  Biso   1.000  H
  C443     1.0000 0.86270  0.87200  0.58230  Biso   1.000  C
  H312     1.0000 0.83850  0.89260  0.58440  Biso   1.000  H
  C444     1.0000 0.90680  0.84570  0.64380  Biso   1.000  C
  H313     1.0000 0.91220  0.84690  0.68860  Biso   1.000  H
  C445     1.0000 0.94690  0.81550  0.64560  Biso   1.000  C
  C446     1.0000 0.99470  0.78811  0.71290  Biso   1.000  C
  C447     1.0000 0.03220  0.76048  0.71100  Biso   1.000  C
  C448     1.0000 0.11780  0.71509  0.47065  Biso   1.000  C
  C449     1.0000 0.07394  0.75863  0.41767  Biso   1.000  C
  C450     1.0000 0.05172  0.79170  0.44097  Biso   1.000  C
  H314     1.0000 0.06500  0.78730  0.49070  Biso   1.000  H
  C451     1.0000 0.00964  0.83188  0.39190  Biso   1.000  C
  C452     1.0000 0.98583  0.86581  0.41460  Biso   1.000  C
  H315     1.0000 0.99900  0.86230  0.46430  Biso   1.000  H
  C453     1.0000 0.94400  0.90358  0.36490  Biso   1.000  C
  H316     1.0000 0.92860  0.92540  0.38070  Biso   1.000  H
  C454     1.0000 0.92400  0.90958  0.28970  Biso   1.000  C
  H317     1.0000 0.89600  0.93590  0.25630  Biso   1.000  H
  C455     1.0000 0.94522  0.87736  0.26500  Biso   1.000  C
  H318     1.0000 0.93080  0.88140  0.21470  Biso   1.000  H
  C456     1.0000 0.98873  0.83787  0.31457  Biso   1.000  C
  C457     1.0000 0.01168  0.80346  0.29057  Biso   1.000  C
  C458     1.0000 0.05335  0.76506  0.34107  Biso   1.000  C
  C459     1.0000 0.09460  0.56670  0.35080  Biso   1.000  C
  H319     1.0000 0.07070  0.59900  0.32550  Biso   1.000  H
  H320     1.0000 0.13370  0.57660  0.37730  Biso   1.000  H
  H321     1.0000 0.08220  0.53860  0.31290  Biso   1.000  H
  C460     1.0000 0.12310  0.52800  0.38300  Biso   1.000  C
  H322     1.0000 0.14590  0.49550  0.41110  Biso   1.000  H
  H323     1.0000 0.09620  0.51990  0.32840  Biso   1.000  H
  H324     1.0000 0.14760  0.55800  0.39310  Biso   1.000  H
  C461     1.0000 0.09060  0.54460  0.40890  Biso   1.000  C
  C462     1.0000 0.06200  0.58820  0.67300  Biso   1.000  C
  H325     1.0000 0.04130  0.56240  0.67840  Biso   1.000  H
  H326     1.0000 0.10180  0.58750  0.71890  Biso   1.000  H
  H327     1.0000 0.04700  0.62500  0.66550  Biso   1.000  H
  C463     1.0000 0.05530  0.57236  0.60470  Biso   1.000  C
  C464     1.0000 0.11040  0.42270  0.52240  Biso   1.000  C
  H328     1.0000 0.08820  0.42190  0.46890  Biso   1.000  H
  C465     1.0000 0.14480  0.37720  0.56510  Biso   1.000  C
  H329     1.0000 0.14450  0.34660  0.54020  Biso   1.000  H
  C466     1.0000 0.17950  0.37714  0.64470  Biso   1.000  C
  C467     1.0000 0.17658  0.42391  0.67640  Biso   1.000  C
  H330     1.0000 0.19890  0.42640  0.72980  Biso   1.000  H
  C468     1.0000 0.14059  0.46704  0.62920  Biso   1.000  C
  H331     1.0000 0.13970  0.49810  0.65250  Biso   1.000  H
  C469     1.0000 0.21767  0.33025  0.69340  Biso   1.000  C
  C470     1.0000 0.22360  0.28420  0.66330  Biso   1.000  C
  H332     1.0000 0.20290  0.28180  0.61030  Biso   1.000  H
  C471     1.0000 0.26010  0.24201  0.71170  Biso   1.000  C
  H333     1.0000 0.26330  0.21140  0.69010  Biso   1.000  H
  C472     1.0000 0.24990  0.33059  0.77260  Biso   1.000  C
  H334     1.0000 0.24730  0.36050  0.79580  Biso   1.000  H
  C473     1.0000 0.28591  0.28676  0.81730  Biso   1.000  C
  H335     1.0000 0.30750  0.28830  0.87050  Biso   1.000  H
  C474     1.0000 0.93540  0.59511  0.32120  Biso   1.000  C
  H336     1.0000 0.93290  0.55910  0.30440  Biso   1.000  H
  C475     1.0000 0.89560  0.63348  0.26680  Biso   1.000  C
  H337     1.0000 0.86840  0.62310  0.21500  Biso   1.000  H
  C476     1.0000 0.89573  0.68656  0.28789  Biso   1.000  C
  C477     1.0000 0.93720  0.69722  0.36520  Biso   1.000  C
  H338     1.0000 0.93940  0.73230  0.38390  Biso   1.000  H
  C478     1.0000 0.97609  0.65672  0.41610  Biso   1.000  C
  H339     1.0000 0.00360  0.66590  0.46840  Biso   1.000  H
  C479     1.0000 0.85234  0.72860  0.23121  Biso   1.000  C
  C480     1.0000 0.85155  0.78136  0.25490  Biso   1.000  C
  H340     1.0000 0.87890  0.79130  0.30690  Biso   1.000  H
  C481     1.0000 0.81020  0.81905  0.20130  Biso   1.000  C
  H341     1.0000 0.81080  0.85430  0.21860  Biso   1.000  H
  C482     1.0000 0.81070  0.71744  0.15200  Biso   1.000  C
  H342     1.0000 0.81000  0.68310  0.13270  Biso   1.000  H
  C483     1.0000 0.77089  0.75712  0.10278  Biso   1.000  C
  H343     1.0000 0.74340  0.74850  0.05030  Biso   1.000  H
  Cd22     1.0000 0.54419  0.03886  0.47872  Biso   1.000  Cd
  Cd23     1.0000 0.69899  0.12501  0.54125  Biso   1.000  Cd
  Cd24     1.0000 0.63906  0.17582  0.63540  Biso   1.000  Cd
  O113     1.0000 0.77703  0.06888  0.58539  Biso   1.000  O
  O114     1.0000 0.73007  0.10757  0.47115  Biso   1.000  O
  O115     1.0000 0.74888  0.07409  0.38400  Biso   1.000  O
  H344     1.0000 0.73410  0.09080  0.39970  Biso   1.000  H
  O116     1.0000 0.76072  0.94579  0.35414  Biso   1.000  O
  H345     1.0000 0.73870  0.92100  0.32450  Biso   1.000  H
  O117     1.0000 0.70275  0.88550  0.23584  Biso   1.000  O
  O118     1.0000 0.70151  0.89634  0.14036  Biso   1.000  O
  O119     1.0000 0.55767  0.22945  0.57987  Biso   1.000  O
  O120     1.0000 0.60957  0.20823  0.70325  Biso   1.000  O
  O121     1.0000 0.57737  0.23351  0.77599  Biso   1.000  O
  H346     1.0000 0.59740  0.21840  0.76730  Biso   1.000  H
  O122     1.0000 0.63068  0.20394  0.53344  Biso   1.000  O
  O123     1.0000 0.64210  0.19059  0.44985  Biso   1.000  O
  O124     1.0000 0.57332  0.23321  0.31498  Biso   1.000  O
  H347     1.0000 0.59760  0.21230  0.35350  Biso   1.000  H
  O125     1.0000 0.54549  0.01832  0.38099  Biso   1.000  O
  O126     1.0000 0.61779  0.07044  0.47279  Biso   1.000  O
  O127     1.0000 0.57848  0.09972  0.58472  Biso   1.000  O
  O128     1.0000 0.52562  0.03061  0.56598  Biso   1.000  O
  N29      1.0000 0.79138  0.74269  0.78840  Biso   1.000  N
  N30      1.0000 0.60740  0.96703  0.55314  Biso   1.000  N
  N31      1.0000 0.47653  0.10613  0.39519  Biso   1.000  N
  N32      1.0000 0.26902  0.30771  0.12547  Biso   1.000  N
  C484     1.0000 0.77124  0.07825  0.52680  Biso   1.000  C
  C485     1.0000 0.81279  0.05433  0.52129  Biso   1.000  C
  C486     1.0000 0.86296  0.03179  0.58530  Biso   1.000  C
  H348     1.0000 0.87100  0.03150  0.63200  Biso   1.000  H
  C487     1.0000 0.90299  0.00890  0.58160  Biso   1.000  C
  C488     1.0000 0.95500  0.98550  0.64770  Biso   1.000  C
  H349     1.0000 0.96370  0.98590  0.69490  Biso   1.000  H
  C489     1.0000 0.99250  0.96220  0.64300  Biso   1.000  C
  H350     1.0000 0.02650  0.94650  0.68680  Biso   1.000  H
  C490     1.0000 0.98040  0.96190  0.57330  Biso   1.000  C
  H351     1.0000 0.00670  0.94670  0.57110  Biso   1.000  H
  C491     1.0000 0.93005  0.98371  0.50740  Biso   1.000  C
  H352     1.0000 0.92250  0.98280  0.46100  Biso   1.000  H
  C492     1.0000 0.88990  0.00738  0.50980  Biso   1.000  C
  C493     1.0000 0.83609  0.02822  0.44230  Biso   1.000  C
  C494     1.0000 0.79959  0.05291  0.44901  Biso   1.000  C
  C495     1.0000 0.81639  0.01710  0.36450  Biso   1.000  C
  C496     1.0000 0.83550  0.04821  0.33310  Biso   1.000  C
  C497     1.0000 0.87222  0.09491  0.37240  Biso   1.000  C
  H353     1.0000 0.88630  0.10410  0.42160  Biso   1.000  H
  C498     1.0000 0.88700  0.12628  0.33880  Biso   1.000  C
  H354     1.0000 0.91100  0.15680  0.36530  Biso   1.000  H
  C499     1.0000 0.86670  0.11360  0.26550  Biso   1.000  C
  H355     1.0000 0.87650  0.13610  0.24290  Biso   1.000  H
  C500     1.0000 0.83210  0.06783  0.22590  Biso   1.000  C
  H356     1.0000 0.81940  0.05910  0.17730  Biso   1.000  H
  C501     1.0000 0.81594  0.03418  0.25890  Biso   1.000  C
  C502     1.0000 0.77918  0.98785  0.21930  Biso   1.000  C
  H357     1.0000 0.76720  0.97770  0.17160  Biso   1.000  H
  C503     1.0000 0.76085  0.95760  0.25000  Biso   1.000  C
  C504     1.0000 0.77944  0.97346  0.32310  Biso   1.000  C
  C505     1.0000 0.71987  0.91062  0.20576  Biso   1.000  C
  C506     1.0000 0.56540  0.23053  0.64070  Biso   1.000  C
  C507     1.0000 0.52388  0.25876  0.64230  Biso   1.000  C
  C508     1.0000 0.47720  0.28405  0.57690  Biso   1.000  C
  H358     1.0000 0.47160  0.28270  0.53190  Biso   1.000  H
  C509     1.0000 0.43700  0.31250  0.57620  Biso   1.000  C
  C510     1.0000 0.38890  0.34030  0.50950  Biso   1.000  C
  H359     1.0000 0.38220  0.33930  0.46370  Biso   1.000  H
  C511     1.0000 0.35240  0.36870  0.51240  Biso   1.000  C
  H360     1.0000 0.32030  0.38620  0.46800  Biso   1.000  H
  C512     1.0000 0.36270  0.37200  0.58230  Biso   1.000  C
  H361     1.0000 0.33850  0.39260  0.58440  Biso   1.000  H
  C513     1.0000 0.40680  0.34570  0.64380  Biso   1.000  C
  H362     1.0000 0.41220  0.34690  0.68860  Biso   1.000  H
  C514     1.0000 0.44690  0.31550  0.64560  Biso   1.000  C
  C515     1.0000 0.49470  0.28811  0.71290  Biso   1.000  C
  C516     1.0000 0.53220  0.26048  0.71100  Biso   1.000  C
  C517     1.0000 0.61780  0.21509  0.47065  Biso   1.000  C
  C518     1.0000 0.57394  0.25863  0.41767  Biso   1.000  C
  C519     1.0000 0.55172  0.29170  0.44097  Biso   1.000  C
  H363     1.0000 0.56500  0.28730  0.49070  Biso   1.000  H
  C520     1.0000 0.50964  0.33188  0.39190  Biso   1.000  C
  C521     1.0000 0.48583  0.36581  0.41460  Biso   1.000  C
  H364     1.0000 0.49900  0.36230  0.46430  Biso   1.000  H
  C522     1.0000 0.44400  0.40358  0.36490  Biso   1.000  C
  H365     1.0000 0.42860  0.42540  0.38070  Biso   1.000  H
  C523     1.0000 0.42400  0.40958  0.28970  Biso   1.000  C
  H366     1.0000 0.39600  0.43590  0.25630  Biso   1.000  H
  C524     1.0000 0.44522  0.37736  0.26500  Biso   1.000  C
  H367     1.0000 0.43080  0.38140  0.21470  Biso   1.000  H
  C525     1.0000 0.48873  0.33787  0.31457  Biso   1.000  C
  C526     1.0000 0.51168  0.30346  0.29057  Biso   1.000  C
  C527     1.0000 0.55335  0.26506  0.34107  Biso   1.000  C
  C528     1.0000 0.59460  0.06670  0.35080  Biso   1.000  C
  H368     1.0000 0.57070  0.09900  0.32550  Biso   1.000  H
  H369     1.0000 0.63370  0.07660  0.37730  Biso   1.000  H
  H370     1.0000 0.58220  0.03860  0.31290  Biso   1.000  H
  C529     1.0000 0.62310  0.02800  0.38300  Biso   1.000  C
  H371     1.0000 0.64590  0.99550  0.41110  Biso   1.000  H
  H372     1.0000 0.59620  0.01990  0.32840  Biso   1.000  H
  H373     1.0000 0.64760  0.05800  0.39310  Biso   1.000  H
  C530     1.0000 0.59060  0.04460  0.40890  Biso   1.000  C
  C531     1.0000 0.56200  0.08820  0.67300  Biso   1.000  C
  H374     1.0000 0.54130  0.06240  0.67840  Biso   1.000  H
  H375     1.0000 0.60180  0.08750  0.71890  Biso   1.000  H
  H376     1.0000 0.54700  0.12500  0.66550  Biso   1.000  H
  C532     1.0000 0.55530  0.07236  0.60470  Biso   1.000  C
  C533     1.0000 0.61040  0.92270  0.52240  Biso   1.000  C
  H377     1.0000 0.58820  0.92190  0.46890  Biso   1.000  H
  C534     1.0000 0.64480  0.87720  0.56510  Biso   1.000  C
  H378     1.0000 0.64450  0.84660  0.54020  Biso   1.000  H
  C535     1.0000 0.67950  0.87714  0.64470  Biso   1.000  C
  C536     1.0000 0.67658  0.92391  0.67640  Biso   1.000  C
  H379     1.0000 0.69890  0.92640  0.72980  Biso   1.000  H
  C537     1.0000 0.64059  0.96704  0.62920  Biso   1.000  C
  H380     1.0000 0.63970  0.99810  0.65250  Biso   1.000  H
  C538     1.0000 0.71767  0.83025  0.69340  Biso   1.000  C
  C539     1.0000 0.72360  0.78420  0.66330  Biso   1.000  C
  H381     1.0000 0.70290  0.78180  0.61030  Biso   1.000  H
  C540     1.0000 0.76010  0.74201  0.71170  Biso   1.000  C
  H382     1.0000 0.76330  0.71140  0.69010  Biso   1.000  H
  C541     1.0000 0.74990  0.83059  0.77260  Biso   1.000  C
  H383     1.0000 0.74730  0.86050  0.79580  Biso   1.000  H
  C542     1.0000 0.78591  0.78676  0.81730  Biso   1.000  C
  H384     1.0000 0.80750  0.78830  0.87050  Biso   1.000  H
  C543     1.0000 0.43540  0.09511  0.32120  Biso   1.000  C
  H385     1.0000 0.43290  0.05910  0.30440  Biso   1.000  H
  C544     1.0000 0.39560  0.13348  0.26680  Biso   1.000  C
  H386     1.0000 0.36840  0.12310  0.21500  Biso   1.000  H
  C545     1.0000 0.39573  0.18656  0.28789  Biso   1.000  C
  C546     1.0000 0.43720  0.19722  0.36520  Biso   1.000  C
  H387     1.0000 0.43940  0.23230  0.38390  Biso   1.000  H
  C547     1.0000 0.47609  0.15672  0.41610  Biso   1.000  C
  H388     1.0000 0.50360  0.16590  0.46840  Biso   1.000  H
  C548     1.0000 0.35234  0.22860  0.23121  Biso   1.000  C
  C549     1.0000 0.35155  0.28136  0.25490  Biso   1.000  C
  H389     1.0000 0.37890  0.29130  0.30690  Biso   1.000  H
  C550     1.0000 0.31020  0.31905  0.20130  Biso   1.000  C
  H390     1.0000 0.31080  0.35430  0.21860  Biso   1.000  H
  C551     1.0000 0.31070  0.21744  0.15200  Biso   1.000  C
  H391     1.0000 0.31000  0.18310  0.13270  Biso   1.000  H
  C552     1.0000 0.27089  0.25712  0.10278  Biso   1.000  C
  H392     1.0000 0.24340  0.24850  0.05030  Biso   1.000  H
