data_image0
_cell_length_a       34.804
_cell_length_b       14.8607
_cell_length_c       31.624
_cell_angle_alpha    90
_cell_angle_beta     102.083
_cell_angle_gamma    90

_symmetry_space_group_name_H-M    "P 1"
_symmetry_int_tables_number       1

loop_
  _symmetry_equiv_pos_as_xyz
  'x, y, z'

loop_
  _atom_site_label
  _atom_site_occupancy
  _atom_site_fract_x
  _atom_site_fract_y
  _atom_site_fract_z
  _atom_site_thermal_displace_type
  _atom_site_B_iso_or_equiv
  _atom_site_type_symbol
  I1       1.0000 0.02622  0.29820  0.37376  Biso   1.000  I
  Zn1      1.0000 0.08597  0.26969  0.33982  Biso   1.000  Zn
  I2       1.0000 0.12109  0.38568  0.30457  Biso   1.000  I
  N1       1.0000 0.12640  0.20440  0.38650  Biso   1.000  N
  C1       1.0000 0.12180  0.11420  0.39360  Biso   1.000  C
  H1       1.0000 0.10200  0.08380  0.37350  Biso   1.000  H
  C2       1.0000 0.14260  0.06420  0.42620  Biso   1.000  C
  H2       1.0000 0.13890  0.00100  0.42720  Biso   1.000  H
  C3       1.0000 0.17000  0.10900  0.45880  Biso   1.000  C
  C4       1.0000 0.17400  0.20280  0.45370  Biso   1.000  C
  H3       1.0000 0.19110  0.23580  0.47560  Biso   1.000  H
  C5       1.0000 0.15310  0.24890  0.41690  Biso   1.000  C
  H4       1.0000 0.15770  0.31110  0.41330  Biso   1.000  H
  C6       1.0000 0.19260  0.05900  0.49540  Biso   1.000  C
  N2       1.0000 0.18340  0.96980  0.49680  Biso   1.000  N
  C7       1.0000 0.20580  0.92390  0.52810  Biso   1.000  C
  N3       1.0000 0.23550  0.96050  0.56090  Biso   1.000  N
  C8       1.0000 0.24030  0.04660  0.55840  Biso   1.000  C
  N4       1.0000 0.22130  0.09840  0.52100  Biso   1.000  N
  N5       1.0000 0.18180  0.64400  0.51750  Biso   1.000  N
  C9       1.0000 0.20920  0.67800  0.54900  Biso   1.000  C
  H5       1.0000 0.22410  0.63820  0.56940  Biso   1.000  H
  C10      1.0000 0.21760  0.76900  0.55400  Biso   1.000  C
  H6       1.0000 0.23780  0.78710  0.57750  Biso   1.000  H
  C11      1.0000 0.19820  0.83400  0.52670  Biso   1.000  C
  C12      1.0000 0.17010  0.79700  0.49450  Biso   1.000  C
  H7       1.0000 0.15510  0.83580  0.47350  Biso   1.000  H
  C13      1.0000 0.16270  0.70600  0.49090  Biso   1.000  C
  H8       1.0000 0.14250  0.68650  0.46770  Biso   1.000  H
  I3       1.0000 0.12204  0.48806  0.44531  Biso   1.000  I
  Zn2      1.0000 0.16946  0.50697  0.51862  Biso   1.000  Zn
  I4       1.0000 0.22964  0.41019  0.54113  Biso   1.000  I
  N6       1.0000 0.33070  0.18070  0.64550  Biso   1.000  N
  C14      1.0000 0.30950  0.22630  0.61160  Biso   1.000  C
  H9       1.0000 0.31570  0.28730  0.60710  Biso   1.000  H
  C15      1.0000 0.27880  0.18510  0.58350  Biso   1.000  C
  H10      1.0000 0.26150  0.22040  0.56270  Biso   1.000  H
  C16      1.0000 0.27310  0.09330  0.58500  Biso   1.000  C
  C17      1.0000 0.29460  0.04570  0.62040  Biso   1.000  C
  H11      1.0000 0.28990  0.98390  0.62500  Biso   1.000  H
  C18      1.0000 0.32460  0.09720  0.64970  Biso   1.000  C
  H12      1.0000 0.34060  0.06640  0.67330  Biso   1.000  H
  I5       1.0000 0.39003  0.38438  0.65579  Biso   1.000  I
  Zn3      1.0000 0.37338  0.24171  0.69104  Biso   1.000  Zn
  I6       1.0000 0.35217  0.23458  0.76244  Biso   1.000  I
  N7       1.0000 0.42180  0.15430  0.69500  Biso   1.000  N
  C19      1.0000 0.43690  0.11130  0.72830  Biso   1.000  C
  H13      1.0000 0.42670  0.11780  0.75370  Biso   1.000  H
  C20      1.0000 0.46950  0.05200  0.72830  Biso   1.000  C
  H14      1.0000 0.48000  0.01780  0.75350  Biso   1.000  H
  C21      1.0000 0.48540  0.04440  0.69360  Biso   1.000  C
  C22      1.0000 0.46640  0.08550  0.65500  Biso   1.000  C
  H15      1.0000 0.47360  0.07510  0.62800  Biso   1.000  H
  C23      1.0000 0.43570  0.14400  0.66010  Biso   1.000  C
  H16      1.0000 0.42390  0.17910  0.63570  Biso   1.000  H
  C24      1.0000 0.52120  0.98930  0.69280  Biso   1.000  C
  N8       1.0000 0.52550  0.92180  0.72150  Biso   1.000  N
  C25      1.0000 0.55470  0.86690  0.71590  Biso   1.000  C
  N9       1.0000 0.57790  0.87410  0.68700  Biso   1.000  N
  N10      1.0000 0.53980  0.00410  0.66070  Biso   1.000  N
  N11      1.0000 0.57370  0.63030  0.79590  Biso   1.000  N
  C26      1.0000 0.56250  0.78220  0.74480  Biso   1.000  C
  C27      1.0000 0.59680  0.65000  0.76860  Biso   1.000  C
  H17      1.0000 0.61780  0.61020  0.76720  Biso   1.000  H
  C28      1.0000 0.59260  0.72460  0.74220  Biso   1.000  C
  H18      1.0000 0.60980  0.73550  0.72300  Biso   1.000  H
  C29      1.0000 0.53780  0.76300  0.77220  Biso   1.000  C
  H19      1.0000 0.51670  0.80220  0.77410  Biso   1.000  H
  C30      1.0000 0.54410  0.68600  0.79700  Biso   1.000  C
  H20      1.0000 0.52670  0.67280  0.81560  Biso   1.000  H
  I7       1.0000 0.52916  0.49326  0.87184  Biso   1.000  I
  Zn4      1.0000 0.58802  0.52573  0.83892  Biso   1.000  Zn
  I8       1.0000 0.62651  0.41418  0.80338  Biso   1.000  I
  N12      1.0000 0.62120  0.59080  0.89200  Biso   1.000  N
  C31      1.0000 0.65280  0.55100  0.91580  Biso   1.000  C
  H21      1.0000 0.65920  0.49090  0.90940  Biso   1.000  H
  C32      1.0000 0.67590  0.59600  0.94940  Biso   1.000  C
  H22      1.0000 0.69830  0.56720  0.96620  Biso   1.000  H
  C33      1.0000 0.66720  0.68300  0.95920  Biso   1.000  C
  C34      1.0000 0.63450  0.72280  0.93440  Biso   1.000  C
  H23      1.0000 0.62730  0.78250  0.94030  Biso   1.000  H
  C35      1.0000 0.61250  0.67470  0.90110  Biso   1.000  C
  H24      1.0000 0.59000  0.70240  0.88380  Biso   1.000  H
  C36      1.0000 0.69270  0.73780  0.99460  Biso   1.000  C
  N13      1.0000 0.72110  0.69430  0.02200  Biso   1.000  N
  C37      1.0000 0.74010  0.74720  0.05080  Biso   1.000  C
  N14      1.0000 0.73250  0.83580  0.05780  Biso   1.000  N
  C38      1.0000 0.70430  0.86930  0.03090  Biso   1.000  C
  N15      1.0000 0.68130  0.82170  0.99840  Biso   1.000  N
  N16      1.0000 0.83170  0.61750  0.14440  Biso   1.000  N
  C39      1.0000 0.82050  0.70520  0.14930  Biso   1.000  C
  H25      1.0000 0.83430  0.73820  0.17350  Biso   1.000  H
  C40      1.0000 0.79270  0.74470  0.12330  Biso   1.000  C
  H26      1.0000 0.78660  0.80500  0.12930  Biso   1.000  H
  C41      1.0000 0.77130  0.70440  0.08700  Biso   1.000  C
  C42      1.0000 0.78330  0.61440  0.07980  Biso   1.000  C
  H27      1.0000 0.77170  0.58270  0.05420  Biso   1.000  H
  C43      1.0000 0.81140  0.57580  0.11020  Biso   1.000  C
  H28      1.0000 0.81690  0.51400  0.10680  Biso   1.000  H
  N17      1.0000 0.68340  0.15220  0.02480  Biso   1.000  N
  C44      1.0000 0.65860  0.09440  0.00110  Biso   1.000  C
  H29      1.0000 0.63570  0.11750  0.98260  Biso   1.000  H
  C45      1.0000 0.66460  0.00300  0.00220  Biso   1.000  C
  H30      1.0000 0.64620  0.96410  0.98460  Biso   1.000  H
  C46      1.0000 0.69770  0.96860  0.02940  Biso   1.000  C
  C47      1.0000 0.72250  0.02840  0.05390  Biso   1.000  C
  H31      1.0000 0.74470  0.00690  0.07410  Biso   1.000  H
  C48      1.0000 0.71570  0.11930  0.04960  Biso   1.000  C
  H32      1.0000 0.73480  0.15970  0.06500  Biso   1.000  H
  I9       1.0000 0.62558  0.30767  0.94421  Biso   1.000  I
  Zn5      1.0000 0.67038  0.28878  0.01843  Biso   1.000  Zn
  I10      1.0000 0.73249  0.38170  0.04310  Biso   1.000  I
  I11      1.0000 0.85351  0.56453  0.26233  Biso   1.000  I
  Zn6      1.0000 0.87438  0.55461  0.19028  Biso   1.000  Zn
  I12      1.0000 0.89083  0.41061  0.15597  Biso   1.000  I
  N18      1.0000 0.91920  0.64600  0.19270  Biso   1.000  N
  C49      1.0000 0.93090  0.65310  0.15540  Biso   1.000  C
  H33      1.0000 0.91760  0.62490  0.12950  Biso   1.000  H
  C50      1.0000 0.96380  0.70490  0.15750  Biso   1.000  C
  H34      1.0000 0.97270  0.71090  0.13120  Biso   1.000  H
  C51      1.0000 0.98590  0.74900  0.19250  Biso   1.000  C
  C52      1.0000 0.97170  0.73800  0.22940  Biso   1.000  C
  H35      1.0000 0.98470  0.76540  0.25570  Biso   1.000  H
  C53      1.0000 0.93870  0.68690  0.22830  Biso   1.000  C
  H36      1.0000 0.92920  0.68040  0.25420  Biso   1.000  H
  C54      1.0000 0.01990  0.80770  0.19230  Biso   1.000  C
  N19      1.0000 0.04000  0.79160  0.16260  Biso   1.000  N
  C55      1.0000 0.06950  0.84890  0.15930  Biso   1.000  C
  N20      1.0000 0.07720  0.92070  0.18650  Biso   1.000  N
  C56      1.0000 0.05570  0.93410  0.21510  Biso   1.000  C
  N21      1.0000 0.02810  0.87610  0.22070  Biso   1.000  N
  N22      1.0000 0.13930  0.80900  0.06670  Biso   1.000  N
  C57      1.0000 0.14990  0.86200  0.10080  Biso   1.000  C
  H37      1.0000 0.17450  0.89160  0.10380  Biso   1.000  H
  C58      1.0000 0.12900  0.87860  0.13230  Biso   1.000  C
  H38      1.0000 0.13850  0.91780  0.15590  Biso   1.000  H
  C59      1.0000 0.09350  0.83510  0.12760  Biso   1.000  C
  C60      1.0000 0.08170  0.78010  0.09230  Biso   1.000  C
  H39      1.0000 0.05710  0.75020  0.08840  Biso   1.000  H
  C61      1.0000 0.10480  0.76790  0.06260  Biso   1.000  C
  H40      1.0000 0.09600  0.72930  0.03860  Biso   1.000  H
  N23      1.0000 0.07360  0.16480  0.29640  Biso   1.000  N
  C62      1.0000 0.04100  0.11340  0.29280  Biso   1.000  C
  H41      1.0000 0.02210  0.12970  0.30910  Biso   1.000  H
  C63      1.0000 0.03400  0.03910  0.26670  Biso   1.000  C
  H42      1.0000 0.01050  0.00560  0.26530  Biso   1.000  H
  C64      1.0000 0.06120  0.01180  0.24210  Biso   1.000  C
  C65      1.0000 0.09400  0.06550  0.24460  Biso   1.000  C
  H43      1.0000 0.11310  0.05050  0.22830  Biso   1.000  H
  C66      1.0000 0.09890  0.14040  0.27050  Biso   1.000  C
  H44      1.0000 0.12110  0.17750  0.27050  Biso   1.000  H
  N24      1.0000 0.63880  0.99590  0.56750  Biso   1.000  N
  C67      1.0000 0.60380  0.03340  0.56510  Biso   1.000  C
  H45      1.0000 0.59410  0.07230  0.54140  Biso   1.000  H
  C68      1.0000 0.58080  0.01920  0.59470  Biso   1.000  C
  H46      1.0000 0.55600  0.04830  0.59080  Biso   1.000  H
  C69      1.0000 0.65170  0.94270  0.60160  Biso   1.000  C
  H47      1.0000 0.67690  0.91580  0.60550  Biso   1.000  H
  C70      1.0000 0.62850  0.92660  0.63090  Biso   1.000  C
  H48      1.0000 0.63830  0.88600  0.65390  Biso   1.000  H
  C71      1.0000 0.56950  0.94710  0.66220  Biso   1.000  C
  C72      1.0000 0.59260  0.96450  0.62980  Biso   1.000  C
  N25      1.0000 0.18870  0.64100  0.52930  Biso   1.000  N
  C73      1.0000 0.21990  0.67900  0.55490  Biso   1.000  C
  H49      1.0000 0.23870  0.64000  0.57200  Biso   1.000  H
  C74      1.0000 0.22680  0.77000  0.55810  Biso   1.000  C
  H50      1.0000 0.24900  0.79560  0.57680  Biso   1.000  H
  C75      1.0000 0.19830  0.82000  0.53170  Biso   1.000  C
  C76      1.0000 0.16480  0.78800  0.50520  Biso   1.000  C
  H51      1.0000 0.14530  0.82510  0.48830  Biso   1.000  H
  C77      1.0000 0.16220  0.69500  0.50540  Biso   1.000  C
  H52      1.0000 0.14000  0.66830  0.48720  Biso   1.000  H
  C78      1.0000 0.60250  0.66300  0.77880  Biso   1.000  C
  H53      1.0000 0.62710  0.63300  0.78440  Biso   1.000  H
  C79      1.0000 0.59830  0.73900  0.75320  Biso   1.000  C
  H54      1.0000 0.61960  0.76090  0.74170  Biso   1.000  H
  C80      1.0000 0.53210  0.75100  0.76210  Biso   1.000  C
  H55      1.0000 0.50710  0.77970  0.75690  Biso   1.000  H
  C81      1.0000 0.54000  0.67600  0.78750  Biso   1.000  C
  H56      1.0000 0.51950  0.65390  0.80040  Biso   1.000  H
  N26      1.0000 0.63130  0.59630  0.88520  Biso   1.000  N
  C82      1.0000 0.65200  0.55400  0.91990  Biso   1.000  C
  H57      1.0000 0.65190  0.49030  0.91910  Biso   1.000  H
  C83      1.0000 0.67340  0.59400  0.95640  Biso   1.000  C
  H58      1.0000 0.68770  0.56050  0.98030  Biso   1.000  H
  C84      1.0000 0.67210  0.68600  0.95520  Biso   1.000  C
  C85      1.0000 0.65120  0.73170  0.92010  Biso   1.000  C
  H59      1.0000 0.65110  0.79560  0.92000  Biso   1.000  H
  C86      1.0000 0.63040  0.68570  0.88500  Biso   1.000  C
  H60      1.0000 0.61560  0.71730  0.86090  Biso   1.000  H
  N27      1.0000 0.92160  0.62800  0.19280  Biso   1.000  N
  C87      1.0000 0.94600  0.61940  0.16600  Biso   1.000  C
  H61      1.0000 0.94060  0.57220  0.14530  Biso   1.000  H
  C88      1.0000 0.97830  0.67160  0.16530  Biso   1.000  C
  H62      1.0000 0.99400  0.65990  0.14480  Biso   1.000  H
  C89      1.0000 0.98780  0.74100  0.19440  Biso   1.000  C
  C90      1.0000 0.96390  0.75400  0.22340  Biso   1.000  C
  H63      1.0000 0.96920  0.79920  0.24490  Biso   1.000  H
  C91      1.0000 0.93210  0.69700  0.21980  Biso   1.000  C
  H64      1.0000 0.91520  0.70920  0.23920  Biso   1.000  H
  I13      1.0000 0.52622  0.79820  0.37376  Biso   1.000  I
  Zn7      1.0000 0.58597  0.76969  0.33982  Biso   1.000  Zn
  I14      1.0000 0.62109  0.88568  0.30457  Biso   1.000  I
  N28      1.0000 0.62640  0.70440  0.38650  Biso   1.000  N
  C92      1.0000 0.62180  0.61420  0.39360  Biso   1.000  C
  H65      1.0000 0.60200  0.58380  0.37350  Biso   1.000  H
  C93      1.0000 0.64260  0.56420  0.42620  Biso   1.000  C
  H66      1.0000 0.63890  0.50100  0.42720  Biso   1.000  H
  C94      1.0000 0.67000  0.60900  0.45880  Biso   1.000  C
  C95      1.0000 0.67400  0.70280  0.45370  Biso   1.000  C
  H67      1.0000 0.69110  0.73580  0.47560  Biso   1.000  H
  C96      1.0000 0.65310  0.74890  0.41690  Biso   1.000  C
  H68      1.0000 0.65770  0.81110  0.41330  Biso   1.000  H
  C97      1.0000 0.69260  0.55900  0.49540  Biso   1.000  C
  N29      1.0000 0.68340  0.46980  0.49680  Biso   1.000  N
  C98      1.0000 0.70580  0.42390  0.52810  Biso   1.000  C
  N30      1.0000 0.73550  0.46050  0.56090  Biso   1.000  N
  C99      1.0000 0.74030  0.54660  0.55840  Biso   1.000  C
  N31      1.0000 0.72130  0.59840  0.52100  Biso   1.000  N
  N32      1.0000 0.68180  0.14400  0.51750  Biso   1.000  N
  C100     1.0000 0.70920  0.17800  0.54900  Biso   1.000  C
  H69      1.0000 0.72410  0.13820  0.56940  Biso   1.000  H
  C101     1.0000 0.71760  0.26900  0.55400  Biso   1.000  C
  H70      1.0000 0.73780  0.28710  0.57750  Biso   1.000  H
  C102     1.0000 0.69820  0.33400  0.52670  Biso   1.000  C
  C103     1.0000 0.67010  0.29700  0.49450  Biso   1.000  C
  H71      1.0000 0.65510  0.33580  0.47350  Biso   1.000  H
  C104     1.0000 0.66270  0.20600  0.49090  Biso   1.000  C
  H72      1.0000 0.64250  0.18650  0.46770  Biso   1.000  H
  I15      1.0000 0.62204  0.98806  0.44531  Biso   1.000  I
  Zn8      1.0000 0.66946  0.00697  0.51862  Biso   1.000  Zn
  I16      1.0000 0.72964  0.91019  0.54113  Biso   1.000  I
  N33      1.0000 0.83070  0.68070  0.64550  Biso   1.000  N
  C105     1.0000 0.80950  0.72630  0.61160  Biso   1.000  C
  H73      1.0000 0.81570  0.78730  0.60710  Biso   1.000  H
  C106     1.0000 0.77880  0.68510  0.58350  Biso   1.000  C
  H74      1.0000 0.76150  0.72040  0.56270  Biso   1.000  H
  C107     1.0000 0.77310  0.59330  0.58500  Biso   1.000  C
  C108     1.0000 0.79460  0.54570  0.62040  Biso   1.000  C
  H75      1.0000 0.78990  0.48390  0.62500  Biso   1.000  H
  C109     1.0000 0.82460  0.59720  0.64970  Biso   1.000  C
  H76      1.0000 0.84060  0.56640  0.67330  Biso   1.000  H
  I17      1.0000 0.89003  0.88438  0.65579  Biso   1.000  I
  Zn9      1.0000 0.87338  0.74171  0.69104  Biso   1.000  Zn
  I18      1.0000 0.85217  0.73458  0.76244  Biso   1.000  I
  N34      1.0000 0.92180  0.65430  0.69500  Biso   1.000  N
  C110     1.0000 0.93690  0.61130  0.72830  Biso   1.000  C
  H77      1.0000 0.92670  0.61780  0.75370  Biso   1.000  H
  C111     1.0000 0.96950  0.55200  0.72830  Biso   1.000  C
  H78      1.0000 0.98000  0.51780  0.75350  Biso   1.000  H
  C112     1.0000 0.98540  0.54440  0.69360  Biso   1.000  C
  C113     1.0000 0.96640  0.58550  0.65500  Biso   1.000  C
  H79      1.0000 0.97360  0.57510  0.62800  Biso   1.000  H
  C114     1.0000 0.93570  0.64400  0.66010  Biso   1.000  C
  H80      1.0000 0.92390  0.67910  0.63570  Biso   1.000  H
  C115     1.0000 0.02120  0.48930  0.69280  Biso   1.000  C
  N35      1.0000 0.02550  0.42180  0.72150  Biso   1.000  N
  C116     1.0000 0.05470  0.36690  0.71590  Biso   1.000  C
  N36      1.0000 0.07790  0.37410  0.68700  Biso   1.000  N
  N37      1.0000 0.03980  0.50410  0.66070  Biso   1.000  N
  N38      1.0000 0.07370  0.13030  0.79590  Biso   1.000  N
  C117     1.0000 0.06250  0.28220  0.74480  Biso   1.000  C
  C118     1.0000 0.09680  0.15000  0.76860  Biso   1.000  C
  H81      1.0000 0.11780  0.11020  0.76720  Biso   1.000  H
  C119     1.0000 0.09260  0.22460  0.74220  Biso   1.000  C
  H82      1.0000 0.10980  0.23550  0.72300  Biso   1.000  H
  C120     1.0000 0.03780  0.26300  0.77220  Biso   1.000  C
  H83      1.0000 0.01670  0.30220  0.77410  Biso   1.000  H
  C121     1.0000 0.04410  0.18600  0.79700  Biso   1.000  C
  H84      1.0000 0.02670  0.17280  0.81560  Biso   1.000  H
  I19      1.0000 0.02916  0.99326  0.87184  Biso   1.000  I
  Zn10     1.0000 0.08802  0.02573  0.83892  Biso   1.000  Zn
  I20      1.0000 0.12651  0.91418  0.80338  Biso   1.000  I
  N39      1.0000 0.12120  0.09080  0.89200  Biso   1.000  N
  C122     1.0000 0.15280  0.05100  0.91580  Biso   1.000  C
  H85      1.0000 0.15920  0.99090  0.90940  Biso   1.000  H
  C123     1.0000 0.17590  0.09600  0.94940  Biso   1.000  C
  H86      1.0000 0.19830  0.06720  0.96620  Biso   1.000  H
  C124     1.0000 0.16720  0.18300  0.95920  Biso   1.000  C
  C125     1.0000 0.13450  0.22280  0.93440  Biso   1.000  C
  H87      1.0000 0.12730  0.28250  0.94030  Biso   1.000  H
  C126     1.0000 0.11250  0.17470  0.90110  Biso   1.000  C
  H88      1.0000 0.09000  0.20240  0.88380  Biso   1.000  H
  C127     1.0000 0.19270  0.23780  0.99460  Biso   1.000  C
  N40      1.0000 0.22110  0.19430  0.02200  Biso   1.000  N
  C128     1.0000 0.24010  0.24720  0.05080  Biso   1.000  C
  N41      1.0000 0.23250  0.33580  0.05780  Biso   1.000  N
  C129     1.0000 0.20430  0.36930  0.03090  Biso   1.000  C
  N42      1.0000 0.18130  0.32170  0.99840  Biso   1.000  N
  N43      1.0000 0.33170  0.11750  0.14440  Biso   1.000  N
  C130     1.0000 0.32050  0.20520  0.14930  Biso   1.000  C
  H89      1.0000 0.33430  0.23820  0.17350  Biso   1.000  H
  C131     1.0000 0.29270  0.24470  0.12330  Biso   1.000  C
  H90      1.0000 0.28660  0.30500  0.12930  Biso   1.000  H
  C132     1.0000 0.27130  0.20440  0.08700  Biso   1.000  C
  C133     1.0000 0.28330  0.11440  0.07980  Biso   1.000  C
  H91      1.0000 0.27170  0.08270  0.05420  Biso   1.000  H
  C134     1.0000 0.31140  0.07580  0.11020  Biso   1.000  C
  H92      1.0000 0.31690  0.01400  0.10680  Biso   1.000  H
  N44      1.0000 0.18340  0.65220  0.02480  Biso   1.000  N
  C135     1.0000 0.15860  0.59440  0.00110  Biso   1.000  C
  H93      1.0000 0.13570  0.61750  0.98260  Biso   1.000  H
  C136     1.0000 0.16460  0.50300  0.00220  Biso   1.000  C
  H94      1.0000 0.14620  0.46410  0.98460  Biso   1.000  H
  C137     1.0000 0.19770  0.46860  0.02940  Biso   1.000  C
  C138     1.0000 0.22250  0.52840  0.05390  Biso   1.000  C
  H95      1.0000 0.24470  0.50690  0.07410  Biso   1.000  H
  C139     1.0000 0.21570  0.61930  0.04960  Biso   1.000  C
  H96      1.0000 0.23480  0.65970  0.06500  Biso   1.000  H
  I21      1.0000 0.12558  0.80767  0.94421  Biso   1.000  I
  Zn11     1.0000 0.17038  0.78878  0.01843  Biso   1.000  Zn
  I22      1.0000 0.23249  0.88170  0.04310  Biso   1.000  I
  I23      1.0000 0.35351  0.06453  0.26233  Biso   1.000  I
  Zn12     1.0000 0.37438  0.05461  0.19028  Biso   1.000  Zn
  I24      1.0000 0.39083  0.91061  0.15597  Biso   1.000  I
  N45      1.0000 0.41920  0.14600  0.19270  Biso   1.000  N
  C140     1.0000 0.43090  0.15310  0.15540  Biso   1.000  C
  H97      1.0000 0.41760  0.12490  0.12950  Biso   1.000  H
  C141     1.0000 0.46380  0.20490  0.15750  Biso   1.000  C
  H98      1.0000 0.47270  0.21090  0.13120  Biso   1.000  H
  C142     1.0000 0.48590  0.24900  0.19250  Biso   1.000  C
  C143     1.0000 0.47170  0.23800  0.22940  Biso   1.000  C
  H99      1.0000 0.48470  0.26540  0.25570  Biso   1.000  H
  C144     1.0000 0.43870  0.18690  0.22830  Biso   1.000  C
  H100     1.0000 0.42920  0.18040  0.25420  Biso   1.000  H
  C145     1.0000 0.51990  0.30770  0.19230  Biso   1.000  C
  N46      1.0000 0.54000  0.29160  0.16260  Biso   1.000  N
  C146     1.0000 0.56950  0.34890  0.15930  Biso   1.000  C
  N47      1.0000 0.57720  0.42070  0.18650  Biso   1.000  N
  C147     1.0000 0.55570  0.43410  0.21510  Biso   1.000  C
  N48      1.0000 0.52810  0.37610  0.22070  Biso   1.000  N
  N49      1.0000 0.63930  0.30900  0.06670  Biso   1.000  N
  C148     1.0000 0.64990  0.36200  0.10080  Biso   1.000  C
  H101     1.0000 0.67450  0.39160  0.10380  Biso   1.000  H
  C149     1.0000 0.62900  0.37860  0.13230  Biso   1.000  C
  H102     1.0000 0.63850  0.41780  0.15590  Biso   1.000  H
  C150     1.0000 0.59350  0.33510  0.12760  Biso   1.000  C
  C151     1.0000 0.58170  0.28010  0.09230  Biso   1.000  C
  H103     1.0000 0.55710  0.25020  0.08840  Biso   1.000  H
  C152     1.0000 0.60480  0.26790  0.06260  Biso   1.000  C
  H104     1.0000 0.59600  0.22930  0.03860  Biso   1.000  H
  N50      1.0000 0.57360  0.66480  0.29640  Biso   1.000  N
  C153     1.0000 0.54100  0.61340  0.29280  Biso   1.000  C
  H105     1.0000 0.52210  0.62970  0.30910  Biso   1.000  H
  C154     1.0000 0.53400  0.53910  0.26670  Biso   1.000  C
  H106     1.0000 0.51050  0.50560  0.26530  Biso   1.000  H
  C155     1.0000 0.56120  0.51180  0.24210  Biso   1.000  C
  C156     1.0000 0.59400  0.56550  0.24460  Biso   1.000  C
  H107     1.0000 0.61310  0.55050  0.22830  Biso   1.000  H
  C157     1.0000 0.59890  0.64040  0.27050  Biso   1.000  C
  H108     1.0000 0.62110  0.67750  0.27050  Biso   1.000  H
  N51      1.0000 0.13880  0.49590  0.56750  Biso   1.000  N
  C158     1.0000 0.10380  0.53340  0.56510  Biso   1.000  C
  H109     1.0000 0.09410  0.57230  0.54140  Biso   1.000  H
  C159     1.0000 0.08080  0.51920  0.59470  Biso   1.000  C
  H110     1.0000 0.05600  0.54830  0.59080  Biso   1.000  H
  C160     1.0000 0.15170  0.44270  0.60160  Biso   1.000  C
  H111     1.0000 0.17690  0.41580  0.60550  Biso   1.000  H
  C161     1.0000 0.12850  0.42660  0.63090  Biso   1.000  C
  H112     1.0000 0.13830  0.38600  0.65390  Biso   1.000  H
  C162     1.0000 0.06950  0.44710  0.66220  Biso   1.000  C
  C163     1.0000 0.09260  0.46450  0.62980  Biso   1.000  C
  N52      1.0000 0.68870  0.14100  0.52930  Biso   1.000  N
  C164     1.0000 0.71990  0.17900  0.55490  Biso   1.000  C
  H113     1.0000 0.73870  0.14000  0.57200  Biso   1.000  H
  C165     1.0000 0.72680  0.27000  0.55810  Biso   1.000  C
  H114     1.0000 0.74900  0.29560  0.57680  Biso   1.000  H
  C166     1.0000 0.69830  0.32000  0.53170  Biso   1.000  C
  C167     1.0000 0.66480  0.28800  0.50520  Biso   1.000  C
  H115     1.0000 0.64530  0.32510  0.48830  Biso   1.000  H
  C168     1.0000 0.66220  0.19500  0.50540  Biso   1.000  C
  H116     1.0000 0.64000  0.16830  0.48720  Biso   1.000  H
  C169     1.0000 0.10250  0.16300  0.77880  Biso   1.000  C
  H117     1.0000 0.12710  0.13300  0.78440  Biso   1.000  H
  C170     1.0000 0.09830  0.23900  0.75320  Biso   1.000  C
  H118     1.0000 0.11960  0.26090  0.74170  Biso   1.000  H
  C171     1.0000 0.03210  0.25100  0.76210  Biso   1.000  C
  H119     1.0000 0.00710  0.27970  0.75690  Biso   1.000  H
  C172     1.0000 0.04000  0.17600  0.78750  Biso   1.000  C
  H120     1.0000 0.01950  0.15390  0.80040  Biso   1.000  H
  N53      1.0000 0.13130  0.09630  0.88520  Biso   1.000  N
  C173     1.0000 0.15200  0.05400  0.91990  Biso   1.000  C
  H121     1.0000 0.15190  0.99030  0.91910  Biso   1.000  H
  C174     1.0000 0.17340  0.09400  0.95640  Biso   1.000  C
  H122     1.0000 0.18770  0.06050  0.98030  Biso   1.000  H
  C175     1.0000 0.17210  0.18600  0.95520  Biso   1.000  C
  C176     1.0000 0.15120  0.23170  0.92010  Biso   1.000  C
  H123     1.0000 0.15110  0.29560  0.92000  Biso   1.000  H
  C177     1.0000 0.13040  0.18570  0.88500  Biso   1.000  C
  H124     1.0000 0.11560  0.21730  0.86090  Biso   1.000  H
  N54      1.0000 0.42160  0.12800  0.19280  Biso   1.000  N
  C178     1.0000 0.44600  0.11940  0.16600  Biso   1.000  C
  H125     1.0000 0.44060  0.07220  0.14530  Biso   1.000  H
  C179     1.0000 0.47830  0.17160  0.16530  Biso   1.000  C
  H126     1.0000 0.49400  0.15990  0.14480  Biso   1.000  H
  C180     1.0000 0.48780  0.24100  0.19440  Biso   1.000  C
  C181     1.0000 0.46390  0.25400  0.22340  Biso   1.000  C
  H127     1.0000 0.46920  0.29920  0.24490  Biso   1.000  H
  C182     1.0000 0.43210  0.19700  0.21980  Biso   1.000  C
  H128     1.0000 0.41520  0.20920  0.23920  Biso   1.000  H
  I25      1.0000 0.97378  0.29820  0.62624  Biso   1.000  I
  Zn13     1.0000 0.91403  0.26969  0.66018  Biso   1.000  Zn
  I26      1.0000 0.87891  0.38568  0.69543  Biso   1.000  I
  N55      1.0000 0.87360  0.20440  0.61350  Biso   1.000  N
  C183     1.0000 0.87820  0.11420  0.60640  Biso   1.000  C
  H129     1.0000 0.89800  0.08380  0.62650  Biso   1.000  H
  C184     1.0000 0.85740  0.06420  0.57380  Biso   1.000  C
  H130     1.0000 0.86110  0.00100  0.57280  Biso   1.000  H
  C185     1.0000 0.83000  0.10900  0.54120  Biso   1.000  C
  C186     1.0000 0.82600  0.20280  0.54630  Biso   1.000  C
  H131     1.0000 0.80890  0.23580  0.52440  Biso   1.000  H
  C187     1.0000 0.84690  0.24890  0.58310  Biso   1.000  C
  H132     1.0000 0.84230  0.31110  0.58670  Biso   1.000  H
  C188     1.0000 0.80740  0.05900  0.50460  Biso   1.000  C
  N56      1.0000 0.81660  0.96980  0.50320  Biso   1.000  N
  C189     1.0000 0.79420  0.92390  0.47190  Biso   1.000  C
  N57      1.0000 0.76450  0.96050  0.43910  Biso   1.000  N
  C190     1.0000 0.75970  0.04660  0.44160  Biso   1.000  C
  N58      1.0000 0.77870  0.09840  0.47900  Biso   1.000  N
  N59      1.0000 0.81820  0.64400  0.48250  Biso   1.000  N
  C191     1.0000 0.79080  0.67800  0.45100  Biso   1.000  C
  H133     1.0000 0.77590  0.63820  0.43060  Biso   1.000  H
  C192     1.0000 0.78240  0.76900  0.44600  Biso   1.000  C
  H134     1.0000 0.76220  0.78710  0.42250  Biso   1.000  H
  C193     1.0000 0.80180  0.83400  0.47330  Biso   1.000  C
  C194     1.0000 0.82990  0.79700  0.50550  Biso   1.000  C
  H135     1.0000 0.84490  0.83580  0.52650  Biso   1.000  H
  C195     1.0000 0.83730  0.70600  0.50910  Biso   1.000  C
  H136     1.0000 0.85750  0.68650  0.53230  Biso   1.000  H
  I27      1.0000 0.87796  0.48806  0.55469  Biso   1.000  I
  Zn14     1.0000 0.83054  0.50697  0.48138  Biso   1.000  Zn
  I28      1.0000 0.77036  0.41019  0.45887  Biso   1.000  I
  N60      1.0000 0.66930  0.18070  0.35450  Biso   1.000  N
  C196     1.0000 0.69050  0.22630  0.38840  Biso   1.000  C
  H137     1.0000 0.68430  0.28730  0.39290  Biso   1.000  H
  C197     1.0000 0.72120  0.18510  0.41650  Biso   1.000  C
  H138     1.0000 0.73850  0.22040  0.43730  Biso   1.000  H
  C198     1.0000 0.72690  0.09330  0.41500  Biso   1.000  C
  C199     1.0000 0.70540  0.04570  0.37960  Biso   1.000  C
  H139     1.0000 0.71010  0.98390  0.37500  Biso   1.000  H
  C200     1.0000 0.67540  0.09720  0.35030  Biso   1.000  C
  H140     1.0000 0.65940  0.06640  0.32670  Biso   1.000  H
  I29      1.0000 0.60997  0.38438  0.34421  Biso   1.000  I
  Zn15     1.0000 0.62662  0.24171  0.30896  Biso   1.000  Zn
  I30      1.0000 0.64783  0.23458  0.23756  Biso   1.000  I
  N61      1.0000 0.57820  0.15430  0.30500  Biso   1.000  N
  C201     1.0000 0.56310  0.11130  0.27170  Biso   1.000  C
  H141     1.0000 0.57330  0.11780  0.24630  Biso   1.000  H
  C202     1.0000 0.53050  0.05200  0.27170  Biso   1.000  C
  H142     1.0000 0.52000  0.01780  0.24650  Biso   1.000  H
  C203     1.0000 0.51460  0.04440  0.30640  Biso   1.000  C
  C204     1.0000 0.53360  0.08550  0.34500  Biso   1.000  C
  H143     1.0000 0.52640  0.07510  0.37200  Biso   1.000  H
  C205     1.0000 0.56430  0.14400  0.33990  Biso   1.000  C
  H144     1.0000 0.57610  0.17910  0.36430  Biso   1.000  H
  C206     1.0000 0.47880  0.98930  0.30720  Biso   1.000  C
  N62      1.0000 0.47450  0.92180  0.27850  Biso   1.000  N
  C207     1.0000 0.44530  0.86690  0.28410  Biso   1.000  C
  N63      1.0000 0.42210  0.87410  0.31300  Biso   1.000  N
  N64      1.0000 0.46020  0.00410  0.33930  Biso   1.000  N
  N65      1.0000 0.42630  0.63030  0.20410  Biso   1.000  N
  C208     1.0000 0.43750  0.78220  0.25520  Biso   1.000  C
  C209     1.0000 0.40320  0.65000  0.23140  Biso   1.000  C
  H145     1.0000 0.38220  0.61020  0.23280  Biso   1.000  H
  C210     1.0000 0.40740  0.72460  0.25780  Biso   1.000  C
  H146     1.0000 0.39020  0.73550  0.27700  Biso   1.000  H
  C211     1.0000 0.46220  0.76300  0.22780  Biso   1.000  C
  H147     1.0000 0.48330  0.80220  0.22590  Biso   1.000  H
  C212     1.0000 0.45590  0.68600  0.20300  Biso   1.000  C
  H148     1.0000 0.47330  0.67280  0.18440  Biso   1.000  H
  I31      1.0000 0.47084  0.49326  0.12816  Biso   1.000  I
  Zn16     1.0000 0.41198  0.52573  0.16108  Biso   1.000  Zn
  I32      1.0000 0.37349  0.41418  0.19662  Biso   1.000  I
  N66      1.0000 0.37880  0.59080  0.10800  Biso   1.000  N
  C213     1.0000 0.34720  0.55100  0.08420  Biso   1.000  C
  H149     1.0000 0.34080  0.49090  0.09060  Biso   1.000  H
  C214     1.0000 0.32410  0.59600  0.05060  Biso   1.000  C
  H150     1.0000 0.30170  0.56720  0.03380  Biso   1.000  H
  C215     1.0000 0.33280  0.68300  0.04080  Biso   1.000  C
  C216     1.0000 0.36550  0.72280  0.06560  Biso   1.000  C
  H151     1.0000 0.37270  0.78250  0.05970  Biso   1.000  H
  C217     1.0000 0.38750  0.67470  0.09890  Biso   1.000  C
  H152     1.0000 0.41000  0.70240  0.11620  Biso   1.000  H
  C218     1.0000 0.30730  0.73780  0.00540  Biso   1.000  C
  N67      1.0000 0.27890  0.69430  0.97800  Biso   1.000  N
  C219     1.0000 0.25990  0.74720  0.94920  Biso   1.000  C
  N68      1.0000 0.26750  0.83580  0.94220  Biso   1.000  N
  C220     1.0000 0.29570  0.86930  0.96910  Biso   1.000  C
  N69      1.0000 0.31870  0.82170  0.00160  Biso   1.000  N
  N70      1.0000 0.16830  0.61750  0.85560  Biso   1.000  N
  C221     1.0000 0.17950  0.70520  0.85070  Biso   1.000  C
  H153     1.0000 0.16570  0.73820  0.82650  Biso   1.000  H
  C222     1.0000 0.20730  0.74470  0.87670  Biso   1.000  C
  H154     1.0000 0.21340  0.80500  0.87070  Biso   1.000  H
  C223     1.0000 0.22870  0.70440  0.91300  Biso   1.000  C
  C224     1.0000 0.21670  0.61440  0.92020  Biso   1.000  C
  H155     1.0000 0.22830  0.58270  0.94580  Biso   1.000  H
  C225     1.0000 0.18860  0.57580  0.88980  Biso   1.000  C
  H156     1.0000 0.18310  0.51400  0.89320  Biso   1.000  H
  N71      1.0000 0.31660  0.15220  0.97520  Biso   1.000  N
  C226     1.0000 0.34140  0.09440  0.99890  Biso   1.000  C
  H157     1.0000 0.36430  0.11750  0.01740  Biso   1.000  H
  C227     1.0000 0.33540  0.00300  0.99780  Biso   1.000  C
  H158     1.0000 0.35380  0.96410  0.01540  Biso   1.000  H
  C228     1.0000 0.30230  0.96860  0.97060  Biso   1.000  C
  C229     1.0000 0.27750  0.02840  0.94610  Biso   1.000  C
  H159     1.0000 0.25530  0.00690  0.92590  Biso   1.000  H
  C230     1.0000 0.28430  0.11930  0.95040  Biso   1.000  C
  H160     1.0000 0.26520  0.15970  0.93500  Biso   1.000  H
  I33      1.0000 0.37442  0.30767  0.05579  Biso   1.000  I
  Zn17     1.0000 0.32962  0.28878  0.98157  Biso   1.000  Zn
  I34      1.0000 0.26751  0.38170  0.95690  Biso   1.000  I
  I35      1.0000 0.14649  0.56453  0.73767  Biso   1.000  I
  Zn18     1.0000 0.12562  0.55461  0.80972  Biso   1.000  Zn
  I36      1.0000 0.10917  0.41061  0.84403  Biso   1.000  I
  N72      1.0000 0.08080  0.64600  0.80730  Biso   1.000  N
  C231     1.0000 0.06910  0.65310  0.84460  Biso   1.000  C
  H161     1.0000 0.08240  0.62490  0.87050  Biso   1.000  H
  C232     1.0000 0.03620  0.70490  0.84250  Biso   1.000  C
  H162     1.0000 0.02730  0.71090  0.86880  Biso   1.000  H
  C233     1.0000 0.01410  0.74900  0.80750  Biso   1.000  C
  C234     1.0000 0.02830  0.73800  0.77060  Biso   1.000  C
  H163     1.0000 0.01530  0.76540  0.74430  Biso   1.000  H
  C235     1.0000 0.06130  0.68690  0.77170  Biso   1.000  C
  H164     1.0000 0.07080  0.68040  0.74580  Biso   1.000  H
  C236     1.0000 0.98010  0.80770  0.80770  Biso   1.000  C
  N73      1.0000 0.96000  0.79160  0.83740  Biso   1.000  N
  C237     1.0000 0.93050  0.84890  0.84070  Biso   1.000  C
  N74      1.0000 0.92280  0.92070  0.81350  Biso   1.000  N
  C238     1.0000 0.94430  0.93410  0.78490  Biso   1.000  C
  N75      1.0000 0.97190  0.87610  0.77930  Biso   1.000  N
  N76      1.0000 0.86070  0.80900  0.93330  Biso   1.000  N
  C239     1.0000 0.85010  0.86200  0.89920  Biso   1.000  C
  H165     1.0000 0.82550  0.89160  0.89620  Biso   1.000  H
  C240     1.0000 0.87100  0.87860  0.86770  Biso   1.000  C
  H166     1.0000 0.86150  0.91780  0.84410  Biso   1.000  H
  C241     1.0000 0.90650  0.83510  0.87240  Biso   1.000  C
  C242     1.0000 0.91830  0.78010  0.90770  Biso   1.000  C
  H167     1.0000 0.94290  0.75020  0.91160  Biso   1.000  H
  C243     1.0000 0.89520  0.76790  0.93740  Biso   1.000  C
  H168     1.0000 0.90400  0.72930  0.96140  Biso   1.000  H
  N77      1.0000 0.92640  0.16480  0.70360  Biso   1.000  N
  C244     1.0000 0.95900  0.11340  0.70720  Biso   1.000  C
  H169     1.0000 0.97790  0.12970  0.69090  Biso   1.000  H
  C245     1.0000 0.96600  0.03910  0.73330  Biso   1.000  C
  H170     1.0000 0.98950  0.00560  0.73470  Biso   1.000  H
  C246     1.0000 0.93880  0.01180  0.75790  Biso   1.000  C
  C247     1.0000 0.90600  0.06550  0.75540  Biso   1.000  C
  H171     1.0000 0.88690  0.05050  0.77170  Biso   1.000  H
  C248     1.0000 0.90110  0.14040  0.72950  Biso   1.000  C
  H172     1.0000 0.87890  0.17750  0.72950  Biso   1.000  H
  N78      1.0000 0.36120  0.99590  0.43250  Biso   1.000  N
  C249     1.0000 0.39620  0.03340  0.43490  Biso   1.000  C
  H173     1.0000 0.40590  0.07230  0.45860  Biso   1.000  H
  C250     1.0000 0.41920  0.01920  0.40530  Biso   1.000  C
  H174     1.0000 0.44400  0.04830  0.40920  Biso   1.000  H
  C251     1.0000 0.34830  0.94270  0.39840  Biso   1.000  C
  H175     1.0000 0.32310  0.91580  0.39450  Biso   1.000  H
  C252     1.0000 0.37150  0.92660  0.36910  Biso   1.000  C
  H176     1.0000 0.36170  0.88600  0.34610  Biso   1.000  H
  C253     1.0000 0.43050  0.94710  0.33780  Biso   1.000  C
  C254     1.0000 0.40740  0.96450  0.37020  Biso   1.000  C
  N79      1.0000 0.81130  0.64100  0.47070  Biso   1.000  N
  C255     1.0000 0.78010  0.67900  0.44510  Biso   1.000  C
  H177     1.0000 0.76130  0.64000  0.42800  Biso   1.000  H
  C256     1.0000 0.77320  0.77000  0.44190  Biso   1.000  C
  H178     1.0000 0.75100  0.79560  0.42320  Biso   1.000  H
  C257     1.0000 0.80170  0.82000  0.46830  Biso   1.000  C
  C258     1.0000 0.83520  0.78800  0.49480  Biso   1.000  C
  H179     1.0000 0.85470  0.82510  0.51170  Biso   1.000  H
  C259     1.0000 0.83780  0.69500  0.49460  Biso   1.000  C
  H180     1.0000 0.86000  0.66830  0.51280  Biso   1.000  H
  C260     1.0000 0.39750  0.66300  0.22120  Biso   1.000  C
  H181     1.0000 0.37290  0.63300  0.21560  Biso   1.000  H
  C261     1.0000 0.40170  0.73900  0.24680  Biso   1.000  C
  H182     1.0000 0.38040  0.76090  0.25830  Biso   1.000  H
  C262     1.0000 0.46790  0.75100  0.23790  Biso   1.000  C
  H183     1.0000 0.49290  0.77970  0.24310  Biso   1.000  H
  C263     1.0000 0.46000  0.67600  0.21250  Biso   1.000  C
  H184     1.0000 0.48050  0.65390  0.19960  Biso   1.000  H
  N80      1.0000 0.36870  0.59630  0.11480  Biso   1.000  N
  C264     1.0000 0.34800  0.55400  0.08010  Biso   1.000  C
  H185     1.0000 0.34810  0.49030  0.08090  Biso   1.000  H
  C265     1.0000 0.32660  0.59400  0.04360  Biso   1.000  C
  H186     1.0000 0.31230  0.56050  0.01970  Biso   1.000  H
  C266     1.0000 0.32790  0.68600  0.04480  Biso   1.000  C
  C267     1.0000 0.34880  0.73170  0.07990  Biso   1.000  C
  H187     1.0000 0.34890  0.79560  0.08000  Biso   1.000  H
  C268     1.0000 0.36960  0.68570  0.11500  Biso   1.000  C
  H188     1.0000 0.38440  0.71730  0.13910  Biso   1.000  H
  N81      1.0000 0.07840  0.62800  0.80720  Biso   1.000  N
  C269     1.0000 0.05400  0.61940  0.83400  Biso   1.000  C
  H189     1.0000 0.05940  0.57220  0.85470  Biso   1.000  H
  C270     1.0000 0.02170  0.67160  0.83470  Biso   1.000  C
  H190     1.0000 0.00600  0.65990  0.85520  Biso   1.000  H
  C271     1.0000 0.01220  0.74100  0.80560  Biso   1.000  C
  C272     1.0000 0.03610  0.75400  0.77660  Biso   1.000  C
  H191     1.0000 0.03080  0.79920  0.75510  Biso   1.000  H
  C273     1.0000 0.06790  0.69700  0.78020  Biso   1.000  C
  H192     1.0000 0.08480  0.70920  0.76080  Biso   1.000  H
  I37      1.0000 0.47378  0.79820  0.62624  Biso   1.000  I
  Zn19     1.0000 0.41403  0.76969  0.66018  Biso   1.000  Zn
  I38      1.0000 0.37891  0.88568  0.69543  Biso   1.000  I
  N82      1.0000 0.37360  0.70440  0.61350  Biso   1.000  N
  C274     1.0000 0.37820  0.61420  0.60640  Biso   1.000  C
  H193     1.0000 0.39800  0.58380  0.62650  Biso   1.000  H
  C275     1.0000 0.35740  0.56420  0.57380  Biso   1.000  C
  H194     1.0000 0.36110  0.50100  0.57280  Biso   1.000  H
  C276     1.0000 0.33000  0.60900  0.54120  Biso   1.000  C
  C277     1.0000 0.32600  0.70280  0.54630  Biso   1.000  C
  H195     1.0000 0.30890  0.73580  0.52440  Biso   1.000  H
  C278     1.0000 0.34690  0.74890  0.58310  Biso   1.000  C
  H196     1.0000 0.34230  0.81110  0.58670  Biso   1.000  H
  C279     1.0000 0.30740  0.55900  0.50460  Biso   1.000  C
  N83      1.0000 0.31660  0.46980  0.50320  Biso   1.000  N
  C280     1.0000 0.29420  0.42390  0.47190  Biso   1.000  C
  N84      1.0000 0.26450  0.46050  0.43910  Biso   1.000  N
  C281     1.0000 0.25970  0.54660  0.44160  Biso   1.000  C
  N85      1.0000 0.27870  0.59840  0.47900  Biso   1.000  N
  N86      1.0000 0.31820  0.14400  0.48250  Biso   1.000  N
  C282     1.0000 0.29080  0.17800  0.45100  Biso   1.000  C
  H197     1.0000 0.27590  0.13820  0.43060  Biso   1.000  H
  C283     1.0000 0.28240  0.26900  0.44600  Biso   1.000  C
  H198     1.0000 0.26220  0.28710  0.42250  Biso   1.000  H
  C284     1.0000 0.30180  0.33400  0.47330  Biso   1.000  C
  C285     1.0000 0.32990  0.29700  0.50550  Biso   1.000  C
  H199     1.0000 0.34490  0.33580  0.52650  Biso   1.000  H
  C286     1.0000 0.33730  0.20600  0.50910  Biso   1.000  C
  H200     1.0000 0.35750  0.18650  0.53230  Biso   1.000  H
  I39      1.0000 0.37796  0.98806  0.55469  Biso   1.000  I
  Zn20     1.0000 0.33054  0.00697  0.48138  Biso   1.000  Zn
  I40      1.0000 0.27036  0.91019  0.45887  Biso   1.000  I
  N87      1.0000 0.16930  0.68070  0.35450  Biso   1.000  N
  C287     1.0000 0.19050  0.72630  0.38840  Biso   1.000  C
  H201     1.0000 0.18430  0.78730  0.39290  Biso   1.000  H
  C288     1.0000 0.22120  0.68510  0.41650  Biso   1.000  C
  H202     1.0000 0.23850  0.72040  0.43730  Biso   1.000  H
  C289     1.0000 0.22690  0.59330  0.41500  Biso   1.000  C
  C290     1.0000 0.20540  0.54570  0.37960  Biso   1.000  C
  H203     1.0000 0.21010  0.48390  0.37500  Biso   1.000  H
  C291     1.0000 0.17540  0.59720  0.35030  Biso   1.000  C
  H204     1.0000 0.15940  0.56640  0.32670  Biso   1.000  H
  I41      1.0000 0.10997  0.88438  0.34421  Biso   1.000  I
  Zn21     1.0000 0.12662  0.74171  0.30896  Biso   1.000  Zn
  I42      1.0000 0.14783  0.73458  0.23756  Biso   1.000  I
  N88      1.0000 0.07820  0.65430  0.30500  Biso   1.000  N
  C292     1.0000 0.06310  0.61130  0.27170  Biso   1.000  C
  H205     1.0000 0.07330  0.61780  0.24630  Biso   1.000  H
  C293     1.0000 0.03050  0.55200  0.27170  Biso   1.000  C
  H206     1.0000 0.02000  0.51780  0.24650  Biso   1.000  H
  C294     1.0000 0.01460  0.54440  0.30640  Biso   1.000  C
  C295     1.0000 0.03360  0.58550  0.34500  Biso   1.000  C
  H207     1.0000 0.02640  0.57510  0.37200  Biso   1.000  H
  C296     1.0000 0.06430  0.64400  0.33990  Biso   1.000  C
  H208     1.0000 0.07610  0.67910  0.36430  Biso   1.000  H
  C297     1.0000 0.97880  0.48930  0.30720  Biso   1.000  C
  N89      1.0000 0.97450  0.42180  0.27850  Biso   1.000  N
  C298     1.0000 0.94530  0.36690  0.28410  Biso   1.000  C
  N90      1.0000 0.92210  0.37410  0.31300  Biso   1.000  N
  N91      1.0000 0.96020  0.50410  0.33930  Biso   1.000  N
  N92      1.0000 0.92630  0.13030  0.20410  Biso   1.000  N
  C299     1.0000 0.93750  0.28220  0.25520  Biso   1.000  C
  C300     1.0000 0.90320  0.15000  0.23140  Biso   1.000  C
  H209     1.0000 0.88220  0.11020  0.23280  Biso   1.000  H
  C301     1.0000 0.90740  0.22460  0.25780  Biso   1.000  C
  H210     1.0000 0.89020  0.23550  0.27700  Biso   1.000  H
  C302     1.0000 0.96220  0.26300  0.22780  Biso   1.000  C
  H211     1.0000 0.98330  0.30220  0.22590  Biso   1.000  H
  C303     1.0000 0.95590  0.18600  0.20300  Biso   1.000  C
  H212     1.0000 0.97330  0.17280  0.18440  Biso   1.000  H
  I43      1.0000 0.97084  0.99326  0.12816  Biso   1.000  I
  Zn22     1.0000 0.91198  0.02573  0.16108  Biso   1.000  Zn
  I44      1.0000 0.87349  0.91418  0.19662  Biso   1.000  I
  N93      1.0000 0.87880  0.09080  0.10800  Biso   1.000  N
  C304     1.0000 0.84720  0.05100  0.08420  Biso   1.000  C
  H213     1.0000 0.84080  0.99090  0.09060  Biso   1.000  H
  C305     1.0000 0.82410  0.09600  0.05060  Biso   1.000  C
  H214     1.0000 0.80170  0.06720  0.03380  Biso   1.000  H
  C306     1.0000 0.83280  0.18300  0.04080  Biso   1.000  C
  C307     1.0000 0.86550  0.22280  0.06560  Biso   1.000  C
  H215     1.0000 0.87270  0.28250  0.05970  Biso   1.000  H
  C308     1.0000 0.88750  0.17470  0.09890  Biso   1.000  C
  H216     1.0000 0.91000  0.20240  0.11620  Biso   1.000  H
  C309     1.0000 0.80730  0.23780  0.00540  Biso   1.000  C
  N94      1.0000 0.77890  0.19430  0.97800  Biso   1.000  N
  C310     1.0000 0.75990  0.24720  0.94920  Biso   1.000  C
  N95      1.0000 0.76750  0.33580  0.94220  Biso   1.000  N
  C311     1.0000 0.79570  0.36930  0.96910  Biso   1.000  C
  N96      1.0000 0.81870  0.32170  0.00160  Biso   1.000  N
  N97      1.0000 0.66830  0.11750  0.85560  Biso   1.000  N
  C312     1.0000 0.67950  0.20520  0.85070  Biso   1.000  C
  H217     1.0000 0.66570  0.23820  0.82650  Biso   1.000  H
  C313     1.0000 0.70730  0.24470  0.87670  Biso   1.000  C
  H218     1.0000 0.71340  0.30500  0.87070  Biso   1.000  H
  C314     1.0000 0.72870  0.20440  0.91300  Biso   1.000  C
  C315     1.0000 0.71670  0.11440  0.92020  Biso   1.000  C
  H219     1.0000 0.72830  0.08270  0.94580  Biso   1.000  H
  C316     1.0000 0.68860  0.07580  0.88980  Biso   1.000  C
  H220     1.0000 0.68310  0.01400  0.89320  Biso   1.000  H
  N98      1.0000 0.81660  0.65220  0.97520  Biso   1.000  N
  C317     1.0000 0.84140  0.59440  0.99890  Biso   1.000  C
  H221     1.0000 0.86430  0.61750  0.01740  Biso   1.000  H
  C318     1.0000 0.83540  0.50300  0.99780  Biso   1.000  C
  H222     1.0000 0.85380  0.46410  0.01540  Biso   1.000  H
  C319     1.0000 0.80230  0.46860  0.97060  Biso   1.000  C
  C320     1.0000 0.77750  0.52840  0.94610  Biso   1.000  C
  H223     1.0000 0.75530  0.50690  0.92590  Biso   1.000  H
  C321     1.0000 0.78430  0.61930  0.95040  Biso   1.000  C
  H224     1.0000 0.76520  0.65970  0.93500  Biso   1.000  H
  I45      1.0000 0.87442  0.80767  0.05579  Biso   1.000  I
  Zn23     1.0000 0.82962  0.78878  0.98157  Biso   1.000  Zn
  I46      1.0000 0.76751  0.88170  0.95690  Biso   1.000  I
  I47      1.0000 0.64649  0.06453  0.73767  Biso   1.000  I
  Zn24     1.0000 0.62562  0.05461  0.80972  Biso   1.000  Zn
  I48      1.0000 0.60917  0.91061  0.84403  Biso   1.000  I
  N99      1.0000 0.58080  0.14600  0.80730  Biso   1.000  N
  C322     1.0000 0.56910  0.15310  0.84460  Biso   1.000  C
  H225     1.0000 0.58240  0.12490  0.87050  Biso   1.000  H
  C323     1.0000 0.53620  0.20490  0.84250  Biso   1.000  C
  H226     1.0000 0.52730  0.21090  0.86880  Biso   1.000  H
  C324     1.0000 0.51410  0.24900  0.80750  Biso   1.000  C
  C325     1.0000 0.52830  0.23800  0.77060  Biso   1.000  C
  H227     1.0000 0.51530  0.26540  0.74430  Biso   1.000  H
  C326     1.0000 0.56130  0.18690  0.77170  Biso   1.000  C
  H228     1.0000 0.57080  0.18040  0.74580  Biso   1.000  H
  C327     1.0000 0.48010  0.30770  0.80770  Biso   1.000  C
  N100     1.0000 0.46000  0.29160  0.83740  Biso   1.000  N
  C328     1.0000 0.43050  0.34890  0.84070  Biso   1.000  C
  N101     1.0000 0.42280  0.42070  0.81350  Biso   1.000  N
  C329     1.0000 0.44430  0.43410  0.78490  Biso   1.000  C
  N102     1.0000 0.47190  0.37610  0.77930  Biso   1.000  N
  N103     1.0000 0.36070  0.30900  0.93330  Biso   1.000  N
  C330     1.0000 0.35010  0.36200  0.89920  Biso   1.000  C
  H229     1.0000 0.32550  0.39160  0.89620  Biso   1.000  H
  C331     1.0000 0.37100  0.37860  0.86770  Biso   1.000  C
  H230     1.0000 0.36150  0.41780  0.84410  Biso   1.000  H
  C332     1.0000 0.40650  0.33510  0.87240  Biso   1.000  C
  C333     1.0000 0.41830  0.28010  0.90770  Biso   1.000  C
  H231     1.0000 0.44290  0.25020  0.91160  Biso   1.000  H
  C334     1.0000 0.39520  0.26790  0.93740  Biso   1.000  C
  H232     1.0000 0.40400  0.22930  0.96140  Biso   1.000  H
  N104     1.0000 0.42640  0.66480  0.70360  Biso   1.000  N
  C335     1.0000 0.45900  0.61340  0.70720  Biso   1.000  C
  H233     1.0000 0.47790  0.62970  0.69090  Biso   1.000  H
  C336     1.0000 0.46600  0.53910  0.73330  Biso   1.000  C
  H234     1.0000 0.48950  0.50560  0.73470  Biso   1.000  H
  C337     1.0000 0.43880  0.51180  0.75790  Biso   1.000  C
  C338     1.0000 0.40600  0.56550  0.75540  Biso   1.000  C
  H235     1.0000 0.38690  0.55050  0.77170  Biso   1.000  H
  C339     1.0000 0.40110  0.64040  0.72950  Biso   1.000  C
  H236     1.0000 0.37890  0.67750  0.72950  Biso   1.000  H
  N105     1.0000 0.86120  0.49590  0.43250  Biso   1.000  N
  C340     1.0000 0.89620  0.53340  0.43490  Biso   1.000  C
  H237     1.0000 0.90590  0.57230  0.45860  Biso   1.000  H
  C341     1.0000 0.91920  0.51920  0.40530  Biso   1.000  C
  H238     1.0000 0.94400  0.54830  0.40920  Biso   1.000  H
  C342     1.0000 0.84830  0.44270  0.39840  Biso   1.000  C
  H239     1.0000 0.82310  0.41580  0.39450  Biso   1.000  H
  C343     1.0000 0.87150  0.42660  0.36910  Biso   1.000  C
  H240     1.0000 0.86170  0.38600  0.34610  Biso   1.000  H
  C344     1.0000 0.93050  0.44710  0.33780  Biso   1.000  C
  C345     1.0000 0.90740  0.46450  0.37020  Biso   1.000  C
  N106     1.0000 0.31130  0.14100  0.47070  Biso   1.000  N
  C346     1.0000 0.28010  0.17900  0.44510  Biso   1.000  C
  H241     1.0000 0.26130  0.14000  0.42800  Biso   1.000  H
  C347     1.0000 0.27320  0.27000  0.44190  Biso   1.000  C
  H242     1.0000 0.25100  0.29560  0.42320  Biso   1.000  H
  C348     1.0000 0.30170  0.32000  0.46830  Biso   1.000  C
  C349     1.0000 0.33520  0.28800  0.49480  Biso   1.000  C
  H243     1.0000 0.35470  0.32510  0.51170  Biso   1.000  H
  C350     1.0000 0.33780  0.19500  0.49460  Biso   1.000  C
  H244     1.0000 0.36000  0.16830  0.51280  Biso   1.000  H
  C351     1.0000 0.89750  0.16300  0.22120  Biso   1.000  C
  H245     1.0000 0.87290  0.13300  0.21560  Biso   1.000  H
  C352     1.0000 0.90170  0.23900  0.24680  Biso   1.000  C
  H246     1.0000 0.88040  0.26090  0.25830  Biso   1.000  H
  C353     1.0000 0.96790  0.25100  0.23790  Biso   1.000  C
  H247     1.0000 0.99290  0.27970  0.24310  Biso   1.000  H
  C354     1.0000 0.96000  0.17600  0.21250  Biso   1.000  C
  H248     1.0000 0.98050  0.15390  0.19960  Biso   1.000  H
  N107     1.0000 0.86870  0.09630  0.11480  Biso   1.000  N
  C355     1.0000 0.84800  0.05400  0.08010  Biso   1.000  C
  H249     1.0000 0.84810  0.99030  0.08090  Biso   1.000  H
  C356     1.0000 0.82660  0.09400  0.04360  Biso   1.000  C
  H250     1.0000 0.81230  0.06050  0.01970  Biso   1.000  H
  C357     1.0000 0.82790  0.18600  0.04480  Biso   1.000  C
  C358     1.0000 0.84880  0.23170  0.07990  Biso   1.000  C
  H251     1.0000 0.84890  0.29560  0.08000  Biso   1.000  H
  C359     1.0000 0.86960  0.18570  0.11500  Biso   1.000  C
  H252     1.0000 0.88440  0.21730  0.13910  Biso   1.000  H
  N108     1.0000 0.57840  0.12800  0.80720  Biso   1.000  N
  C360     1.0000 0.55400  0.11940  0.83400  Biso   1.000  C
  H253     1.0000 0.55940  0.07220  0.85470  Biso   1.000  H
  C361     1.0000 0.52170  0.17160  0.83470  Biso   1.000  C
  H254     1.0000 0.50600  0.15990  0.85520  Biso   1.000  H
  C362     1.0000 0.51220  0.24100  0.80560  Biso   1.000  C
  C363     1.0000 0.53610  0.25400  0.77660  Biso   1.000  C
  H255     1.0000 0.53080  0.29920  0.75510  Biso   1.000  H
  C364     1.0000 0.56790  0.19700  0.78020  Biso   1.000  C
  H256     1.0000 0.58480  0.20920  0.76080  Biso   1.000  H
