data_image0
_cell_length_a       37.318
_cell_length_b       37.293
_cell_length_c       26.388
_cell_angle_alpha    90
_cell_angle_beta     134.988
_cell_angle_gamma    90

_symmetry_space_group_name_H-M    "P 1"
_symmetry_int_tables_number       1

loop_
  _symmetry_equiv_pos_as_xyz
  'x, y, z'

loop_
  _atom_site_label
  _atom_site_occupancy
  _atom_site_fract_x
  _atom_site_fract_y
  _atom_site_fract_z
  _atom_site_thermal_displace_type
  _atom_site_B_iso_or_equiv
  _atom_site_type_symbol
  N1       1.0000 0.21001  0.21014  0.00008  Biso   1.000  N
  C1       1.0000 0.18871  0.18888  0.99990  Biso   1.000  C
  N2       1.0000 0.21007  0.21001  0.42034  Biso   1.000  N
  C2       1.0000 0.18891  0.18878  0.37800  Biso   1.000  C
  S1       1.0000 0.81936  0.51688  0.31970  Biso   1.000  S
  N3       1.0000 0.44394  0.45951  0.44394  Biso   1.000  N
  C3       1.0000 0.41250  0.45300  0.37310  Biso   1.000  C
  H1       1.0000 0.41410  0.46820  0.34590  Biso   1.000  H
  C4       1.0000 0.37800  0.42510  0.33870  Biso   1.000  C
  H2       1.0000 0.35630  0.42170  0.28870  Biso   1.000  H
  C5       1.0000 0.37524  0.40308  0.37518  Biso   1.000  C
  C6       1.0000 0.40760  0.40810  0.44810  Biso   1.000  C
  H3       1.0000 0.40550  0.39280  0.47480  Biso   1.000  H
  C7       1.0000 0.44330  0.43560  0.48220  Biso   1.000  C
  H4       1.0000 0.46750  0.43770  0.53290  Biso   1.000  H
  C8       1.0000 0.33965  0.37250  0.33962  Biso   1.000  C
  N4       1.0000 0.32659  0.35904  0.28227  Biso   1.000  N
  C9       1.0000 0.29701  0.33050  0.25460  Biso   1.000  C
  N5       1.0000 0.28237  0.31437  0.28251  Biso   1.000  N
  C10      1.0000 0.29737  0.33024  0.33970  Biso   1.000  C
  N6       1.0000 0.32679  0.35875  0.37148  Biso   1.000  N
  N7       1.0000 0.26300  0.27789  0.08191  Biso   1.000  N
  C11      1.0000 0.26830  0.25830  0.13050  Biso   1.000  C
  H5       1.0000 0.26670  0.23290  0.12770  Biso   1.000  H
  C12      1.0000 0.27610  0.27590  0.18480  Biso   1.000  C
  H6       1.0000 0.27560  0.26270  0.21510  Biso   1.000  H
  C13      1.0000 0.28452  0.31274  0.19394  Biso   1.000  C
  C14      1.0000 0.28380  0.33010  0.14990  Biso   1.000  C
  H7       1.0000 0.29120  0.35500  0.15690  Biso   1.000  H
  C15      1.0000 0.27290  0.31330  0.09400  Biso   1.000  C
  H8       1.0000 0.27230  0.32700  0.06300  Biso   1.000  H
  N8       1.0000 0.26276  0.27805  0.44402  Biso   1.000  N
  C16      1.0000 0.27330  0.31350  0.45320  Biso   1.000  C
  H9       1.0000 0.27390  0.32700  0.48440  Biso   1.000  H
  C17      1.0000 0.28340  0.33070  0.41680  Biso   1.000  C
  H10      1.0000 0.28920  0.35580  0.42220  Biso   1.000  H
  C18      1.0000 0.28480  0.31252  0.37549  Biso   1.000  C
  C19      1.0000 0.27520  0.27520  0.36670  Biso   1.000  C
  H11      1.0000 0.27430  0.26190  0.33510  Biso   1.000  H
  C20      1.0000 0.26730  0.25830  0.40440  Biso   1.000  C
  H12      1.0000 0.26490  0.23290  0.40330  Biso   1.000  H
  N9       1.0000 0.18124  0.27818  0.44384  Biso   1.000  N
  C21      1.0000 0.14110  0.27450  0.37410  Biso   1.000  C
  H13      1.0000 0.14380  0.26000  0.34730  Biso   1.000  H
  C22      1.0000 0.09400  0.29150  0.33780  Biso   1.000  C
  H14      1.0000 0.06560  0.28790  0.28790  Biso   1.000  H
  C23      1.0000 0.09043  0.31257  0.37488  Biso   1.000  C
  C24      1.0000 0.13220  0.31690  0.44800  Biso   1.000  C
  H15      1.0000 0.13030  0.33250  0.47450  Biso   1.000  H
  C25      1.0000 0.17750  0.29820  0.48290  Biso   1.000  C
  H16      1.0000 0.20530  0.29970  0.53350  Biso   1.000  H
  C26      1.0000 0.04230  0.33048  0.33936  Biso   1.000  C
  N10      1.0000 0.99990  0.31445  0.28214  Biso   1.000  N
  C27      1.0000 0.95787  0.33052  0.25518  Biso   1.000  C
  N11      1.0000 0.95561  0.35902  0.28230  Biso   1.000  N
  C28      1.0000 0.99993  0.37278  0.33925  Biso   1.000  C
  N12      1.0000 0.04416  0.35892  0.37069  Biso   1.000  N
  C29      1.0000 0.82430  0.29750  0.13040  Biso   1.000  C
  H17      1.0000 0.79740  0.29780  0.12760  Biso   1.000  H
  C30      1.0000 0.86930  0.31750  0.18560  Biso   1.000  C
  H18      1.0000 0.87130  0.33360  0.21540  Biso   1.000  H
  C31      1.0000 0.90943  0.31261  0.19375  Biso   1.000  C
  C32      1.0000 0.90460  0.29090  0.14830  Biso   1.000  C
  H19      1.0000 0.93260  0.28750  0.15410  Biso   1.000  H
  C33      1.0000 0.86000  0.27390  0.09410  Biso   1.000  C
  H20      1.0000 0.85810  0.25850  0.06360  Biso   1.000  H
  N13      1.0000 0.81890  0.27795  0.08182  Biso   1.000  N
  C34      1.0000 0.03920  0.45390  0.45150  Biso   1.000  C
  H21      1.0000 0.06790  0.46920  0.48220  Biso   1.000  H
  C35      1.0000 0.03870  0.42550  0.41500  Biso   1.000  C
  H22      1.0000 0.06610  0.42280  0.41940  Biso   1.000  H
  C36      1.0000 0.99989  0.40304  0.37480  Biso   1.000  C
  C37      1.0000 0.95930  0.40810  0.36760  Biso   1.000  C
  H23      1.0000 0.93050  0.39290  0.33740  Biso   1.000  H
  C38      1.0000 0.96150  0.43540  0.40470  Biso   1.000  C
  H24      1.0000 0.93540  0.43750  0.40310  Biso   1.000  H
  N14      1.0000 0.99988  0.45935  0.44328  Biso   1.000  N
  S2       1.0000 0.14290  0.15988  0.31900  Biso   1.000  S
  S3       1.0000 0.14310  0.15956  0.96690  Biso   1.000  S
  C39      1.0000 0.44250  0.43520  0.40410  Biso   1.000  C
  H25      1.0000 0.46700  0.43710  0.40240  Biso   1.000  H
  C40      1.0000 0.40800  0.40850  0.36670  Biso   1.000  C
  H26      1.0000 0.40590  0.39380  0.33530  Biso   1.000  H
  C41      1.0000 0.37810  0.42490  0.41720  Biso   1.000  C
  H27      1.0000 0.35620  0.42140  0.42360  Biso   1.000  H
  C42      1.0000 0.41260  0.45260  0.45190  Biso   1.000  C
  H28      1.0000 0.41450  0.46760  0.48290  Biso   1.000  H
  C43      1.0000 0.23470  0.27380  0.09460  Biso   1.000  C
  H29      1.0000 0.20630  0.25830  0.06440  Biso   1.000  H
  C44      1.0000 0.24450  0.29110  0.14960  Biso   1.000  C
  H30      1.0000 0.22270  0.28750  0.15600  Biso   1.000  H
  C45      1.0000 0.31620  0.31730  0.18420  Biso   1.000  C
  H31      1.0000 0.34450  0.33300  0.21400  Biso   1.000  H
  C46      1.0000 0.30540  0.29810  0.12960  Biso   1.000  C
  H32      1.0000 0.32870  0.29910  0.12560  Biso   1.000  H
  C47      1.0000 0.30560  0.29820  0.48230  Biso   1.000  C
  H33      1.0000 0.32860  0.29970  0.53290  Biso   1.000  H
  C48      1.0000 0.31630  0.31660  0.44800  Biso   1.000  C
  H34      1.0000 0.34500  0.33190  0.47460  Biso   1.000  H
  C49      1.0000 0.24430  0.29120  0.33850  Biso   1.000  C
  H35      1.0000 0.22230  0.28820  0.28840  Biso   1.000  H
  C50      1.0000 0.23470  0.27330  0.37490  Biso   1.000  C
  H36      1.0000 0.20700  0.25710  0.34880  Biso   1.000  H
  C51      1.0000 0.13740  0.25930  0.40360  Biso   1.000  C
  H37      1.0000 0.13830  0.23400  0.40080  Biso   1.000  H
  C52      1.0000 0.09130  0.27600  0.36640  Biso   1.000  C
  H38      1.0000 0.06070  0.26250  0.33570  Biso   1.000  H
  C53      1.0000 0.13330  0.33110  0.41590  Biso   1.000  C
  H39      1.0000 0.13280  0.35630  0.42070  Biso   1.000  H
  C54      1.0000 0.17990  0.31350  0.45270  Biso   1.000  C
  H40      1.0000 0.21060  0.32680  0.48410  Biso   1.000  H
  C55      1.0000 0.82100  0.31270  0.09360  Biso   1.000  C
  H41      1.0000 0.79040  0.32610  0.06190  Biso   1.000  H
  C56      1.0000 0.86490  0.33030  0.14900  Biso   1.000  C
  H42      1.0000 0.86400  0.35510  0.15600  Biso   1.000  H
  C57      1.0000 0.90910  0.27680  0.18380  Biso   1.000  C
  H43      1.0000 0.94000  0.26380  0.21330  Biso   1.000  H
  C58      1.0000 0.86310  0.25920  0.13010  Biso   1.000  C
  H44      1.0000 0.86250  0.23380  0.12710  Biso   1.000  H
  C59      1.0000 0.03900  0.43560  0.48180  Biso   1.000  C
  H45      1.0000 0.06540  0.43740  0.53250  Biso   1.000  H
  C60      1.0000 0.04040  0.40910  0.44750  Biso   1.000  C
  H46      1.0000 0.06980  0.39460  0.47410  Biso   1.000  H
  C61      1.0000 0.96030  0.42490  0.33850  Biso   1.000  C
  H47      1.0000 0.93170  0.42140  0.28860  Biso   1.000  H
  C62      1.0000 0.96090  0.45290  0.37390  Biso   1.000  C
  H48      1.0000 0.93210  0.46810  0.34720  Biso   1.000  H
  S4       1.0000 0.17530  0.15967  0.31900  Biso   1.000  S
  S5       1.0000 0.17560  0.15991  0.03270  Biso   1.000  S
  N15      1.0000 0.71001  0.71014  0.00008  Biso   1.000  N
  C63      1.0000 0.68871  0.68888  0.99990  Biso   1.000  C
  N16      1.0000 0.71007  0.71001  0.42034  Biso   1.000  N
  C64      1.0000 0.68891  0.68878  0.37800  Biso   1.000  C
  S6       1.0000 0.31936  0.01688  0.31970  Biso   1.000  S
  N17      1.0000 0.94394  0.95951  0.44394  Biso   1.000  N
  C65      1.0000 0.91250  0.95300  0.37310  Biso   1.000  C
  H49      1.0000 0.91410  0.96820  0.34590  Biso   1.000  H
  C66      1.0000 0.87800  0.92510  0.33870  Biso   1.000  C
  H50      1.0000 0.85630  0.92170  0.28870  Biso   1.000  H
  C67      1.0000 0.87524  0.90308  0.37518  Biso   1.000  C
  C68      1.0000 0.90760  0.90810  0.44810  Biso   1.000  C
  H51      1.0000 0.90550  0.89280  0.47480  Biso   1.000  H
  C69      1.0000 0.94330  0.93560  0.48220  Biso   1.000  C
  H52      1.0000 0.96750  0.93770  0.53290  Biso   1.000  H
  C70      1.0000 0.83965  0.87250  0.33962  Biso   1.000  C
  N18      1.0000 0.82659  0.85904  0.28227  Biso   1.000  N
  C71      1.0000 0.79701  0.83050  0.25460  Biso   1.000  C
  N19      1.0000 0.78237  0.81437  0.28251  Biso   1.000  N
  C72      1.0000 0.79737  0.83024  0.33970  Biso   1.000  C
  N20      1.0000 0.82679  0.85875  0.37148  Biso   1.000  N
  N21      1.0000 0.76300  0.77789  0.08191  Biso   1.000  N
  C73      1.0000 0.76830  0.75830  0.13050  Biso   1.000  C
  H53      1.0000 0.76670  0.73290  0.12770  Biso   1.000  H
  C74      1.0000 0.77610  0.77590  0.18480  Biso   1.000  C
  H54      1.0000 0.77560  0.76270  0.21510  Biso   1.000  H
  C75      1.0000 0.78452  0.81274  0.19394  Biso   1.000  C
  C76      1.0000 0.78380  0.83010  0.14990  Biso   1.000  C
  H55      1.0000 0.79120  0.85500  0.15690  Biso   1.000  H
  C77      1.0000 0.77290  0.81330  0.09400  Biso   1.000  C
  H56      1.0000 0.77230  0.82700  0.06300  Biso   1.000  H
  N22      1.0000 0.76276  0.77805  0.44402  Biso   1.000  N
  C78      1.0000 0.77330  0.81350  0.45320  Biso   1.000  C
  H57      1.0000 0.77390  0.82700  0.48440  Biso   1.000  H
  C79      1.0000 0.78340  0.83070  0.41680  Biso   1.000  C
  H58      1.0000 0.78920  0.85580  0.42220  Biso   1.000  H
  C80      1.0000 0.78480  0.81252  0.37549  Biso   1.000  C
  C81      1.0000 0.77520  0.77520  0.36670  Biso   1.000  C
  H59      1.0000 0.77430  0.76190  0.33510  Biso   1.000  H
  C82      1.0000 0.76730  0.75830  0.40440  Biso   1.000  C
  H60      1.0000 0.76490  0.73290  0.40330  Biso   1.000  H
  N23      1.0000 0.68124  0.77818  0.44384  Biso   1.000  N
  C83      1.0000 0.64110  0.77450  0.37410  Biso   1.000  C
  H61      1.0000 0.64380  0.76000  0.34730  Biso   1.000  H
  C84      1.0000 0.59400  0.79150  0.33780  Biso   1.000  C
  H62      1.0000 0.56560  0.78790  0.28790  Biso   1.000  H
  C85      1.0000 0.59043  0.81257  0.37488  Biso   1.000  C
  C86      1.0000 0.63220  0.81690  0.44800  Biso   1.000  C
  H63      1.0000 0.63030  0.83250  0.47450  Biso   1.000  H
  C87      1.0000 0.67750  0.79820  0.48290  Biso   1.000  C
  H64      1.0000 0.70530  0.79970  0.53350  Biso   1.000  H
  C88      1.0000 0.54230  0.83048  0.33936  Biso   1.000  C
  N24      1.0000 0.49990  0.81445  0.28214  Biso   1.000  N
  C89      1.0000 0.45787  0.83052  0.25518  Biso   1.000  C
  N25      1.0000 0.45561  0.85902  0.28230  Biso   1.000  N
  C90      1.0000 0.49993  0.87278  0.33925  Biso   1.000  C
  N26      1.0000 0.54416  0.85892  0.37069  Biso   1.000  N
  C91      1.0000 0.32430  0.79750  0.13040  Biso   1.000  C
  H65      1.0000 0.29740  0.79780  0.12760  Biso   1.000  H
  C92      1.0000 0.36930  0.81750  0.18560  Biso   1.000  C
  H66      1.0000 0.37130  0.83360  0.21540  Biso   1.000  H
  C93      1.0000 0.40943  0.81261  0.19375  Biso   1.000  C
  C94      1.0000 0.40460  0.79090  0.14830  Biso   1.000  C
  H67      1.0000 0.43260  0.78750  0.15410  Biso   1.000  H
  C95      1.0000 0.36000  0.77390  0.09410  Biso   1.000  C
  H68      1.0000 0.35810  0.75850  0.06360  Biso   1.000  H
  N27      1.0000 0.31890  0.77795  0.08182  Biso   1.000  N
  C96      1.0000 0.53920  0.95390  0.45150  Biso   1.000  C
  H69      1.0000 0.56790  0.96920  0.48220  Biso   1.000  H
  C97      1.0000 0.53870  0.92550  0.41500  Biso   1.000  C
  H70      1.0000 0.56610  0.92280  0.41940  Biso   1.000  H
  C98      1.0000 0.49989  0.90304  0.37480  Biso   1.000  C
  C99      1.0000 0.45930  0.90810  0.36760  Biso   1.000  C
  H71      1.0000 0.43050  0.89290  0.33740  Biso   1.000  H
  C100     1.0000 0.46150  0.93540  0.40470  Biso   1.000  C
  H72      1.0000 0.43540  0.93750  0.40310  Biso   1.000  H
  N28      1.0000 0.49988  0.95935  0.44328  Biso   1.000  N
  S7       1.0000 0.64290  0.65988  0.31900  Biso   1.000  S
  S8       1.0000 0.64310  0.65956  0.96690  Biso   1.000  S
  C101     1.0000 0.94250  0.93520  0.40410  Biso   1.000  C
  H73      1.0000 0.96700  0.93710  0.40240  Biso   1.000  H
  C102     1.0000 0.90800  0.90850  0.36670  Biso   1.000  C
  H74      1.0000 0.90590  0.89380  0.33530  Biso   1.000  H
  C103     1.0000 0.87810  0.92490  0.41720  Biso   1.000  C
  H75      1.0000 0.85620  0.92140  0.42360  Biso   1.000  H
  C104     1.0000 0.91260  0.95260  0.45190  Biso   1.000  C
  H76      1.0000 0.91450  0.96760  0.48290  Biso   1.000  H
  C105     1.0000 0.73470  0.77380  0.09460  Biso   1.000  C
  H77      1.0000 0.70630  0.75830  0.06440  Biso   1.000  H
  C106     1.0000 0.74450  0.79110  0.14960  Biso   1.000  C
  H78      1.0000 0.72270  0.78750  0.15600  Biso   1.000  H
  C107     1.0000 0.81620  0.81730  0.18420  Biso   1.000  C
  H79      1.0000 0.84450  0.83300  0.21400  Biso   1.000  H
  C108     1.0000 0.80540  0.79810  0.12960  Biso   1.000  C
  H80      1.0000 0.82870  0.79910  0.12560  Biso   1.000  H
  C109     1.0000 0.80560  0.79820  0.48230  Biso   1.000  C
  H81      1.0000 0.82860  0.79970  0.53290  Biso   1.000  H
  C110     1.0000 0.81630  0.81660  0.44800  Biso   1.000  C
  H82      1.0000 0.84500  0.83190  0.47460  Biso   1.000  H
  C111     1.0000 0.74430  0.79120  0.33850  Biso   1.000  C
  H83      1.0000 0.72230  0.78820  0.28840  Biso   1.000  H
  C112     1.0000 0.73470  0.77330  0.37490  Biso   1.000  C
  H84      1.0000 0.70700  0.75710  0.34880  Biso   1.000  H
  C113     1.0000 0.63740  0.75930  0.40360  Biso   1.000  C
  H85      1.0000 0.63830  0.73400  0.40080  Biso   1.000  H
  C114     1.0000 0.59130  0.77600  0.36640  Biso   1.000  C
  H86      1.0000 0.56070  0.76250  0.33570  Biso   1.000  H
  C115     1.0000 0.63330  0.83110  0.41590  Biso   1.000  C
  H87      1.0000 0.63280  0.85630  0.42070  Biso   1.000  H
  C116     1.0000 0.67990  0.81350  0.45270  Biso   1.000  C
  H88      1.0000 0.71060  0.82680  0.48410  Biso   1.000  H
  C117     1.0000 0.32100  0.81270  0.09360  Biso   1.000  C
  H89      1.0000 0.29040  0.82610  0.06190  Biso   1.000  H
  C118     1.0000 0.36490  0.83030  0.14900  Biso   1.000  C
  H90      1.0000 0.36400  0.85510  0.15600  Biso   1.000  H
  C119     1.0000 0.40910  0.77680  0.18380  Biso   1.000  C
  H91      1.0000 0.44000  0.76380  0.21330  Biso   1.000  H
  C120     1.0000 0.36310  0.75920  0.13010  Biso   1.000  C
  H92      1.0000 0.36250  0.73380  0.12710  Biso   1.000  H
  C121     1.0000 0.53900  0.93560  0.48180  Biso   1.000  C
  H93      1.0000 0.56540  0.93740  0.53250  Biso   1.000  H
  C122     1.0000 0.54040  0.90910  0.44750  Biso   1.000  C
  H94      1.0000 0.56980  0.89460  0.47410  Biso   1.000  H
  C123     1.0000 0.46030  0.92490  0.33850  Biso   1.000  C
  H95      1.0000 0.43170  0.92140  0.28860  Biso   1.000  H
  C124     1.0000 0.46090  0.95290  0.37390  Biso   1.000  C
  H96      1.0000 0.43210  0.96810  0.34720  Biso   1.000  H
  S9       1.0000 0.67530  0.65967  0.31900  Biso   1.000  S
  S10      1.0000 0.67560  0.65991  0.03270  Biso   1.000  S
  N29      1.0000 0.78999  0.21014  0.99992  Biso   1.000  N
  C125     1.0000 0.81129  0.18888  0.00010  Biso   1.000  C
  N30      1.0000 0.78993  0.21001  0.57966  Biso   1.000  N
  C126     1.0000 0.81109  0.18878  0.62200  Biso   1.000  C
  S11      1.0000 0.18064  0.51688  0.68030  Biso   1.000  S
  N31      1.0000 0.55606  0.45951  0.55606  Biso   1.000  N
  C127     1.0000 0.58750  0.45300  0.62690  Biso   1.000  C
  H97      1.0000 0.58590  0.46820  0.65410  Biso   1.000  H
  C128     1.0000 0.62200  0.42510  0.66130  Biso   1.000  C
  H98      1.0000 0.64370  0.42170  0.71130  Biso   1.000  H
  C129     1.0000 0.62476  0.40308  0.62482  Biso   1.000  C
  C130     1.0000 0.59240  0.40810  0.55190  Biso   1.000  C
  H99      1.0000 0.59450  0.39280  0.52520  Biso   1.000  H
  C131     1.0000 0.55670  0.43560  0.51780  Biso   1.000  C
  H100     1.0000 0.53250  0.43770  0.46710  Biso   1.000  H
  C132     1.0000 0.66035  0.37250  0.66038  Biso   1.000  C
  N32      1.0000 0.67341  0.35904  0.71773  Biso   1.000  N
  C133     1.0000 0.70299  0.33050  0.74540  Biso   1.000  C
  N33      1.0000 0.71763  0.31437  0.71749  Biso   1.000  N
  C134     1.0000 0.70263  0.33024  0.66030  Biso   1.000  C
  N34      1.0000 0.67321  0.35875  0.62852  Biso   1.000  N
  N35      1.0000 0.73700  0.27789  0.91809  Biso   1.000  N
  C135     1.0000 0.73170  0.25830  0.86950  Biso   1.000  C
  H101     1.0000 0.73330  0.23290  0.87230  Biso   1.000  H
  C136     1.0000 0.72390  0.27590  0.81520  Biso   1.000  C
  H102     1.0000 0.72440  0.26270  0.78490  Biso   1.000  H
  C137     1.0000 0.71548  0.31274  0.80606  Biso   1.000  C
  C138     1.0000 0.71620  0.33010  0.85010  Biso   1.000  C
  H103     1.0000 0.70880  0.35500  0.84310  Biso   1.000  H
  C139     1.0000 0.72710  0.31330  0.90600  Biso   1.000  C
  H104     1.0000 0.72770  0.32700  0.93700  Biso   1.000  H
  N36      1.0000 0.73724  0.27805  0.55598  Biso   1.000  N
  C140     1.0000 0.72670  0.31350  0.54680  Biso   1.000  C
  H105     1.0000 0.72610  0.32700  0.51560  Biso   1.000  H
  C141     1.0000 0.71660  0.33070  0.58320  Biso   1.000  C
  H106     1.0000 0.71080  0.35580  0.57780  Biso   1.000  H
  C142     1.0000 0.71520  0.31252  0.62451  Biso   1.000  C
  C143     1.0000 0.72480  0.27520  0.63330  Biso   1.000  C
  H107     1.0000 0.72570  0.26190  0.66490  Biso   1.000  H
  C144     1.0000 0.73270  0.25830  0.59560  Biso   1.000  C
  H108     1.0000 0.73510  0.23290  0.59670  Biso   1.000  H
  N37      1.0000 0.81876  0.27818  0.55616  Biso   1.000  N
  C145     1.0000 0.85890  0.27450  0.62590  Biso   1.000  C
  H109     1.0000 0.85620  0.26000  0.65270  Biso   1.000  H
  C146     1.0000 0.90600  0.29150  0.66220  Biso   1.000  C
  H110     1.0000 0.93440  0.28790  0.71210  Biso   1.000  H
  C147     1.0000 0.90957  0.31257  0.62512  Biso   1.000  C
  C148     1.0000 0.86780  0.31690  0.55200  Biso   1.000  C
  H111     1.0000 0.86970  0.33250  0.52550  Biso   1.000  H
  C149     1.0000 0.82250  0.29820  0.51710  Biso   1.000  C
  H112     1.0000 0.79470  0.29970  0.46650  Biso   1.000  H
  C150     1.0000 0.95770  0.33048  0.66064  Biso   1.000  C
  N38      1.0000 0.00010  0.31445  0.71786  Biso   1.000  N
  C151     1.0000 0.04213  0.33052  0.74482  Biso   1.000  C
  N39      1.0000 0.04439  0.35902  0.71770  Biso   1.000  N
  C152     1.0000 0.00007  0.37278  0.66075  Biso   1.000  C
  N40      1.0000 0.95584  0.35892  0.62931  Biso   1.000  N
  C153     1.0000 0.17570  0.29750  0.86960  Biso   1.000  C
  H113     1.0000 0.20260  0.29780  0.87240  Biso   1.000  H
  C154     1.0000 0.13070  0.31750  0.81440  Biso   1.000  C
  H114     1.0000 0.12870  0.33360  0.78460  Biso   1.000  H
  C155     1.0000 0.09057  0.31261  0.80625  Biso   1.000  C
  C156     1.0000 0.09540  0.29090  0.85170  Biso   1.000  C
  H115     1.0000 0.06740  0.28750  0.84590  Biso   1.000  H
  C157     1.0000 0.14000  0.27390  0.90590  Biso   1.000  C
  H116     1.0000 0.14190  0.25850  0.93640  Biso   1.000  H
  N41      1.0000 0.18110  0.27795  0.91818  Biso   1.000  N
  C158     1.0000 0.96080  0.45390  0.54850  Biso   1.000  C
  H117     1.0000 0.93210  0.46920  0.51780  Biso   1.000  H
  C159     1.0000 0.96130  0.42550  0.58500  Biso   1.000  C
  H118     1.0000 0.93390  0.42280  0.58060  Biso   1.000  H
  C160     1.0000 0.00011  0.40304  0.62520  Biso   1.000  C
  C161     1.0000 0.04070  0.40810  0.63240  Biso   1.000  C
  H119     1.0000 0.06950  0.39290  0.66260  Biso   1.000  H
  C162     1.0000 0.03850  0.43540  0.59530  Biso   1.000  C
  H120     1.0000 0.06460  0.43750  0.59690  Biso   1.000  H
  N42      1.0000 0.00012  0.45935  0.55672  Biso   1.000  N
  S12      1.0000 0.85710  0.15988  0.68100  Biso   1.000  S
  S13      1.0000 0.85690  0.15956  0.03310  Biso   1.000  S
  C163     1.0000 0.55750  0.43520  0.59590  Biso   1.000  C
  H121     1.0000 0.53300  0.43710  0.59760  Biso   1.000  H
  C164     1.0000 0.59200  0.40850  0.63330  Biso   1.000  C
  H122     1.0000 0.59410  0.39380  0.66470  Biso   1.000  H
  C165     1.0000 0.62190  0.42490  0.58280  Biso   1.000  C
  H123     1.0000 0.64380  0.42140  0.57640  Biso   1.000  H
  C166     1.0000 0.58740  0.45260  0.54810  Biso   1.000  C
  H124     1.0000 0.58550  0.46760  0.51710  Biso   1.000  H
  C167     1.0000 0.76530  0.27380  0.90540  Biso   1.000  C
  H125     1.0000 0.79370  0.25830  0.93560  Biso   1.000  H
  C168     1.0000 0.75550  0.29110  0.85040  Biso   1.000  C
  H126     1.0000 0.77730  0.28750  0.84400  Biso   1.000  H
  C169     1.0000 0.68380  0.31730  0.81580  Biso   1.000  C
  H127     1.0000 0.65550  0.33300  0.78600  Biso   1.000  H
  C170     1.0000 0.69460  0.29810  0.87040  Biso   1.000  C
  H128     1.0000 0.67130  0.29910  0.87440  Biso   1.000  H
  C171     1.0000 0.69440  0.29820  0.51770  Biso   1.000  C
  H129     1.0000 0.67140  0.29970  0.46710  Biso   1.000  H
  C172     1.0000 0.68370  0.31660  0.55200  Biso   1.000  C
  H130     1.0000 0.65500  0.33190  0.52540  Biso   1.000  H
  C173     1.0000 0.75570  0.29120  0.66150  Biso   1.000  C
  H131     1.0000 0.77770  0.28820  0.71160  Biso   1.000  H
  C174     1.0000 0.76530  0.27330  0.62510  Biso   1.000  C
  H132     1.0000 0.79300  0.25710  0.65120  Biso   1.000  H
  C175     1.0000 0.86260  0.25930  0.59640  Biso   1.000  C
  H133     1.0000 0.86170  0.23400  0.59920  Biso   1.000  H
  C176     1.0000 0.90870  0.27600  0.63360  Biso   1.000  C
  H134     1.0000 0.93930  0.26250  0.66430  Biso   1.000  H
  C177     1.0000 0.86670  0.33110  0.58410  Biso   1.000  C
  H135     1.0000 0.86720  0.35630  0.57930  Biso   1.000  H
  C178     1.0000 0.82010  0.31350  0.54730  Biso   1.000  C
  H136     1.0000 0.78940  0.32680  0.51590  Biso   1.000  H
  C179     1.0000 0.17900  0.31270  0.90640  Biso   1.000  C
  H137     1.0000 0.20960  0.32610  0.93810  Biso   1.000  H
  C180     1.0000 0.13510  0.33030  0.85100  Biso   1.000  C
  H138     1.0000 0.13600  0.35510  0.84400  Biso   1.000  H
  C181     1.0000 0.09090  0.27680  0.81620  Biso   1.000  C
  H139     1.0000 0.06000  0.26380  0.78670  Biso   1.000  H
  C182     1.0000 0.13690  0.25920  0.86990  Biso   1.000  C
  H140     1.0000 0.13750  0.23380  0.87290  Biso   1.000  H
  C183     1.0000 0.96100  0.43560  0.51820  Biso   1.000  C
  H141     1.0000 0.93460  0.43740  0.46750  Biso   1.000  H
  C184     1.0000 0.95960  0.40910  0.55250  Biso   1.000  C
  H142     1.0000 0.93020  0.39460  0.52590  Biso   1.000  H
  C185     1.0000 0.03970  0.42490  0.66150  Biso   1.000  C
  H143     1.0000 0.06830  0.42140  0.71140  Biso   1.000  H
  C186     1.0000 0.03910  0.45290  0.62610  Biso   1.000  C
  H144     1.0000 0.06790  0.46810  0.65280  Biso   1.000  H
  S14      1.0000 0.82470  0.15967  0.68100  Biso   1.000  S
  S15      1.0000 0.82440  0.15991  0.96730  Biso   1.000  S
  N43      1.0000 0.28999  0.71014  0.99992  Biso   1.000  N
  C187     1.0000 0.31129  0.68888  0.00010  Biso   1.000  C
  N44      1.0000 0.28993  0.71001  0.57966  Biso   1.000  N
  C188     1.0000 0.31109  0.68878  0.62200  Biso   1.000  C
  S16      1.0000 0.68064  0.01688  0.68030  Biso   1.000  S
  N45      1.0000 0.05606  0.95951  0.55606  Biso   1.000  N
  C189     1.0000 0.08750  0.95300  0.62690  Biso   1.000  C
  H145     1.0000 0.08590  0.96820  0.65410  Biso   1.000  H
  C190     1.0000 0.12200  0.92510  0.66130  Biso   1.000  C
  H146     1.0000 0.14370  0.92170  0.71130  Biso   1.000  H
  C191     1.0000 0.12476  0.90308  0.62482  Biso   1.000  C
  C192     1.0000 0.09240  0.90810  0.55190  Biso   1.000  C
  H147     1.0000 0.09450  0.89280  0.52520  Biso   1.000  H
  C193     1.0000 0.05670  0.93560  0.51780  Biso   1.000  C
  H148     1.0000 0.03250  0.93770  0.46710  Biso   1.000  H
  C194     1.0000 0.16035  0.87250  0.66038  Biso   1.000  C
  N46      1.0000 0.17341  0.85904  0.71773  Biso   1.000  N
  C195     1.0000 0.20299  0.83050  0.74540  Biso   1.000  C
  N47      1.0000 0.21763  0.81437  0.71749  Biso   1.000  N
  C196     1.0000 0.20263  0.83024  0.66030  Biso   1.000  C
  N48      1.0000 0.17321  0.85875  0.62852  Biso   1.000  N
  N49      1.0000 0.23700  0.77789  0.91809  Biso   1.000  N
  C197     1.0000 0.23170  0.75830  0.86950  Biso   1.000  C
  H149     1.0000 0.23330  0.73290  0.87230  Biso   1.000  H
  C198     1.0000 0.22390  0.77590  0.81520  Biso   1.000  C
  H150     1.0000 0.22440  0.76270  0.78490  Biso   1.000  H
  C199     1.0000 0.21548  0.81274  0.80606  Biso   1.000  C
  C200     1.0000 0.21620  0.83010  0.85010  Biso   1.000  C
  H151     1.0000 0.20880  0.85500  0.84310  Biso   1.000  H
  C201     1.0000 0.22710  0.81330  0.90600  Biso   1.000  C
  H152     1.0000 0.22770  0.82700  0.93700  Biso   1.000  H
  N50      1.0000 0.23724  0.77805  0.55598  Biso   1.000  N
  C202     1.0000 0.22670  0.81350  0.54680  Biso   1.000  C
  H153     1.0000 0.22610  0.82700  0.51560  Biso   1.000  H
  C203     1.0000 0.21660  0.83070  0.58320  Biso   1.000  C
  H154     1.0000 0.21080  0.85580  0.57780  Biso   1.000  H
  C204     1.0000 0.21520  0.81252  0.62451  Biso   1.000  C
  C205     1.0000 0.22480  0.77520  0.63330  Biso   1.000  C
  H155     1.0000 0.22570  0.76190  0.66490  Biso   1.000  H
  C206     1.0000 0.23270  0.75830  0.59560  Biso   1.000  C
  H156     1.0000 0.23510  0.73290  0.59670  Biso   1.000  H
  N51      1.0000 0.31876  0.77818  0.55616  Biso   1.000  N
  C207     1.0000 0.35890  0.77450  0.62590  Biso   1.000  C
  H157     1.0000 0.35620  0.76000  0.65270  Biso   1.000  H
  C208     1.0000 0.40600  0.79150  0.66220  Biso   1.000  C
  H158     1.0000 0.43440  0.78790  0.71210  Biso   1.000  H
  C209     1.0000 0.40957  0.81257  0.62512  Biso   1.000  C
  C210     1.0000 0.36780  0.81690  0.55200  Biso   1.000  C
  H159     1.0000 0.36970  0.83250  0.52550  Biso   1.000  H
  C211     1.0000 0.32250  0.79820  0.51710  Biso   1.000  C
  H160     1.0000 0.29470  0.79970  0.46650  Biso   1.000  H
  C212     1.0000 0.45770  0.83048  0.66064  Biso   1.000  C
  N52      1.0000 0.50010  0.81445  0.71786  Biso   1.000  N
  C213     1.0000 0.54213  0.83052  0.74482  Biso   1.000  C
  N53      1.0000 0.54439  0.85902  0.71770  Biso   1.000  N
  C214     1.0000 0.50007  0.87278  0.66075  Biso   1.000  C
  N54      1.0000 0.45584  0.85892  0.62931  Biso   1.000  N
  C215     1.0000 0.67570  0.79750  0.86960  Biso   1.000  C
  H161     1.0000 0.70260  0.79780  0.87240  Biso   1.000  H
  C216     1.0000 0.63070  0.81750  0.81440  Biso   1.000  C
  H162     1.0000 0.62870  0.83360  0.78460  Biso   1.000  H
  C217     1.0000 0.59057  0.81261  0.80625  Biso   1.000  C
  C218     1.0000 0.59540  0.79090  0.85170  Biso   1.000  C
  H163     1.0000 0.56740  0.78750  0.84590  Biso   1.000  H
  C219     1.0000 0.64000  0.77390  0.90590  Biso   1.000  C
  H164     1.0000 0.64190  0.75850  0.93640  Biso   1.000  H
  N55      1.0000 0.68110  0.77795  0.91818  Biso   1.000  N
  C220     1.0000 0.46080  0.95390  0.54850  Biso   1.000  C
  H165     1.0000 0.43210  0.96920  0.51780  Biso   1.000  H
  C221     1.0000 0.46130  0.92550  0.58500  Biso   1.000  C
  H166     1.0000 0.43390  0.92280  0.58060  Biso   1.000  H
  C222     1.0000 0.50011  0.90304  0.62520  Biso   1.000  C
  C223     1.0000 0.54070  0.90810  0.63240  Biso   1.000  C
  H167     1.0000 0.56950  0.89290  0.66260  Biso   1.000  H
  C224     1.0000 0.53850  0.93540  0.59530  Biso   1.000  C
  H168     1.0000 0.56460  0.93750  0.59690  Biso   1.000  H
  N56      1.0000 0.50012  0.95935  0.55672  Biso   1.000  N
  S17      1.0000 0.35710  0.65988  0.68100  Biso   1.000  S
  S18      1.0000 0.35690  0.65956  0.03310  Biso   1.000  S
  C225     1.0000 0.05750  0.93520  0.59590  Biso   1.000  C
  H169     1.0000 0.03300  0.93710  0.59760  Biso   1.000  H
  C226     1.0000 0.09200  0.90850  0.63330  Biso   1.000  C
  H170     1.0000 0.09410  0.89380  0.66470  Biso   1.000  H
  C227     1.0000 0.12190  0.92490  0.58280  Biso   1.000  C
  H171     1.0000 0.14380  0.92140  0.57640  Biso   1.000  H
  C228     1.0000 0.08740  0.95260  0.54810  Biso   1.000  C
  H172     1.0000 0.08550  0.96760  0.51710  Biso   1.000  H
  C229     1.0000 0.26530  0.77380  0.90540  Biso   1.000  C
  H173     1.0000 0.29370  0.75830  0.93560  Biso   1.000  H
  C230     1.0000 0.25550  0.79110  0.85040  Biso   1.000  C
  H174     1.0000 0.27730  0.78750  0.84400  Biso   1.000  H
  C231     1.0000 0.18380  0.81730  0.81580  Biso   1.000  C
  H175     1.0000 0.15550  0.83300  0.78600  Biso   1.000  H
  C232     1.0000 0.19460  0.79810  0.87040  Biso   1.000  C
  H176     1.0000 0.17130  0.79910  0.87440  Biso   1.000  H
  C233     1.0000 0.19440  0.79820  0.51770  Biso   1.000  C
  H177     1.0000 0.17140  0.79970  0.46710  Biso   1.000  H
  C234     1.0000 0.18370  0.81660  0.55200  Biso   1.000  C
  H178     1.0000 0.15500  0.83190  0.52540  Biso   1.000  H
  C235     1.0000 0.25570  0.79120  0.66150  Biso   1.000  C
  H179     1.0000 0.27770  0.78820  0.71160  Biso   1.000  H
  C236     1.0000 0.26530  0.77330  0.62510  Biso   1.000  C
  H180     1.0000 0.29300  0.75710  0.65120  Biso   1.000  H
  C237     1.0000 0.36260  0.75930  0.59640  Biso   1.000  C
  H181     1.0000 0.36170  0.73400  0.59920  Biso   1.000  H
  C238     1.0000 0.40870  0.77600  0.63360  Biso   1.000  C
  H182     1.0000 0.43930  0.76250  0.66430  Biso   1.000  H
  C239     1.0000 0.36670  0.83110  0.58410  Biso   1.000  C
  H183     1.0000 0.36720  0.85630  0.57930  Biso   1.000  H
  C240     1.0000 0.32010  0.81350  0.54730  Biso   1.000  C
  H184     1.0000 0.28940  0.82680  0.51590  Biso   1.000  H
  C241     1.0000 0.67900  0.81270  0.90640  Biso   1.000  C
  H185     1.0000 0.70960  0.82610  0.93810  Biso   1.000  H
  C242     1.0000 0.63510  0.83030  0.85100  Biso   1.000  C
  H186     1.0000 0.63600  0.85510  0.84400  Biso   1.000  H
  C243     1.0000 0.59090  0.77680  0.81620  Biso   1.000  C
  H187     1.0000 0.56000  0.76380  0.78670  Biso   1.000  H
  C244     1.0000 0.63690  0.75920  0.86990  Biso   1.000  C
  H188     1.0000 0.63750  0.73380  0.87290  Biso   1.000  H
  C245     1.0000 0.46100  0.93560  0.51820  Biso   1.000  C
  H189     1.0000 0.43460  0.93740  0.46750  Biso   1.000  H
  C246     1.0000 0.45960  0.90910  0.55250  Biso   1.000  C
  H190     1.0000 0.43020  0.89460  0.52590  Biso   1.000  H
  C247     1.0000 0.53970  0.92490  0.66150  Biso   1.000  C
  H191     1.0000 0.56830  0.92140  0.71140  Biso   1.000  H
  C248     1.0000 0.53910  0.95290  0.62610  Biso   1.000  C
  H192     1.0000 0.56790  0.96810  0.65280  Biso   1.000  H
  S19      1.0000 0.32470  0.65967  0.68100  Biso   1.000  S
  S20      1.0000 0.32440  0.65991  0.96730  Biso   1.000  S
  N57      1.0000 0.78999  0.78986  0.99992  Biso   1.000  N
  C249     1.0000 0.81129  0.81112  0.00010  Biso   1.000  C
  N58      1.0000 0.78993  0.78999  0.57966  Biso   1.000  N
  C250     1.0000 0.81109  0.81122  0.62200  Biso   1.000  C
  S21      1.0000 0.18064  0.48312  0.68030  Biso   1.000  S
  N59      1.0000 0.55606  0.54049  0.55606  Biso   1.000  N
  C251     1.0000 0.58750  0.54700  0.62690  Biso   1.000  C
  H193     1.0000 0.58590  0.53180  0.65410  Biso   1.000  H
  C252     1.0000 0.62200  0.57490  0.66130  Biso   1.000  C
  H194     1.0000 0.64370  0.57830  0.71130  Biso   1.000  H
  C253     1.0000 0.62476  0.59692  0.62482  Biso   1.000  C
  C254     1.0000 0.59240  0.59190  0.55190  Biso   1.000  C
  H195     1.0000 0.59450  0.60720  0.52520  Biso   1.000  H
  C255     1.0000 0.55670  0.56440  0.51780  Biso   1.000  C
  H196     1.0000 0.53250  0.56230  0.46710  Biso   1.000  H
  C256     1.0000 0.66035  0.62750  0.66038  Biso   1.000  C
  N60      1.0000 0.67341  0.64096  0.71773  Biso   1.000  N
  C257     1.0000 0.70299  0.66950  0.74540  Biso   1.000  C
  N61      1.0000 0.71763  0.68563  0.71749  Biso   1.000  N
  C258     1.0000 0.70263  0.66976  0.66030  Biso   1.000  C
  N62      1.0000 0.67321  0.64125  0.62852  Biso   1.000  N
  N63      1.0000 0.73700  0.72211  0.91809  Biso   1.000  N
  C259     1.0000 0.73170  0.74170  0.86950  Biso   1.000  C
  H197     1.0000 0.73330  0.76710  0.87230  Biso   1.000  H
  C260     1.0000 0.72390  0.72410  0.81520  Biso   1.000  C
  H198     1.0000 0.72440  0.73730  0.78490  Biso   1.000  H
  C261     1.0000 0.71548  0.68726  0.80606  Biso   1.000  C
  C262     1.0000 0.71620  0.66990  0.85010  Biso   1.000  C
  H199     1.0000 0.70880  0.64500  0.84310  Biso   1.000  H
  C263     1.0000 0.72710  0.68670  0.90600  Biso   1.000  C
  H200     1.0000 0.72770  0.67300  0.93700  Biso   1.000  H
  N64      1.0000 0.73724  0.72195  0.55598  Biso   1.000  N
  C264     1.0000 0.72670  0.68650  0.54680  Biso   1.000  C
  H201     1.0000 0.72610  0.67300  0.51560  Biso   1.000  H
  C265     1.0000 0.71660  0.66930  0.58320  Biso   1.000  C
  H202     1.0000 0.71080  0.64420  0.57780  Biso   1.000  H
  C266     1.0000 0.71520  0.68748  0.62451  Biso   1.000  C
  C267     1.0000 0.72480  0.72480  0.63330  Biso   1.000  C
  H203     1.0000 0.72570  0.73810  0.66490  Biso   1.000  H
  C268     1.0000 0.73270  0.74170  0.59560  Biso   1.000  C
  H204     1.0000 0.73510  0.76710  0.59670  Biso   1.000  H
  N65      1.0000 0.81876  0.72182  0.55616  Biso   1.000  N
  C269     1.0000 0.85890  0.72550  0.62590  Biso   1.000  C
  H205     1.0000 0.85620  0.74000  0.65270  Biso   1.000  H
  C270     1.0000 0.90600  0.70850  0.66220  Biso   1.000  C
  H206     1.0000 0.93440  0.71210  0.71210  Biso   1.000  H
  C271     1.0000 0.90957  0.68743  0.62512  Biso   1.000  C
  C272     1.0000 0.86780  0.68310  0.55200  Biso   1.000  C
  H207     1.0000 0.86970  0.66750  0.52550  Biso   1.000  H
  C273     1.0000 0.82250  0.70180  0.51710  Biso   1.000  C
  H208     1.0000 0.79470  0.70030  0.46650  Biso   1.000  H
  C274     1.0000 0.95770  0.66952  0.66064  Biso   1.000  C
  N66      1.0000 0.00010  0.68555  0.71786  Biso   1.000  N
  C275     1.0000 0.04213  0.66948  0.74482  Biso   1.000  C
  N67      1.0000 0.04439  0.64098  0.71770  Biso   1.000  N
  C276     1.0000 0.00007  0.62722  0.66075  Biso   1.000  C
  N68      1.0000 0.95584  0.64108  0.62931  Biso   1.000  N
  C277     1.0000 0.17570  0.70250  0.86960  Biso   1.000  C
  H209     1.0000 0.20260  0.70220  0.87240  Biso   1.000  H
  C278     1.0000 0.13070  0.68250  0.81440  Biso   1.000  C
  H210     1.0000 0.12870  0.66640  0.78460  Biso   1.000  H
  C279     1.0000 0.09057  0.68739  0.80625  Biso   1.000  C
  C280     1.0000 0.09540  0.70910  0.85170  Biso   1.000  C
  H211     1.0000 0.06740  0.71250  0.84590  Biso   1.000  H
  C281     1.0000 0.14000  0.72610  0.90590  Biso   1.000  C
  H212     1.0000 0.14190  0.74150  0.93640  Biso   1.000  H
  N69      1.0000 0.18110  0.72205  0.91818  Biso   1.000  N
  C282     1.0000 0.96080  0.54610  0.54850  Biso   1.000  C
  H213     1.0000 0.93210  0.53080  0.51780  Biso   1.000  H
  C283     1.0000 0.96130  0.57450  0.58500  Biso   1.000  C
  H214     1.0000 0.93390  0.57720  0.58060  Biso   1.000  H
  C284     1.0000 0.00011  0.59696  0.62520  Biso   1.000  C
  C285     1.0000 0.04070  0.59190  0.63240  Biso   1.000  C
  H215     1.0000 0.06950  0.60710  0.66260  Biso   1.000  H
  C286     1.0000 0.03850  0.56460  0.59530  Biso   1.000  C
  H216     1.0000 0.06460  0.56250  0.59690  Biso   1.000  H
  N70      1.0000 0.00012  0.54065  0.55672  Biso   1.000  N
  S22      1.0000 0.85710  0.84012  0.68100  Biso   1.000  S
  S23      1.0000 0.85690  0.84044  0.03310  Biso   1.000  S
  C287     1.0000 0.55750  0.56480  0.59590  Biso   1.000  C
  H217     1.0000 0.53300  0.56290  0.59760  Biso   1.000  H
  C288     1.0000 0.59200  0.59150  0.63330  Biso   1.000  C
  H218     1.0000 0.59410  0.60620  0.66470  Biso   1.000  H
  C289     1.0000 0.62190  0.57510  0.58280  Biso   1.000  C
  H219     1.0000 0.64380  0.57860  0.57640  Biso   1.000  H
  C290     1.0000 0.58740  0.54740  0.54810  Biso   1.000  C
  H220     1.0000 0.58550  0.53240  0.51710  Biso   1.000  H
  C291     1.0000 0.76530  0.72620  0.90540  Biso   1.000  C
  H221     1.0000 0.79370  0.74170  0.93560  Biso   1.000  H
  C292     1.0000 0.75550  0.70890  0.85040  Biso   1.000  C
  H222     1.0000 0.77730  0.71250  0.84400  Biso   1.000  H
  C293     1.0000 0.68380  0.68270  0.81580  Biso   1.000  C
  H223     1.0000 0.65550  0.66700  0.78600  Biso   1.000  H
  C294     1.0000 0.69460  0.70190  0.87040  Biso   1.000  C
  H224     1.0000 0.67130  0.70090  0.87440  Biso   1.000  H
  C295     1.0000 0.69440  0.70180  0.51770  Biso   1.000  C
  H225     1.0000 0.67140  0.70030  0.46710  Biso   1.000  H
  C296     1.0000 0.68370  0.68340  0.55200  Biso   1.000  C
  H226     1.0000 0.65500  0.66810  0.52540  Biso   1.000  H
  C297     1.0000 0.75570  0.70880  0.66150  Biso   1.000  C
  H227     1.0000 0.77770  0.71180  0.71160  Biso   1.000  H
  C298     1.0000 0.76530  0.72670  0.62510  Biso   1.000  C
  H228     1.0000 0.79300  0.74290  0.65120  Biso   1.000  H
  C299     1.0000 0.86260  0.74070  0.59640  Biso   1.000  C
  H229     1.0000 0.86170  0.76600  0.59920  Biso   1.000  H
  C300     1.0000 0.90870  0.72400  0.63360  Biso   1.000  C
  H230     1.0000 0.93930  0.73750  0.66430  Biso   1.000  H
  C301     1.0000 0.86670  0.66890  0.58410  Biso   1.000  C
  H231     1.0000 0.86720  0.64370  0.57930  Biso   1.000  H
  C302     1.0000 0.82010  0.68650  0.54730  Biso   1.000  C
  H232     1.0000 0.78940  0.67320  0.51590  Biso   1.000  H
  C303     1.0000 0.17900  0.68730  0.90640  Biso   1.000  C
  H233     1.0000 0.20960  0.67390  0.93810  Biso   1.000  H
  C304     1.0000 0.13510  0.66970  0.85100  Biso   1.000  C
  H234     1.0000 0.13600  0.64490  0.84400  Biso   1.000  H
  C305     1.0000 0.09090  0.72320  0.81620  Biso   1.000  C
  H235     1.0000 0.06000  0.73620  0.78670  Biso   1.000  H
  C306     1.0000 0.13690  0.74080  0.86990  Biso   1.000  C
  H236     1.0000 0.13750  0.76620  0.87290  Biso   1.000  H
  C307     1.0000 0.96100  0.56440  0.51820  Biso   1.000  C
  H237     1.0000 0.93460  0.56260  0.46750  Biso   1.000  H
  C308     1.0000 0.95960  0.59090  0.55250  Biso   1.000  C
  H238     1.0000 0.93020  0.60540  0.52590  Biso   1.000  H
  C309     1.0000 0.03970  0.57510  0.66150  Biso   1.000  C
  H239     1.0000 0.06830  0.57860  0.71140  Biso   1.000  H
  C310     1.0000 0.03910  0.54710  0.62610  Biso   1.000  C
  H240     1.0000 0.06790  0.53190  0.65280  Biso   1.000  H
  S24      1.0000 0.82470  0.84033  0.68100  Biso   1.000  S
  S25      1.0000 0.82440  0.84009  0.96730  Biso   1.000  S
  N71      1.0000 0.28999  0.28986  0.99992  Biso   1.000  N
  C311     1.0000 0.31129  0.31112  0.00010  Biso   1.000  C
  N72      1.0000 0.28993  0.28999  0.57966  Biso   1.000  N
  C312     1.0000 0.31109  0.31122  0.62200  Biso   1.000  C
  S26      1.0000 0.68064  0.98312  0.68030  Biso   1.000  S
  N73      1.0000 0.05606  0.04049  0.55606  Biso   1.000  N
  C313     1.0000 0.08750  0.04700  0.62690  Biso   1.000  C
  H241     1.0000 0.08590  0.03180  0.65410  Biso   1.000  H
  C314     1.0000 0.12200  0.07490  0.66130  Biso   1.000  C
  H242     1.0000 0.14370  0.07830  0.71130  Biso   1.000  H
  C315     1.0000 0.12476  0.09692  0.62482  Biso   1.000  C
  C316     1.0000 0.09240  0.09190  0.55190  Biso   1.000  C
  H243     1.0000 0.09450  0.10720  0.52520  Biso   1.000  H
  C317     1.0000 0.05670  0.06440  0.51780  Biso   1.000  C
  H244     1.0000 0.03250  0.06230  0.46710  Biso   1.000  H
  C318     1.0000 0.16035  0.12750  0.66038  Biso   1.000  C
  N74      1.0000 0.17341  0.14096  0.71773  Biso   1.000  N
  C319     1.0000 0.20299  0.16950  0.74540  Biso   1.000  C
  N75      1.0000 0.21763  0.18563  0.71749  Biso   1.000  N
  C320     1.0000 0.20263  0.16976  0.66030  Biso   1.000  C
  N76      1.0000 0.17321  0.14125  0.62852  Biso   1.000  N
  N77      1.0000 0.23700  0.22211  0.91809  Biso   1.000  N
  C321     1.0000 0.23170  0.24170  0.86950  Biso   1.000  C
  H245     1.0000 0.23330  0.26710  0.87230  Biso   1.000  H
  C322     1.0000 0.22390  0.22410  0.81520  Biso   1.000  C
  H246     1.0000 0.22440  0.23730  0.78490  Biso   1.000  H
  C323     1.0000 0.21548  0.18726  0.80606  Biso   1.000  C
  C324     1.0000 0.21620  0.16990  0.85010  Biso   1.000  C
  H247     1.0000 0.20880  0.14500  0.84310  Biso   1.000  H
  C325     1.0000 0.22710  0.18670  0.90600  Biso   1.000  C
  H248     1.0000 0.22770  0.17300  0.93700  Biso   1.000  H
  N78      1.0000 0.23724  0.22195  0.55598  Biso   1.000  N
  C326     1.0000 0.22670  0.18650  0.54680  Biso   1.000  C
  H249     1.0000 0.22610  0.17300  0.51560  Biso   1.000  H
  C327     1.0000 0.21660  0.16930  0.58320  Biso   1.000  C
  H250     1.0000 0.21080  0.14420  0.57780  Biso   1.000  H
  C328     1.0000 0.21520  0.18748  0.62451  Biso   1.000  C
  C329     1.0000 0.22480  0.22480  0.63330  Biso   1.000  C
  H251     1.0000 0.22570  0.23810  0.66490  Biso   1.000  H
  C330     1.0000 0.23270  0.24170  0.59560  Biso   1.000  C
  H252     1.0000 0.23510  0.26710  0.59670  Biso   1.000  H
  N79      1.0000 0.31876  0.22182  0.55616  Biso   1.000  N
  C331     1.0000 0.35890  0.22550  0.62590  Biso   1.000  C
  H253     1.0000 0.35620  0.24000  0.65270  Biso   1.000  H
  C332     1.0000 0.40600  0.20850  0.66220  Biso   1.000  C
  H254     1.0000 0.43440  0.21210  0.71210  Biso   1.000  H
  C333     1.0000 0.40957  0.18743  0.62512  Biso   1.000  C
  C334     1.0000 0.36780  0.18310  0.55200  Biso   1.000  C
  H255     1.0000 0.36970  0.16750  0.52550  Biso   1.000  H
  C335     1.0000 0.32250  0.20180  0.51710  Biso   1.000  C
  H256     1.0000 0.29470  0.20030  0.46650  Biso   1.000  H
  C336     1.0000 0.45770  0.16952  0.66064  Biso   1.000  C
  N80      1.0000 0.50010  0.18555  0.71786  Biso   1.000  N
  C337     1.0000 0.54213  0.16948  0.74482  Biso   1.000  C
  N81      1.0000 0.54439  0.14098  0.71770  Biso   1.000  N
  C338     1.0000 0.50007  0.12722  0.66075  Biso   1.000  C
  N82      1.0000 0.45584  0.14108  0.62931  Biso   1.000  N
  C339     1.0000 0.67570  0.20250  0.86960  Biso   1.000  C
  H257     1.0000 0.70260  0.20220  0.87240  Biso   1.000  H
  C340     1.0000 0.63070  0.18250  0.81440  Biso   1.000  C
  H258     1.0000 0.62870  0.16640  0.78460  Biso   1.000  H
  C341     1.0000 0.59057  0.18739  0.80625  Biso   1.000  C
  C342     1.0000 0.59540  0.20910  0.85170  Biso   1.000  C
  H259     1.0000 0.56740  0.21250  0.84590  Biso   1.000  H
  C343     1.0000 0.64000  0.22610  0.90590  Biso   1.000  C
  H260     1.0000 0.64190  0.24150  0.93640  Biso   1.000  H
  N83      1.0000 0.68110  0.22205  0.91818  Biso   1.000  N
  C344     1.0000 0.46080  0.04610  0.54850  Biso   1.000  C
  H261     1.0000 0.43210  0.03080  0.51780  Biso   1.000  H
  C345     1.0000 0.46130  0.07450  0.58500  Biso   1.000  C
  H262     1.0000 0.43390  0.07720  0.58060  Biso   1.000  H
  C346     1.0000 0.50011  0.09696  0.62520  Biso   1.000  C
  C347     1.0000 0.54070  0.09190  0.63240  Biso   1.000  C
  H263     1.0000 0.56950  0.10710  0.66260  Biso   1.000  H
  C348     1.0000 0.53850  0.06460  0.59530  Biso   1.000  C
  H264     1.0000 0.56460  0.06250  0.59690  Biso   1.000  H
  N84      1.0000 0.50012  0.04065  0.55672  Biso   1.000  N
  S27      1.0000 0.35710  0.34012  0.68100  Biso   1.000  S
  S28      1.0000 0.35690  0.34044  0.03310  Biso   1.000  S
  C349     1.0000 0.05750  0.06480  0.59590  Biso   1.000  C
  H265     1.0000 0.03300  0.06290  0.59760  Biso   1.000  H
  C350     1.0000 0.09200  0.09150  0.63330  Biso   1.000  C
  H266     1.0000 0.09410  0.10620  0.66470  Biso   1.000  H
  C351     1.0000 0.12190  0.07510  0.58280  Biso   1.000  C
  H267     1.0000 0.14380  0.07860  0.57640  Biso   1.000  H
  C352     1.0000 0.08740  0.04740  0.54810  Biso   1.000  C
  H268     1.0000 0.08550  0.03240  0.51710  Biso   1.000  H
  C353     1.0000 0.26530  0.22620  0.90540  Biso   1.000  C
  H269     1.0000 0.29370  0.24170  0.93560  Biso   1.000  H
  C354     1.0000 0.25550  0.20890  0.85040  Biso   1.000  C
  H270     1.0000 0.27730  0.21250  0.84400  Biso   1.000  H
  C355     1.0000 0.18380  0.18270  0.81580  Biso   1.000  C
  H271     1.0000 0.15550  0.16700  0.78600  Biso   1.000  H
  C356     1.0000 0.19460  0.20190  0.87040  Biso   1.000  C
  H272     1.0000 0.17130  0.20090  0.87440  Biso   1.000  H
  C357     1.0000 0.19440  0.20180  0.51770  Biso   1.000  C
  H273     1.0000 0.17140  0.20030  0.46710  Biso   1.000  H
  C358     1.0000 0.18370  0.18340  0.55200  Biso   1.000  C
  H274     1.0000 0.15500  0.16810  0.52540  Biso   1.000  H
  C359     1.0000 0.25570  0.20880  0.66150  Biso   1.000  C
  H275     1.0000 0.27770  0.21180  0.71160  Biso   1.000  H
  C360     1.0000 0.26530  0.22670  0.62510  Biso   1.000  C
  H276     1.0000 0.29300  0.24290  0.65120  Biso   1.000  H
  C361     1.0000 0.36260  0.24070  0.59640  Biso   1.000  C
  H277     1.0000 0.36170  0.26600  0.59920  Biso   1.000  H
  C362     1.0000 0.40870  0.22400  0.63360  Biso   1.000  C
  H278     1.0000 0.43930  0.23750  0.66430  Biso   1.000  H
  C363     1.0000 0.36670  0.16890  0.58410  Biso   1.000  C
  H279     1.0000 0.36720  0.14370  0.57930  Biso   1.000  H
  C364     1.0000 0.32010  0.18650  0.54730  Biso   1.000  C
  H280     1.0000 0.28940  0.17320  0.51590  Biso   1.000  H
  C365     1.0000 0.67900  0.18730  0.90640  Biso   1.000  C
  H281     1.0000 0.70960  0.17390  0.93810  Biso   1.000  H
  C366     1.0000 0.63510  0.16970  0.85100  Biso   1.000  C
  H282     1.0000 0.63600  0.14490  0.84400  Biso   1.000  H
  C367     1.0000 0.59090  0.22320  0.81620  Biso   1.000  C
  H283     1.0000 0.56000  0.23620  0.78670  Biso   1.000  H
  C368     1.0000 0.63690  0.24080  0.86990  Biso   1.000  C
  H284     1.0000 0.63750  0.26620  0.87290  Biso   1.000  H
  C369     1.0000 0.46100  0.06440  0.51820  Biso   1.000  C
  H285     1.0000 0.43460  0.06260  0.46750  Biso   1.000  H
  C370     1.0000 0.45960  0.09090  0.55250  Biso   1.000  C
  H286     1.0000 0.43020  0.10540  0.52590  Biso   1.000  H
  C371     1.0000 0.53970  0.07510  0.66150  Biso   1.000  C
  H287     1.0000 0.56830  0.07860  0.71140  Biso   1.000  H
  C372     1.0000 0.53910  0.04710  0.62610  Biso   1.000  C
  H288     1.0000 0.56790  0.03190  0.65280  Biso   1.000  H
  S29      1.0000 0.32470  0.34033  0.68100  Biso   1.000  S
  S30      1.0000 0.32440  0.34009  0.96730  Biso   1.000  S
  N85      1.0000 0.21001  0.78986  0.00008  Biso   1.000  N
  C373     1.0000 0.18871  0.81112  0.99990  Biso   1.000  C
  N86      1.0000 0.21007  0.78999  0.42034  Biso   1.000  N
  C374     1.0000 0.18891  0.81122  0.37800  Biso   1.000  C
  S31      1.0000 0.81936  0.48312  0.31970  Biso   1.000  S
  N87      1.0000 0.44394  0.54049  0.44394  Biso   1.000  N
  C375     1.0000 0.41250  0.54700  0.37310  Biso   1.000  C
  H289     1.0000 0.41410  0.53180  0.34590  Biso   1.000  H
  C376     1.0000 0.37800  0.57490  0.33870  Biso   1.000  C
  H290     1.0000 0.35630  0.57830  0.28870  Biso   1.000  H
  C377     1.0000 0.37524  0.59692  0.37518  Biso   1.000  C
  C378     1.0000 0.40760  0.59190  0.44810  Biso   1.000  C
  H291     1.0000 0.40550  0.60720  0.47480  Biso   1.000  H
  C379     1.0000 0.44330  0.56440  0.48220  Biso   1.000  C
  H292     1.0000 0.46750  0.56230  0.53290  Biso   1.000  H
  C380     1.0000 0.33965  0.62750  0.33962  Biso   1.000  C
  N88      1.0000 0.32659  0.64096  0.28227  Biso   1.000  N
  C381     1.0000 0.29701  0.66950  0.25460  Biso   1.000  C
  N89      1.0000 0.28237  0.68563  0.28251  Biso   1.000  N
  C382     1.0000 0.29737  0.66976  0.33970  Biso   1.000  C
  N90      1.0000 0.32679  0.64125  0.37148  Biso   1.000  N
  N91      1.0000 0.26300  0.72211  0.08191  Biso   1.000  N
  C383     1.0000 0.26830  0.74170  0.13050  Biso   1.000  C
  H293     1.0000 0.26670  0.76710  0.12770  Biso   1.000  H
  C384     1.0000 0.27610  0.72410  0.18480  Biso   1.000  C
  H294     1.0000 0.27560  0.73730  0.21510  Biso   1.000  H
  C385     1.0000 0.28452  0.68726  0.19394  Biso   1.000  C
  C386     1.0000 0.28380  0.66990  0.14990  Biso   1.000  C
  H295     1.0000 0.29120  0.64500  0.15690  Biso   1.000  H
  C387     1.0000 0.27290  0.68670  0.09400  Biso   1.000  C
  H296     1.0000 0.27230  0.67300  0.06300  Biso   1.000  H
  N92      1.0000 0.26276  0.72195  0.44402  Biso   1.000  N
  C388     1.0000 0.27330  0.68650  0.45320  Biso   1.000  C
  H297     1.0000 0.27390  0.67300  0.48440  Biso   1.000  H
  C389     1.0000 0.28340  0.66930  0.41680  Biso   1.000  C
  H298     1.0000 0.28920  0.64420  0.42220  Biso   1.000  H
  C390     1.0000 0.28480  0.68748  0.37549  Biso   1.000  C
  C391     1.0000 0.27520  0.72480  0.36670  Biso   1.000  C
  H299     1.0000 0.27430  0.73810  0.33510  Biso   1.000  H
  C392     1.0000 0.26730  0.74170  0.40440  Biso   1.000  C
  H300     1.0000 0.26490  0.76710  0.40330  Biso   1.000  H
  N93      1.0000 0.18124  0.72182  0.44384  Biso   1.000  N
  C393     1.0000 0.14110  0.72550  0.37410  Biso   1.000  C
  H301     1.0000 0.14380  0.74000  0.34730  Biso   1.000  H
  C394     1.0000 0.09400  0.70850  0.33780  Biso   1.000  C
  H302     1.0000 0.06560  0.71210  0.28790  Biso   1.000  H
  C395     1.0000 0.09043  0.68743  0.37488  Biso   1.000  C
  C396     1.0000 0.13220  0.68310  0.44800  Biso   1.000  C
  H303     1.0000 0.13030  0.66750  0.47450  Biso   1.000  H
  C397     1.0000 0.17750  0.70180  0.48290  Biso   1.000  C
  H304     1.0000 0.20530  0.70030  0.53350  Biso   1.000  H
  C398     1.0000 0.04230  0.66952  0.33936  Biso   1.000  C
  N94      1.0000 0.99990  0.68555  0.28214  Biso   1.000  N
  C399     1.0000 0.95787  0.66948  0.25518  Biso   1.000  C
  N95      1.0000 0.95561  0.64098  0.28230  Biso   1.000  N
  C400     1.0000 0.99993  0.62722  0.33925  Biso   1.000  C
  N96      1.0000 0.04416  0.64108  0.37069  Biso   1.000  N
  C401     1.0000 0.82430  0.70250  0.13040  Biso   1.000  C
  H305     1.0000 0.79740  0.70220  0.12760  Biso   1.000  H
  C402     1.0000 0.86930  0.68250  0.18560  Biso   1.000  C
  H306     1.0000 0.87130  0.66640  0.21540  Biso   1.000  H
  C403     1.0000 0.90943  0.68739  0.19375  Biso   1.000  C
  C404     1.0000 0.90460  0.70910  0.14830  Biso   1.000  C
  H307     1.0000 0.93260  0.71250  0.15410  Biso   1.000  H
  C405     1.0000 0.86000  0.72610  0.09410  Biso   1.000  C
  H308     1.0000 0.85810  0.74150  0.06360  Biso   1.000  H
  N97      1.0000 0.81890  0.72205  0.08182  Biso   1.000  N
  C406     1.0000 0.03920  0.54610  0.45150  Biso   1.000  C
  H309     1.0000 0.06790  0.53080  0.48220  Biso   1.000  H
  C407     1.0000 0.03870  0.57450  0.41500  Biso   1.000  C
  H310     1.0000 0.06610  0.57720  0.41940  Biso   1.000  H
  C408     1.0000 0.99989  0.59696  0.37480  Biso   1.000  C
  C409     1.0000 0.95930  0.59190  0.36760  Biso   1.000  C
  H311     1.0000 0.93050  0.60710  0.33740  Biso   1.000  H
  C410     1.0000 0.96150  0.56460  0.40470  Biso   1.000  C
  H312     1.0000 0.93540  0.56250  0.40310  Biso   1.000  H
  N98      1.0000 0.99988  0.54065  0.44328  Biso   1.000  N
  S32      1.0000 0.14290  0.84012  0.31900  Biso   1.000  S
  S33      1.0000 0.14310  0.84044  0.96690  Biso   1.000  S
  C411     1.0000 0.44250  0.56480  0.40410  Biso   1.000  C
  H313     1.0000 0.46700  0.56290  0.40240  Biso   1.000  H
  C412     1.0000 0.40800  0.59150  0.36670  Biso   1.000  C
  H314     1.0000 0.40590  0.60620  0.33530  Biso   1.000  H
  C413     1.0000 0.37810  0.57510  0.41720  Biso   1.000  C
  H315     1.0000 0.35620  0.57860  0.42360  Biso   1.000  H
  C414     1.0000 0.41260  0.54740  0.45190  Biso   1.000  C
  H316     1.0000 0.41450  0.53240  0.48290  Biso   1.000  H
  C415     1.0000 0.23470  0.72620  0.09460  Biso   1.000  C
  H317     1.0000 0.20630  0.74170  0.06440  Biso   1.000  H
  C416     1.0000 0.24450  0.70890  0.14960  Biso   1.000  C
  H318     1.0000 0.22270  0.71250  0.15600  Biso   1.000  H
  C417     1.0000 0.31620  0.68270  0.18420  Biso   1.000  C
  H319     1.0000 0.34450  0.66700  0.21400  Biso   1.000  H
  C418     1.0000 0.30540  0.70190  0.12960  Biso   1.000  C
  H320     1.0000 0.32870  0.70090  0.12560  Biso   1.000  H
  C419     1.0000 0.30560  0.70180  0.48230  Biso   1.000  C
  H321     1.0000 0.32860  0.70030  0.53290  Biso   1.000  H
  C420     1.0000 0.31630  0.68340  0.44800  Biso   1.000  C
  H322     1.0000 0.34500  0.66810  0.47460  Biso   1.000  H
  C421     1.0000 0.24430  0.70880  0.33850  Biso   1.000  C
  H323     1.0000 0.22230  0.71180  0.28840  Biso   1.000  H
  C422     1.0000 0.23470  0.72670  0.37490  Biso   1.000  C
  H324     1.0000 0.20700  0.74290  0.34880  Biso   1.000  H
  C423     1.0000 0.13740  0.74070  0.40360  Biso   1.000  C
  H325     1.0000 0.13830  0.76600  0.40080  Biso   1.000  H
  C424     1.0000 0.09130  0.72400  0.36640  Biso   1.000  C
  H326     1.0000 0.06070  0.73750  0.33570  Biso   1.000  H
  C425     1.0000 0.13330  0.66890  0.41590  Biso   1.000  C
  H327     1.0000 0.13280  0.64370  0.42070  Biso   1.000  H
  C426     1.0000 0.17990  0.68650  0.45270  Biso   1.000  C
  H328     1.0000 0.21060  0.67320  0.48410  Biso   1.000  H
  C427     1.0000 0.82100  0.68730  0.09360  Biso   1.000  C
  H329     1.0000 0.79040  0.67390  0.06190  Biso   1.000  H
  C428     1.0000 0.86490  0.66970  0.14900  Biso   1.000  C
  H330     1.0000 0.86400  0.64490  0.15600  Biso   1.000  H
  C429     1.0000 0.90910  0.72320  0.18380  Biso   1.000  C
  H331     1.0000 0.94000  0.73620  0.21330  Biso   1.000  H
  C430     1.0000 0.86310  0.74080  0.13010  Biso   1.000  C
  H332     1.0000 0.86250  0.76620  0.12710  Biso   1.000  H
  C431     1.0000 0.03900  0.56440  0.48180  Biso   1.000  C
  H333     1.0000 0.06540  0.56260  0.53250  Biso   1.000  H
  C432     1.0000 0.04040  0.59090  0.44750  Biso   1.000  C
  H334     1.0000 0.06980  0.60540  0.47410  Biso   1.000  H
  C433     1.0000 0.96030  0.57510  0.33850  Biso   1.000  C
  H335     1.0000 0.93170  0.57860  0.28860  Biso   1.000  H
  C434     1.0000 0.96090  0.54710  0.37390  Biso   1.000  C
  H336     1.0000 0.93210  0.53190  0.34720  Biso   1.000  H
  S34      1.0000 0.17530  0.84033  0.31900  Biso   1.000  S
  S35      1.0000 0.17560  0.84009  0.03270  Biso   1.000  S
  N99      1.0000 0.71001  0.28986  0.00008  Biso   1.000  N
  C435     1.0000 0.68871  0.31112  0.99990  Biso   1.000  C
  N100     1.0000 0.71007  0.28999  0.42034  Biso   1.000  N
  C436     1.0000 0.68891  0.31122  0.37800  Biso   1.000  C
  S36      1.0000 0.31936  0.98312  0.31970  Biso   1.000  S
  N101     1.0000 0.94394  0.04049  0.44394  Biso   1.000  N
  C437     1.0000 0.91250  0.04700  0.37310  Biso   1.000  C
  H337     1.0000 0.91410  0.03180  0.34590  Biso   1.000  H
  C438     1.0000 0.87800  0.07490  0.33870  Biso   1.000  C
  H338     1.0000 0.85630  0.07830  0.28870  Biso   1.000  H
  C439     1.0000 0.87524  0.09692  0.37518  Biso   1.000  C
  C440     1.0000 0.90760  0.09190  0.44810  Biso   1.000  C
  H339     1.0000 0.90550  0.10720  0.47480  Biso   1.000  H
  C441     1.0000 0.94330  0.06440  0.48220  Biso   1.000  C
  H340     1.0000 0.96750  0.06230  0.53290  Biso   1.000  H
  C442     1.0000 0.83965  0.12750  0.33962  Biso   1.000  C
  N102     1.0000 0.82659  0.14096  0.28227  Biso   1.000  N
  C443     1.0000 0.79701  0.16950  0.25460  Biso   1.000  C
  N103     1.0000 0.78237  0.18563  0.28251  Biso   1.000  N
  C444     1.0000 0.79737  0.16976  0.33970  Biso   1.000  C
  N104     1.0000 0.82679  0.14125  0.37148  Biso   1.000  N
  N105     1.0000 0.76300  0.22211  0.08191  Biso   1.000  N
  C445     1.0000 0.76830  0.24170  0.13050  Biso   1.000  C
  H341     1.0000 0.76670  0.26710  0.12770  Biso   1.000  H
  C446     1.0000 0.77610  0.22410  0.18480  Biso   1.000  C
  H342     1.0000 0.77560  0.23730  0.21510  Biso   1.000  H
  C447     1.0000 0.78452  0.18726  0.19394  Biso   1.000  C
  C448     1.0000 0.78380  0.16990  0.14990  Biso   1.000  C
  H343     1.0000 0.79120  0.14500  0.15690  Biso   1.000  H
  C449     1.0000 0.77290  0.18670  0.09400  Biso   1.000  C
  H344     1.0000 0.77230  0.17300  0.06300  Biso   1.000  H
  N106     1.0000 0.76276  0.22195  0.44402  Biso   1.000  N
  C450     1.0000 0.77330  0.18650  0.45320  Biso   1.000  C
  H345     1.0000 0.77390  0.17300  0.48440  Biso   1.000  H
  C451     1.0000 0.78340  0.16930  0.41680  Biso   1.000  C
  H346     1.0000 0.78920  0.14420  0.42220  Biso   1.000  H
  C452     1.0000 0.78480  0.18748  0.37549  Biso   1.000  C
  C453     1.0000 0.77520  0.22480  0.36670  Biso   1.000  C
  H347     1.0000 0.77430  0.23810  0.33510  Biso   1.000  H
  C454     1.0000 0.76730  0.24170  0.40440  Biso   1.000  C
  H348     1.0000 0.76490  0.26710  0.40330  Biso   1.000  H
  N107     1.0000 0.68124  0.22182  0.44384  Biso   1.000  N
  C455     1.0000 0.64110  0.22550  0.37410  Biso   1.000  C
  H349     1.0000 0.64380  0.24000  0.34730  Biso   1.000  H
  C456     1.0000 0.59400  0.20850  0.33780  Biso   1.000  C
  H350     1.0000 0.56560  0.21210  0.28790  Biso   1.000  H
  C457     1.0000 0.59043  0.18743  0.37488  Biso   1.000  C
  C458     1.0000 0.63220  0.18310  0.44800  Biso   1.000  C
  H351     1.0000 0.63030  0.16750  0.47450  Biso   1.000  H
  C459     1.0000 0.67750  0.20180  0.48290  Biso   1.000  C
  H352     1.0000 0.70530  0.20030  0.53350  Biso   1.000  H
  C460     1.0000 0.54230  0.16952  0.33936  Biso   1.000  C
  N108     1.0000 0.49990  0.18555  0.28214  Biso   1.000  N
  C461     1.0000 0.45787  0.16948  0.25518  Biso   1.000  C
  N109     1.0000 0.45561  0.14098  0.28230  Biso   1.000  N
  C462     1.0000 0.49993  0.12722  0.33925  Biso   1.000  C
  N110     1.0000 0.54416  0.14108  0.37069  Biso   1.000  N
  C463     1.0000 0.32430  0.20250  0.13040  Biso   1.000  C
  H353     1.0000 0.29740  0.20220  0.12760  Biso   1.000  H
  C464     1.0000 0.36930  0.18250  0.18560  Biso   1.000  C
  H354     1.0000 0.37130  0.16640  0.21540  Biso   1.000  H
  C465     1.0000 0.40943  0.18739  0.19375  Biso   1.000  C
  C466     1.0000 0.40460  0.20910  0.14830  Biso   1.000  C
  H355     1.0000 0.43260  0.21250  0.15410  Biso   1.000  H
  C467     1.0000 0.36000  0.22610  0.09410  Biso   1.000  C
  H356     1.0000 0.35810  0.24150  0.06360  Biso   1.000  H
  N111     1.0000 0.31890  0.22205  0.08182  Biso   1.000  N
  C468     1.0000 0.53920  0.04610  0.45150  Biso   1.000  C
  H357     1.0000 0.56790  0.03080  0.48220  Biso   1.000  H
  C469     1.0000 0.53870  0.07450  0.41500  Biso   1.000  C
  H358     1.0000 0.56610  0.07720  0.41940  Biso   1.000  H
  C470     1.0000 0.49989  0.09696  0.37480  Biso   1.000  C
  C471     1.0000 0.45930  0.09190  0.36760  Biso   1.000  C
  H359     1.0000 0.43050  0.10710  0.33740  Biso   1.000  H
  C472     1.0000 0.46150  0.06460  0.40470  Biso   1.000  C
  H360     1.0000 0.43540  0.06250  0.40310  Biso   1.000  H
  N112     1.0000 0.49988  0.04065  0.44328  Biso   1.000  N
  S37      1.0000 0.64290  0.34012  0.31900  Biso   1.000  S
  S38      1.0000 0.64310  0.34044  0.96690  Biso   1.000  S
  C473     1.0000 0.94250  0.06480  0.40410  Biso   1.000  C
  H361     1.0000 0.96700  0.06290  0.40240  Biso   1.000  H
  C474     1.0000 0.90800  0.09150  0.36670  Biso   1.000  C
  H362     1.0000 0.90590  0.10620  0.33530  Biso   1.000  H
  C475     1.0000 0.87810  0.07510  0.41720  Biso   1.000  C
  H363     1.0000 0.85620  0.07860  0.42360  Biso   1.000  H
  C476     1.0000 0.91260  0.04740  0.45190  Biso   1.000  C
  H364     1.0000 0.91450  0.03240  0.48290  Biso   1.000  H
  C477     1.0000 0.73470  0.22620  0.09460  Biso   1.000  C
  H365     1.0000 0.70630  0.24170  0.06440  Biso   1.000  H
  C478     1.0000 0.74450  0.20890  0.14960  Biso   1.000  C
  H366     1.0000 0.72270  0.21250  0.15600  Biso   1.000  H
  C479     1.0000 0.81620  0.18270  0.18420  Biso   1.000  C
  H367     1.0000 0.84450  0.16700  0.21400  Biso   1.000  H
  C480     1.0000 0.80540  0.20190  0.12960  Biso   1.000  C
  H368     1.0000 0.82870  0.20090  0.12560  Biso   1.000  H
  C481     1.0000 0.80560  0.20180  0.48230  Biso   1.000  C
  H369     1.0000 0.82860  0.20030  0.53290  Biso   1.000  H
  C482     1.0000 0.81630  0.18340  0.44800  Biso   1.000  C
  H370     1.0000 0.84500  0.16810  0.47460  Biso   1.000  H
  C483     1.0000 0.74430  0.20880  0.33850  Biso   1.000  C
  H371     1.0000 0.72230  0.21180  0.28840  Biso   1.000  H
  C484     1.0000 0.73470  0.22670  0.37490  Biso   1.000  C
  H372     1.0000 0.70700  0.24290  0.34880  Biso   1.000  H
  C485     1.0000 0.63740  0.24070  0.40360  Biso   1.000  C
  H373     1.0000 0.63830  0.26600  0.40080  Biso   1.000  H
  C486     1.0000 0.59130  0.22400  0.36640  Biso   1.000  C
  H374     1.0000 0.56070  0.23750  0.33570  Biso   1.000  H
  C487     1.0000 0.63330  0.16890  0.41590  Biso   1.000  C
  H375     1.0000 0.63280  0.14370  0.42070  Biso   1.000  H
  C488     1.0000 0.67990  0.18650  0.45270  Biso   1.000  C
  H376     1.0000 0.71060  0.17320  0.48410  Biso   1.000  H
  C489     1.0000 0.32100  0.18730  0.09360  Biso   1.000  C
  H377     1.0000 0.29040  0.17390  0.06190  Biso   1.000  H
  C490     1.0000 0.36490  0.16970  0.14900  Biso   1.000  C
  H378     1.0000 0.36400  0.14490  0.15600  Biso   1.000  H
  C491     1.0000 0.40910  0.22320  0.18380  Biso   1.000  C
  H379     1.0000 0.44000  0.23620  0.21330  Biso   1.000  H
  C492     1.0000 0.36310  0.24080  0.13010  Biso   1.000  C
  H380     1.0000 0.36250  0.26620  0.12710  Biso   1.000  H
  C493     1.0000 0.53900  0.06440  0.48180  Biso   1.000  C
  H381     1.0000 0.56540  0.06260  0.53250  Biso   1.000  H
  C494     1.0000 0.54040  0.09090  0.44750  Biso   1.000  C
  H382     1.0000 0.56980  0.10540  0.47410  Biso   1.000  H
  C495     1.0000 0.46030  0.07510  0.33850  Biso   1.000  C
  H383     1.0000 0.43170  0.07860  0.28860  Biso   1.000  H
  C496     1.0000 0.46090  0.04710  0.37390  Biso   1.000  C
  H384     1.0000 0.43210  0.03190  0.34720  Biso   1.000  H
  S39      1.0000 0.67530  0.34033  0.31900  Biso   1.000  S
  S40      1.0000 0.67560  0.34009  0.03270  Biso   1.000  S
  Co1      1.0000 0.50000  0.50000  0.50000  Biso   1.000  Co
  Co2      1.0000 0.00000  0.00000  0.50000  Biso   1.000  Co
  N113     1.0000 0.50014  0.50000  0.42102  Biso   1.000  N
  C497     1.0000 0.50020  0.50000  0.37940  Biso   1.000  C
  N114     1.0000 0.92081  0.50000  0.42090  Biso   1.000  N
  C498     1.0000 0.87930  0.50000  0.37960  Biso   1.000  C
  S41      1.0000 0.49968  0.50000  0.31813  Biso   1.000  S
  N115     1.0000 0.00014  0.00000  0.42102  Biso   1.000  N
  C499     1.0000 0.00020  0.00000  0.37940  Biso   1.000  C
  N116     1.0000 0.42081  0.00000  0.42090  Biso   1.000  N
  C500     1.0000 0.37930  0.00000  0.37960  Biso   1.000  C
  S42      1.0000 0.99968  0.00000  0.31813  Biso   1.000  S
  N117     1.0000 0.49986  0.50000  0.57898  Biso   1.000  N
  C501     1.0000 0.49980  0.50000  0.62060  Biso   1.000  C
  N118     1.0000 0.07919  0.50000  0.57910  Biso   1.000  N
  C502     1.0000 0.12070  0.50000  0.62040  Biso   1.000  C
  S43      1.0000 0.50032  0.50000  0.68187  Biso   1.000  S
  N119     1.0000 0.99986  0.00000  0.57898  Biso   1.000  N
  C503     1.0000 0.99980  0.00000  0.62060  Biso   1.000  C
  N120     1.0000 0.57919  0.00000  0.57910  Biso   1.000  N
  C504     1.0000 0.62070  0.00000  0.62040  Biso   1.000  C
  S44      1.0000 0.00032  0.00000  0.68187  Biso   1.000  S
  Co3      1.0000 0.25000  0.25000  0.00000  Biso   1.000  Co
  Co4      1.0000 0.75000  0.25000  0.00000  Biso   1.000  Co
  Co5      1.0000 0.75000  0.75000  0.00000  Biso   1.000  Co
  Co6      1.0000 0.25000  0.75000  0.00000  Biso   1.000  Co
  Co7      1.0000 0.25000  0.25000  0.50000  Biso   1.000  Co
  Co8      1.0000 0.75000  0.25000  0.50000  Biso   1.000  Co
  Co9      1.0000 0.75000  0.75000  0.50000  Biso   1.000  Co
  Co10     1.0000 0.25000  0.75000  0.50000  Biso   1.000  Co
  Co11     1.0000 0.00000  0.50000  0.50000  Biso   1.000  Co
  Co12     1.0000 0.50000  0.00000  0.50000  Biso   1.000  Co
