data_RIPWEU_clean
_audit_creation_date              2015-10-16
_audit_creation_method            'Materials Studio'
_symmetry_space_group_name_H-M    'P1'
_symmetry_Int_Tables_number       1
_symmetry_cell_setting            triclinic
loop_
_symmetry_equiv_pos_as_xyz
  x,y,z
_cell_length_a                    17.8550
_cell_length_b                    23.8756
_cell_length_c                    34.8405
_cell_angle_alpha                 90.0000
_cell_angle_beta                  90.0000
_cell_angle_gamma                 90.0000
loop_
_atom_site_label
_atom_site_type_symbol
_atom_site_fract_x
_atom_site_fract_y
_atom_site_fract_z
_atom_site_U_iso_or_equiv
_atom_site_adp_type
_atom_site_occupancy
K1     K     0.91460   0.83730   0.73810   0.01267  Uiso   1.00
K2     K     0.58540   0.16270   0.23810   0.01267  Uiso   1.00
K3     K     0.08540   0.33730   0.76190   0.01267  Uiso   1.00
K4     K     0.41460   0.66270   0.26190   0.01267  Uiso   1.00
Na1    Na    0.49030   0.05960   0.88170   0.01267  Uiso   1.00
Na2    Na    0.88680   0.30790   0.83090   0.01267  Uiso   1.00
Na3    Na    0.99790   0.02200   0.94880   0.01267  Uiso   1.00
Na4    Na    0.01030   0.87140   0.94220   0.01267  Uiso   1.00
Na5    Na    0.48600   0.08800   0.88130   0.01267  Uiso   1.00
Na6    Na    0.00970   0.94040   0.38170   0.01267  Uiso   1.00
Na7    Na    0.61320   0.69210   0.33090   0.01267  Uiso   1.00
Na8    Na    0.50210   0.97800   0.44880   0.01267  Uiso   1.00
Na9    Na    0.48970   0.12860   0.44220   0.01267  Uiso   1.00
Na10   Na    0.01400   0.91200   0.38130   0.01267  Uiso   1.00
Na11   Na    0.50970   0.55960   0.61830   0.01267  Uiso   1.00
Na12   Na    0.11320   0.80790   0.66910   0.01267  Uiso   1.00
Na13   Na    0.00210   0.52200   0.55120   0.01267  Uiso   1.00
Na14   Na    0.98970   0.37140   0.55780   0.01267  Uiso   1.00
Na15   Na    0.51400   0.58800   0.61870   0.01267  Uiso   1.00
Na16   Na    0.99030   0.44040   0.11830   0.01267  Uiso   1.00
Na17   Na    0.38680   0.19210   0.16910   0.01267  Uiso   1.00
Na18   Na    0.49790   0.47800   0.05120   0.01267  Uiso   1.00
Na19   Na    0.51030   0.62860   0.05780   0.01267  Uiso   1.00
Na20   Na    0.98600   0.41200   0.11870   0.01267  Uiso   1.00
Sm1    Sm    0.60120   0.69386   0.96848   0.01267  Uiso   1.00
Sm2    Sm    0.88071   0.80959   0.03675   0.01267  Uiso   1.00
Sm3    Sm    0.31611   0.32837   0.85662   0.01267  Uiso   1.00
Sm4    Sm    0.68580   0.32692   0.85955   0.01267  Uiso   1.00
Sm5    Sm    0.89135   0.21399   0.72443   0.01267  Uiso   1.00
Sm6    Sm    0.99666   0.20667   0.91056   0.01267  Uiso   1.00
Sm7    Sm    0.89880   0.30614   0.46848   0.01267  Uiso   1.00
Sm8    Sm    0.61929   0.19041   0.53675   0.01267  Uiso   1.00
Sm9    Sm    0.18389   0.67163   0.35662   0.01267  Uiso   1.00
Sm10   Sm    0.81420   0.67308   0.35955   0.01267  Uiso   1.00
Sm11   Sm    0.60865   0.78601   0.22443   0.01267  Uiso   1.00
Sm12   Sm    0.50334   0.79333   0.41056   0.01267  Uiso   1.00
Sm13   Sm    0.39880   0.19386   0.53152   0.01267  Uiso   1.00
Sm14   Sm    0.11929   0.30959   0.46325   0.01267  Uiso   1.00
Sm15   Sm    0.68389   0.82837   0.64338   0.01267  Uiso   1.00
Sm16   Sm    0.31420   0.82692   0.64045   0.01267  Uiso   1.00
Sm17   Sm    0.10865   0.71399   0.77557   0.01267  Uiso   1.00
Sm18   Sm    0.00334   0.70667   0.58944   0.01267  Uiso   1.00
Sm19   Sm    0.10120   0.80614   0.03152   0.01267  Uiso   1.00
Sm20   Sm    0.38071   0.69041   0.96325   0.01267  Uiso   1.00
Sm21   Sm    0.81611   0.17163   0.14338   0.01267  Uiso   1.00
Sm22   Sm    0.18580   0.17308   0.14045   0.01267  Uiso   1.00
Sm23   Sm    0.39135   0.28601   0.27557   0.01267  Uiso   1.00
Sm24   Sm    0.49666   0.29333   0.08944   0.01267  Uiso   1.00
Mn1    Mn    0.33740   0.21910   0.66110   0.01267  Uiso   1.00
Mn2    Mn    0.16260   0.78090   0.16110   0.01267  Uiso   1.00
Mn3    Mn    0.66260   0.71910   0.83890   0.01267  Uiso   1.00
Mn4    Mn    0.83740   0.28090   0.33890   0.01267  Uiso   1.00
P1     P     0.49630   0.01930   0.77926   0.01267  Uiso   1.00
P2     P     0.37250   0.00110   0.95760   0.01267  Uiso   1.00
P3     P     0.60240   0.00440   0.96140   0.01267  Uiso   1.00
P4     P     0.30660   0.01330   0.84620   0.01267  Uiso   1.00
P5     P     0.67870   0.01540   0.85160   0.01267  Uiso   1.00
P6     P     0.00370   0.98070   0.27926   0.01267  Uiso   1.00
P7     P     0.12750   0.99890   0.45760   0.01267  Uiso   1.00
P8     P     0.89760   0.99560   0.46140   0.01267  Uiso   1.00
P9     P     0.19340   0.98670   0.34620   0.01267  Uiso   1.00
P10    P     0.82130   0.98460   0.35160   0.01267  Uiso   1.00
P11    P     0.50370   0.51930   0.72074   0.01267  Uiso   1.00
P12    P     0.62750   0.50110   0.54240   0.01267  Uiso   1.00
P13    P     0.39760   0.50440   0.53860   0.01267  Uiso   1.00
P14    P     0.69340   0.51330   0.65380   0.01267  Uiso   1.00
P15    P     0.32130   0.51540   0.64840   0.01267  Uiso   1.00
P16    P     0.99630   0.48070   0.22074   0.01267  Uiso   1.00
P17    P     0.87250   0.49890   0.04240   0.01267  Uiso   1.00
P18    P     0.10240   0.49560   0.03860   0.01267  Uiso   1.00
P19    P     0.80660   0.48670   0.15380   0.01267  Uiso   1.00
P20    P     0.17870   0.48460   0.14840   0.01267  Uiso   1.00
H1     H     0.74060   0.22450   0.94970   0.01267  Uiso   1.00
H2     H     0.77150   0.28090   0.96630   0.01267  Uiso   1.00
H3     H     0.97480   0.11740   0.80680   0.01267  Uiso   1.00
H4     H     0.04890   0.15300   0.80320   0.01267  Uiso   1.00
H5     H     0.72810   0.72660   0.09190   0.01267  Uiso   1.00
H6     H     0.67730   0.78030   0.09170   0.01267  Uiso   1.00
H7     H     0.17910   0.26550   0.96600   0.01267  Uiso   1.00
H8     H     0.22020   0.21380   0.94770   0.01267  Uiso   1.00
H9     H     0.65010   0.29730   0.74260   0.01267  Uiso   1.00
H10    H     0.65050   0.23670   0.76030   0.01267  Uiso   1.00
H11    H     0.96790   0.72360   0.13930   0.01267  Uiso   1.00
H12    H     0.94360   0.78600   0.14710   0.01267  Uiso   1.00
H13    H     0.47340   0.24450   0.91690   0.01267  Uiso   1.00
H14    H     0.47610   0.30340   0.93700   0.01267  Uiso   1.00
H15    H     0.75940   0.77550   0.44970   0.01267  Uiso   1.00
H16    H     0.72850   0.71910   0.46630   0.01267  Uiso   1.00
H17    H     0.52520   0.88260   0.30680   0.01267  Uiso   1.00
H18    H     0.45110   0.84700   0.30320   0.01267  Uiso   1.00
H19    H     0.77190   0.27340   0.59190   0.01267  Uiso   1.00
H20    H     0.82270   0.21970   0.59170   0.01267  Uiso   1.00
H21    H     0.32090   0.73450   0.46600   0.01267  Uiso   1.00
H22    H     0.27980   0.78620   0.44770   0.01267  Uiso   1.00
H23    H     0.84990   0.70270   0.24260   0.01267  Uiso   1.00
H24    H     0.84950   0.76330   0.26030   0.01267  Uiso   1.00
H25    H     0.53210   0.27640   0.63930   0.01267  Uiso   1.00
H26    H     0.55640   0.21400   0.64710   0.01267  Uiso   1.00
H27    H     0.02660   0.75550   0.41690   0.01267  Uiso   1.00
H28    H     0.02390   0.69660   0.43700   0.01267  Uiso   1.00
H29    H     0.25940   0.72450   0.55030   0.01267  Uiso   1.00
H30    H     0.22850   0.78090   0.53370   0.01267  Uiso   1.00
H31    H     0.02520   0.61740   0.69320   0.01267  Uiso   1.00
H32    H     0.95110   0.65300   0.69680   0.01267  Uiso   1.00
H33    H     0.27190   0.22660   0.40810   0.01267  Uiso   1.00
H34    H     0.32270   0.28030   0.40830   0.01267  Uiso   1.00
H35    H     0.82090   0.76550   0.53400   0.01267  Uiso   1.00
H36    H     0.77980   0.71380   0.55230   0.01267  Uiso   1.00
H37    H     0.34990   0.79730   0.75740   0.01267  Uiso   1.00
H38    H     0.34950   0.73670   0.73970   0.01267  Uiso   1.00
H39    H     0.03210   0.22360   0.36070   0.01267  Uiso   1.00
H40    H     0.05640   0.28600   0.35290   0.01267  Uiso   1.00
H41    H     0.52660   0.74450   0.58310   0.01267  Uiso   1.00
H42    H     0.52390   0.80340   0.56300   0.01267  Uiso   1.00
H43    H     0.24060   0.27550   0.05030   0.01267  Uiso   1.00
H44    H     0.27150   0.21910   0.03370   0.01267  Uiso   1.00
H45    H     0.47480   0.38260   0.19320   0.01267  Uiso   1.00
H46    H     0.54890   0.34700   0.19680   0.01267  Uiso   1.00
H47    H     0.22810   0.77340   0.90810   0.01267  Uiso   1.00
H48    H     0.17730   0.71970   0.90830   0.01267  Uiso   1.00
H49    H     0.67910   0.23450   0.03400   0.01267  Uiso   1.00
H50    H     0.72020   0.28620   0.05230   0.01267  Uiso   1.00
H51    H     0.15010   0.20270   0.25740   0.01267  Uiso   1.00
H52    H     0.15050   0.26330   0.23970   0.01267  Uiso   1.00
H53    H     0.46790   0.77640   0.86070   0.01267  Uiso   1.00
H54    H     0.44360   0.71400   0.85290   0.01267  Uiso   1.00
H55    H     0.97340   0.25550   0.08310   0.01267  Uiso   1.00
H56    H     0.97610   0.19660   0.06300   0.01267  Uiso   1.00
W1     W     0.83565   0.08445   0.88104   0.01267  Uiso   1.00
W2     W     0.38816   0.86103   0.94486   0.01267  Uiso   1.00
W3     W     0.14828   0.07988   0.88166   0.01267  Uiso   1.00
W4     W     0.38519   0.06189   0.04713   0.01267  Uiso   1.00
W5     W     0.49542   0.87783   0.78316   0.01267  Uiso   1.00
W6     W     0.49572   0.15947   0.79357   0.01267  Uiso   1.00
W7     W     0.59799   0.06589   0.04928   0.01267  Uiso   1.00
W8     W     0.21110   0.06697   0.98596   0.01267  Uiso   1.00
W9     W     0.21026   0.08749   0.77878   0.01267  Uiso   1.00
W10    W     0.58789   0.14618   0.96056   0.01267  Uiso   1.00
W11    W     0.76740   0.07522   0.98477   0.01267  Uiso   1.00
W12    W     0.59720   0.86391   0.94862   0.01267  Uiso   1.00
W13    W     0.38488   0.09246   0.71585   0.01267  Uiso   1.00
W14    W     0.76574   0.09205   0.77944   0.01267  Uiso   1.00
W15    W     0.32237   0.86995   0.84315   0.01267  Uiso   1.00
W16    W     0.37860   0.14316   0.95667   0.01267  Uiso   1.00
W17    W     0.58196   0.92743   0.04542   0.01267  Uiso   1.00
W18    W     0.36829   0.92386   0.04013   0.01267  Uiso   1.00
W19    W     0.61350   0.95656   0.71354   0.01267  Uiso   1.00
W20    W     0.32280   0.15424   0.85318   0.01267  Uiso   1.00
W21    W     0.65939   0.15535   0.86005   0.01267  Uiso   1.00
W22    W     0.66298   0.87426   0.84707   0.01267  Uiso   1.00
W23    W     0.40361   0.95463   0.70609   0.01267  Uiso   1.00
W24    W     0.59622   0.09569   0.71356   0.01267  Uiso   1.00
W25    W     0.20786   0.92937   0.97082   0.01267  Uiso   1.00
W26    W     0.78084   0.95327   0.78081   0.01267  Uiso   1.00
W27    W     0.76026   0.93570   0.98755   0.01267  Uiso   1.00
W28    W     0.14722   0.94098   0.86627   0.01267  Uiso   1.00
W29    W     0.22555   0.94950   0.76629   0.01267  Uiso   1.00
W30    W     0.83292   0.94496   0.88552   0.01267  Uiso   1.00
W31    W     0.66435   0.91555   0.38104   0.01267  Uiso   1.00
W32    W     0.11184   0.13897   0.44486   0.01267  Uiso   1.00
W33    W     0.35172   0.92012   0.38166   0.01267  Uiso   1.00
W34    W     0.11481   0.93811   0.54713   0.01267  Uiso   1.00
W35    W     0.00458   0.12217   0.28316   0.01267  Uiso   1.00
W36    W     0.00428   0.84053   0.29357   0.01267  Uiso   1.00
W37    W     0.90201   0.93411   0.54928   0.01267  Uiso   1.00
W38    W     0.28890   0.93303   0.48596   0.01267  Uiso   1.00
W39    W     0.28974   0.91251   0.27878   0.01267  Uiso   1.00
W40    W     0.91211   0.85382   0.46056   0.01267  Uiso   1.00
W41    W     0.73260   0.92478   0.48477   0.01267  Uiso   1.00
W42    W     0.90280   0.13609   0.44862   0.01267  Uiso   1.00
W43    W     0.11512   0.90754   0.21585   0.01267  Uiso   1.00
W44    W     0.73426   0.90795   0.27944   0.01267  Uiso   1.00
W45    W     0.17763   0.13005   0.34315   0.01267  Uiso   1.00
W46    W     0.12140   0.85684   0.45667   0.01267  Uiso   1.00
W47    W     0.91804   0.07257   0.54542   0.01267  Uiso   1.00
W48    W     0.13171   0.07614   0.54013   0.01267  Uiso   1.00
W49    W     0.88650   0.04344   0.21354   0.01267  Uiso   1.00
W50    W     0.17720   0.84576   0.35318   0.01267  Uiso   1.00
W51    W     0.84061   0.84465   0.36005   0.01267  Uiso   1.00
W52    W     0.83702   0.12574   0.34707   0.01267  Uiso   1.00
W53    W     0.09639   0.04537   0.20609   0.01267  Uiso   1.00
W54    W     0.90378   0.90431   0.21356   0.01267  Uiso   1.00
W55    W     0.29214   0.07063   0.47082   0.01267  Uiso   1.00
W56    W     0.71916   0.04673   0.28081   0.01267  Uiso   1.00
W57    W     0.73974   0.06430   0.48755   0.01267  Uiso   1.00
W58    W     0.35278   0.05902   0.36627   0.01267  Uiso   1.00
W59    W     0.27445   0.05050   0.26629   0.01267  Uiso   1.00
W60    W     0.66708   0.05504   0.38552   0.01267  Uiso   1.00
W61    W     0.16435   0.58445   0.61896   0.01267  Uiso   1.00
W62    W     0.61184   0.36103   0.55514   0.01267  Uiso   1.00
W63    W     0.85172   0.57988   0.61834   0.01267  Uiso   1.00
W64    W     0.61481   0.56189   0.45287   0.01267  Uiso   1.00
W65    W     0.50458   0.37783   0.71684   0.01267  Uiso   1.00
W66    W     0.50428   0.65947   0.70643   0.01267  Uiso   1.00
W67    W     0.40201   0.56589   0.45072   0.01267  Uiso   1.00
W68    W     0.78890   0.56697   0.51404   0.01267  Uiso   1.00
W69    W     0.78974   0.58749   0.72122   0.01267  Uiso   1.00
W70    W     0.41211   0.64618   0.53944   0.01267  Uiso   1.00
W71    W     0.23260   0.57522   0.51523   0.01267  Uiso   1.00
W72    W     0.40280   0.36391   0.55138   0.01267  Uiso   1.00
W73    W     0.61512   0.59246   0.78415   0.01267  Uiso   1.00
W74    W     0.23426   0.59205   0.72056   0.01267  Uiso   1.00
W75    W     0.67763   0.36995   0.65685   0.01267  Uiso   1.00
W76    W     0.62140   0.64316   0.54333   0.01267  Uiso   1.00
W77    W     0.41804   0.42743   0.45458   0.01267  Uiso   1.00
W78    W     0.63171   0.42386   0.45987   0.01267  Uiso   1.00
W79    W     0.38650   0.45656   0.78646   0.01267  Uiso   1.00
W80    W     0.67720   0.65424   0.64682   0.01267  Uiso   1.00
W81    W     0.34061   0.65535   0.63995   0.01267  Uiso   1.00
W82    W     0.33702   0.37426   0.65293   0.01267  Uiso   1.00
W83    W     0.59639   0.45463   0.79391   0.01267  Uiso   1.00
W84    W     0.40378   0.59569   0.78644   0.01267  Uiso   1.00
W85    W     0.79214   0.42937   0.52918   0.01267  Uiso   1.00
W86    W     0.21916   0.45327   0.71919   0.01267  Uiso   1.00
W87    W     0.23974   0.43570   0.51245   0.01267  Uiso   1.00
W88    W     0.85278   0.44098   0.63373   0.01267  Uiso   1.00
W89    W     0.77445   0.44950   0.73371   0.01267  Uiso   1.00
W90    W     0.16708   0.44496   0.61448   0.01267  Uiso   1.00
W91    W     0.33565   0.41555   0.11896   0.01267  Uiso   1.00
W92    W     0.88816   0.63897   0.05514   0.01267  Uiso   1.00
W93    W     0.64828   0.42012   0.11834   0.01267  Uiso   1.00
W94    W     0.88519   0.43811   0.95287   0.01267  Uiso   1.00
W95    W     0.99542   0.62217   0.21684   0.01267  Uiso   1.00
W96    W     0.99572   0.34053   0.20643   0.01267  Uiso   1.00
W97    W     0.09799   0.43411   0.95072   0.01267  Uiso   1.00
W98    W     0.71110   0.43303   0.01404   0.01267  Uiso   1.00
W99    W     0.71026   0.41251   0.22122   0.01267  Uiso   1.00
W100   W     0.08789   0.35382   0.03944   0.01267  Uiso   1.00
W101   W     0.26740   0.42478   0.01523   0.01267  Uiso   1.00
W102   W     0.09720   0.63609   0.05138   0.01267  Uiso   1.00
W103   W     0.88488   0.40754   0.28415   0.01267  Uiso   1.00
W104   W     0.26574   0.40795   0.22056   0.01267  Uiso   1.00
W105   W     0.82237   0.63005   0.15685   0.01267  Uiso   1.00
W106   W     0.87860   0.35684   0.04333   0.01267  Uiso   1.00
W107   W     0.08196   0.57257   0.95458   0.01267  Uiso   1.00
W108   W     0.86829   0.57614   0.95987   0.01267  Uiso   1.00
W109   W     0.11350   0.54344   0.28646   0.01267  Uiso   1.00
W110   W     0.82280   0.34576   0.14682   0.01267  Uiso   1.00
W111   W     0.15939   0.34465   0.13995   0.01267  Uiso   1.00
W112   W     0.16298   0.62574   0.15293   0.01267  Uiso   1.00
W113   W     0.90361   0.54537   0.29391   0.01267  Uiso   1.00
W114   W     0.09622   0.40431   0.28644   0.01267  Uiso   1.00
W115   W     0.70786   0.57063   0.02918   0.01267  Uiso   1.00
W116   W     0.28084   0.54673   0.21919   0.01267  Uiso   1.00
W117   W     0.26026   0.56430   0.01245   0.01267  Uiso   1.00
W118   W     0.64722   0.55902   0.13373   0.01267  Uiso   1.00
W119   W     0.72555   0.55050   0.23371   0.01267  Uiso   1.00
W120   W     0.33292   0.55504   0.11448   0.01267  Uiso   1.00
C1     C     0.75430   0.26260   0.94310   0.01267  Uiso   1.00
C2     C     0.74360   0.28190   0.77470   0.01267  Uiso   1.00
C3     C     0.99600   0.15130   0.79620   0.01267  Uiso   1.00
C4     C     0.03000   0.78080   0.10660   0.01267  Uiso   1.00
C5     C     0.72130   0.76320   0.08030   0.01267  Uiso   1.00
C6     C     0.17550   0.23680   0.94640   0.01267  Uiso   1.00
C7     C     0.66250   0.27570   0.76530   0.01267  Uiso   1.00
C8     C     0.95280   0.20530   0.81140   0.01267  Uiso   1.00
C9     C     0.98610   0.76160   0.14260   0.01267  Uiso   1.00
C10    C     0.17030   0.26460   0.90640   0.01267  Uiso   1.00
C11    C     0.48800   0.30750   0.88030   0.01267  Uiso   1.00
C12    C     0.71000   0.75690   0.03980   0.01267  Uiso   1.00
C13    C     0.45800   0.28330   0.91470   0.01267  Uiso   1.00
C14    C     0.81320   0.26120   0.91670   0.01267  Uiso   1.00
C15    C     0.74570   0.73740   0.44310   0.01267  Uiso   1.00
C16    C     0.75640   0.71810   0.27470   0.01267  Uiso   1.00
C17    C     0.50400   0.84870   0.29620   0.01267  Uiso   1.00
C18    C     0.47000   0.21920   0.60660   0.01267  Uiso   1.00
C19    C     0.77870   0.23680   0.58030   0.01267  Uiso   1.00
C20    C     0.32450   0.76320   0.44640   0.01267  Uiso   1.00
C21    C     0.83750   0.72430   0.26530   0.01267  Uiso   1.00
C22    C     0.54720   0.79470   0.31140   0.01267  Uiso   1.00
C23    C     0.51390   0.23840   0.64260   0.01267  Uiso   1.00
C24    C     0.32970   0.73540   0.40640   0.01267  Uiso   1.00
C25    C     0.01200   0.69250   0.38030   0.01267  Uiso   1.00
C26    C     0.79000   0.24310   0.53980   0.01267  Uiso   1.00
C27    C     0.04200   0.71670   0.41470   0.01267  Uiso   1.00
C28    C     0.68680   0.73880   0.41670   0.01267  Uiso   1.00
C29    C     0.24570   0.76260   0.55690   0.01267  Uiso   1.00
C30    C     0.25640   0.78190   0.72530   0.01267  Uiso   1.00
C31    C     0.00400   0.65130   0.70380   0.01267  Uiso   1.00
C32    C     0.97000   0.28080   0.39340   0.01267  Uiso   1.00
C33    C     0.27870   0.26320   0.41970   0.01267  Uiso   1.00
C34    C     0.82450   0.73680   0.55360   0.01267  Uiso   1.00
C35    C     0.33750   0.77570   0.73470   0.01267  Uiso   1.00
C36    C     0.04720   0.70530   0.68860   0.01267  Uiso   1.00
C37    C     0.01390   0.26160   0.35740   0.01267  Uiso   1.00
C38    C     0.82970   0.76460   0.59360   0.01267  Uiso   1.00
C39    C     0.51200   0.80750   0.61970   0.01267  Uiso   1.00
C40    C     0.29000   0.25690   0.46020   0.01267  Uiso   1.00
C41    C     0.54200   0.78330   0.58530   0.01267  Uiso   1.00
C42    C     0.18680   0.76120   0.58330   0.01267  Uiso   1.00
C43    C     0.25430   0.23740   0.05690   0.01267  Uiso   1.00
C44    C     0.24360   0.21810   0.22530   0.01267  Uiso   1.00
C45    C     0.49600   0.34870   0.20380   0.01267  Uiso   1.00
C46    C     0.53000   0.71920   0.89340   0.01267  Uiso   1.00
C47    C     0.22130   0.73680   0.91970   0.01267  Uiso   1.00
C48    C     0.67550   0.26320   0.05360   0.01267  Uiso   1.00
C49    C     0.16250   0.22430   0.23470   0.01267  Uiso   1.00
C50    C     0.45280   0.29470   0.18860   0.01267  Uiso   1.00
C51    C     0.48610   0.73840   0.85740   0.01267  Uiso   1.00
C52    C     0.67030   0.23540   0.09360   0.01267  Uiso   1.00
C53    C     0.98800   0.19250   0.11970   0.01267  Uiso   1.00
C54    C     0.21000   0.74310   0.96020   0.01267  Uiso   1.00
C55    C     0.95800   0.21670   0.08530   0.01267  Uiso   1.00
C56    C     0.31320   0.23880   0.08330   0.01267  Uiso   1.00
O1     O     0.65200   0.73120   0.02560   0.01267  Uiso   1.00
O2     O     0.75950   0.77680   0.01620   0.01267  Uiso   1.00
O3     O     0.97390   0.22190   0.84690   0.01267  Uiso   1.00
O4     O     0.11040   0.20270   0.95340   0.01267  Uiso   1.00
O5     O     0.87440   0.23240   0.92170   0.01267  Uiso   1.00
O6     O     0.37600   0.28660   0.91300   0.01267  Uiso   1.00
O7     O     0.45260   0.32400   0.85300   0.01267  Uiso   1.00
O8     O     0.56390   0.31050   0.87950   0.01267  Uiso   1.00
O9     O     0.61780   0.29730   0.80030   0.01267  Uiso   1.00
O10    O     0.11000   0.25580   0.88850   0.01267  Uiso   1.00
O11    O     0.22210   0.29710   0.89900   0.01267  Uiso   1.00
O12    O     0.68780   0.29180   0.92890   0.01267  Uiso   1.00
O13    O     0.76450   0.30000   0.80570   0.01267  Uiso   1.00
O14    O     0.80440   0.28930   0.88230   0.01267  Uiso   1.00
O15    O     0.78440   0.25840   0.74860   0.01267  Uiso   1.00
O16    O     0.92610   0.23890   0.78960   0.01267  Uiso   1.00
O17    O     0.98760   0.15300   0.75600   0.01267  Uiso   1.00
O18    O     0.99130   0.87530   0.01630   0.01267  Uiso   1.00
O19    O     0.49110   0.73420   0.99920   0.01267  Uiso   1.00
O20    O     0.98850   0.79390   0.07830   0.01267  Uiso   1.00
O21    O     0.09840   0.78300   0.10740   0.01267  Uiso   1.00
O22    O     0.03550   0.76430   0.17300   0.01267  Uiso   1.00
O23    O     0.78550   0.79720   0.08800   0.01267  Uiso   1.00
O24    O     0.75140   0.13320   0.88360   0.01267  Uiso   1.00
O25    O     0.69330   0.93380   0.02660   0.01267  Uiso   1.00
O26    O     0.62560   0.02600   0.68670   0.01267  Uiso   1.00
O27    O     0.56550   0.87070   0.82390   0.01267  Uiso   1.00
O28    O     0.23110   0.89230   0.86790   0.01267  Uiso   1.00
O29    O     0.49210   0.85940   0.93860   0.01267  Uiso   1.00
O30    O     0.22820   0.12990   0.87600   0.01267  Uiso   1.00
O31    O     0.69820   0.88870   0.95720   0.01267  Uiso   1.00
O32    O     0.48410   0.14700   0.95020   0.01267  Uiso   1.00
O33    O     0.28490   0.88100   0.95040   0.01267  Uiso   1.00
O34    O     0.81440   0.07400   0.93920   0.01267  Uiso   1.00
O35    O     0.36510   0.15500   0.90390   0.01267  Uiso   1.00
O36    O     0.70160   0.96250   0.73940   0.01267  Uiso   1.00
O37    O     0.17580   0.02130   0.75300   0.01267  Uiso   1.00
O38    O     0.81760   0.02430   0.76410   0.01267  Uiso   1.00
O39    O     0.37000   0.86240   0.89040   0.01267  Uiso   1.00
O40    O     0.16290   0.06600   0.93320   0.01267  Uiso   1.00
O41    O     0.28190   0.01700   0.80360   0.01267  Uiso   1.00
O42    O     0.61010   0.15520   0.90640   0.01267  Uiso   1.00
O43    O     0.42860   0.02200   0.75120   0.01267  Uiso   1.00
O44    O     0.80550   0.00470   0.00370   0.01267  Uiso   1.00
O45    O     0.83020   0.08480   0.82850   0.01267  Uiso   1.00
O46    O     0.42470   0.90400   0.74460   0.01267  Uiso   1.00
O47    O     0.56900   0.02210   0.75300   0.01267  Uiso   1.00
O48    O     0.63150   0.06590   0.85960   0.01267  Uiso   1.00
O49    O     0.69600   0.08880   0.74130   0.01267  Uiso   1.00
O50    O     0.56670   0.15920   0.83340   0.01267  Uiso   1.00
O51    O     0.28420   0.99920   0.95700   0.01267  Uiso   1.00
O52    O     0.57590   0.88290   0.00180   0.01267  Uiso   1.00
O53    O     0.70790   0.13510   0.81140   0.01267  Uiso   1.00
O54    O     0.69450   0.06560   0.03260   0.01267  Uiso   1.00
O55    O     0.71060   0.90020   0.80160   0.01267  Uiso   1.00
O56    O     0.07500   0.12930   0.88360   0.01267  Uiso   1.00
O57    O     0.48180   0.92920   0.05130   0.01267  Uiso   1.00
O58    O     0.09220   0.01040   0.87460   0.01267  Uiso   1.00
O59    O     0.88980   0.01370   0.88590   0.01267  Uiso   1.00
O60    O     0.49400   0.07040   0.80680   0.01267  Uiso   1.00
O61    O     0.49940   0.09270   0.70050   0.01267  Uiso   1.00
O62    O     0.39780   0.11270   0.00820   0.01267  Uiso   1.00
O63    O     0.61070   0.79170   0.95540   0.01267  Uiso   1.00
O64    O     0.27420   0.05830   0.02610   0.01267  Uiso   1.00
O65    O     0.50360   0.95960   0.69520   0.01267  Uiso   1.00
O66    O     0.14720   0.87910   0.99140   0.01267  Uiso   1.00
O67    O     0.28140   0.13750   0.80630   0.01267  Uiso   1.00
O68    O     0.40350   0.95030   0.93660   0.01267  Uiso   1.00
O69    O     0.57420   0.99780   0.00430   0.01267  Uiso   1.00
O70    O     0.75380   0.89420   0.87390   0.01267  Uiso   1.00
O71    O     0.57040   0.14100   0.75520   0.01267  Uiso   1.00
O72    O     0.27670   0.12040   0.96200   0.01267  Uiso   1.00
O73    O     0.39990   0.05570   0.94030   0.01267  Uiso   1.00
O74    O     0.69020   0.12350   0.96690   0.01267  Uiso   1.00
O75    O     0.82330   0.14130   0.75830   0.01267  Uiso   1.00
O76    O     0.35780   0.98990   0.06970   0.01267  Uiso   1.00
O77    O     0.42060   0.87170   0.82070   0.01267  Uiso   1.00
O78    O     0.49430   0.96520   0.80240   0.01267  Uiso   1.00
O79    O     0.36450   0.13780   0.67880   0.01267  Uiso   1.00
O80    O     0.29470   0.08240   0.73820   0.01267  Uiso   1.00
O81    O     0.57390   0.05720   0.94240   0.01267  Uiso   1.00
O82    O     0.68780   0.80740   0.84110   0.01267  Uiso   1.00
O83    O     0.74930   0.01440   0.87780   0.01267  Uiso   1.00
O84    O     0.63360   0.96090   0.85590   0.01267  Uiso   1.00
O85    O     0.35270   0.95970   0.85230   0.01267  Uiso   1.00
O86    O     0.64020   0.91300   0.67610   0.01267  Uiso   1.00
O87    O     0.67870   0.22480   0.85890   0.01267  Uiso   1.00
O88    O     0.42100   0.15700   0.83210   0.01267  Uiso   1.00
O89    O     0.37720   0.02640   0.68440   0.01267  Uiso   1.00
O90    O     0.37520   0.91010   0.67140   0.01267  Uiso   1.00
O91    O     0.48490   0.05580   0.05490   0.01267  Uiso   1.00
O92    O     0.71210   0.02060   0.80920   0.01267  Uiso   1.00
O93    O     0.16220   0.93930   0.92490   0.01267  Uiso   1.00
O94    O     0.83230   0.95440   0.82520   0.01267  Uiso   1.00
O95    O     0.30490   0.22620   0.85040   0.01267  Uiso   1.00
O96    O     0.35090   0.06700   0.85620   0.01267  Uiso   1.00
O97    O     0.82440   0.88850   0.00560   0.01267  Uiso   1.00
O98    O     0.15320   0.08180   0.82140   0.01267  Uiso   1.00
O99    O     0.57170   0.90530   0.74790   0.01267  Uiso   1.00
O100   O     0.56870   0.11700   0.01020   0.01267  Uiso   1.00
O101   O     0.16230   0.99710   0.99310   0.01267  Uiso   1.00
O102   O     0.69050   0.00540   0.96110   0.01267  Uiso   1.00
O103   O     0.60440   0.99530   0.07450   0.01267  Uiso   1.00
O104   O     0.42030   0.14020   0.75540   0.01267  Uiso   1.00
O105   O     0.29950   0.95890   0.73010   0.01267  Uiso   1.00
O106   O     0.39750   0.99740   0.00110   0.01267  Uiso   1.00
O107   O     0.61610   0.86590   0.89510   0.01267  Uiso   1.00
O108   O     0.23280   0.01070   0.87090   0.01267  Uiso   1.00
O109   O     0.28040   0.89770   0.79570   0.01267  Uiso   1.00
O110   O     0.27490   0.92860   0.02000   0.01267  Uiso   1.00
O111   O     0.39930   0.87970   0.99740   0.01267  Uiso   1.00
O112   O     0.15790   0.94890   0.81500   0.01267  Uiso   1.00
O113   O     0.37410   0.79000   0.95150   0.01267  Uiso   1.00
O114   O     0.57690   0.95360   0.93920   0.01267  Uiso   1.00
O115   O     0.81340   0.94520   0.93780   0.01267  Uiso   1.00
O116   O     0.83720   0.90870   0.75310   0.01267  Uiso   1.00
O117   O     0.91000   0.12860   0.88760   0.01267  Uiso   1.00
O118   O     0.23050   0.32470   0.80160   0.01267  Uiso   1.00
O119   O     0.84800   0.26880   0.52560   0.01267  Uiso   1.00
O120   O     0.74050   0.22320   0.51620   0.01267  Uiso   1.00
O121   O     0.52610   0.77810   0.34690   0.01267  Uiso   1.00
O122   O     0.38960   0.79730   0.45340   0.01267  Uiso   1.00
O123   O     0.62560   0.76760   0.42170   0.01267  Uiso   1.00
O124   O     0.12400   0.71340   0.41300   0.01267  Uiso   1.00
O125   O     0.04740   0.67600   0.35300   0.01267  Uiso   1.00
O126   O     0.93610   0.68950   0.37950   0.01267  Uiso   1.00
O127   O     0.88220   0.70270   0.30030   0.01267  Uiso   1.00
O128   O     0.39000   0.74420   0.38850   0.01267  Uiso   1.00
O129   O     0.27790   0.70290   0.39900   0.01267  Uiso   1.00
O130   O     0.81220   0.70820   0.42890   0.01267  Uiso   1.00
O131   O     0.73550   0.70000   0.30570   0.01267  Uiso   1.00
O132   O     0.69560   0.71070   0.38230   0.01267  Uiso   1.00
O133   O     0.71560   0.74160   0.24860   0.01267  Uiso   1.00
O134   O     0.57390   0.76110   0.28960   0.01267  Uiso   1.00
O135   O     0.51240   0.84700   0.25600   0.01267  Uiso   1.00
O136   O     0.50870   0.12470   0.51630   0.01267  Uiso   1.00
O137   O     0.00890   0.26580   0.49920   0.01267  Uiso   1.00
O138   O     0.51150   0.20610   0.57830   0.01267  Uiso   1.00
O139   O     0.40160   0.21700   0.60740   0.01267  Uiso   1.00
O140   O     0.46450   0.23570   0.67300   0.01267  Uiso   1.00
O141   O     0.71450   0.20280   0.58800   0.01267  Uiso   1.00
O142   O     0.74860   0.86680   0.38360   0.01267  Uiso   1.00
O143   O     0.80670   0.06620   0.52660   0.01267  Uiso   1.00
O144   O     0.87440   0.97400   0.18670   0.01267  Uiso   1.00
O145   O     0.93450   0.12930   0.32390   0.01267  Uiso   1.00
O146   O     0.26890   0.10770   0.36790   0.01267  Uiso   1.00
O147   O     0.00790   0.14060   0.43860   0.01267  Uiso   1.00
O148   O     0.27180   0.87010   0.37600   0.01267  Uiso   1.00
O149   O     0.80180   0.11130   0.45720   0.01267  Uiso   1.00
O150   O     0.01590   0.85300   0.45020   0.01267  Uiso   1.00
O151   O     0.21510   0.11900   0.45040   0.01267  Uiso   1.00
O152   O     0.68560   0.92600   0.43920   0.01267  Uiso   1.00
O153   O     0.13490   0.84500   0.40390   0.01267  Uiso   1.00
O154   O     0.79840   0.03750   0.23940   0.01267  Uiso   1.00
O155   O     0.32420   0.97870   0.25300   0.01267  Uiso   1.00
O156   O     0.68240   0.97570   0.26410   0.01267  Uiso   1.00
O157   O     0.13000   0.13760   0.39040   0.01267  Uiso   1.00
O158   O     0.33710   0.93400   0.43320   0.01267  Uiso   1.00
O159   O     0.21810   0.98300   0.30360   0.01267  Uiso   1.00
O160   O     0.88990   0.84480   0.40640   0.01267  Uiso   1.00
O161   O     0.07140   0.97800   0.25120   0.01267  Uiso   1.00
O162   O     0.69450   0.99530   0.50370   0.01267  Uiso   1.00
O163   O     0.66980   0.91520   0.32850   0.01267  Uiso   1.00
O164   O     0.07530   0.09600   0.24460   0.01267  Uiso   1.00
O165   O     0.93100   0.97790   0.25300   0.01267  Uiso   1.00
O166   O     0.86850   0.93410   0.35960   0.01267  Uiso   1.00
O167   O     0.80400   0.91120   0.24130   0.01267  Uiso   1.00
O168   O     0.93330   0.84080   0.33340   0.01267  Uiso   1.00
O169   O     0.21580   0.00080   0.45700   0.01267  Uiso   1.00
O170   O     0.92410   0.11710   0.50180   0.01267  Uiso   1.00
O171   O     0.79210   0.86490   0.31140   0.01267  Uiso   1.00
O172   O     0.80550   0.93440   0.53260   0.01267  Uiso   1.00
O173   O     0.78940   0.09980   0.30160   0.01267  Uiso   1.00
O174   O     0.42500   0.87070   0.38360   0.01267  Uiso   1.00
O175   O     0.01820   0.07080   0.55130   0.01267  Uiso   1.00
O176   O     0.40780   0.98960   0.37460   0.01267  Uiso   1.00
O177   O     0.61020   0.98630   0.38590   0.01267  Uiso   1.00
O178   O     0.00600   0.92960   0.30680   0.01267  Uiso   1.00
O179   O     0.00060   0.90730   0.20050   0.01267  Uiso   1.00
O180   O     0.10220   0.88730   0.50820   0.01267  Uiso   1.00
O181   O     0.88930   0.20830   0.45540   0.01267  Uiso   1.00
O182   O     0.22580   0.94170   0.52610   0.01267  Uiso   1.00
O183   O     0.99640   0.04040   0.19520   0.01267  Uiso   1.00
O184   O     0.35280   0.12090   0.49140   0.01267  Uiso   1.00
O185   O     0.21860   0.86250   0.30630   0.01267  Uiso   1.00
O186   O     0.09650   0.04970   0.43660   0.01267  Uiso   1.00
O187   O     0.92580   0.00220   0.50430   0.01267  Uiso   1.00
O188   O     0.74620   0.10580   0.37390   0.01267  Uiso   1.00
O189   O     0.92960   0.85900   0.25520   0.01267  Uiso   1.00
O190   O     0.22330   0.87960   0.46200   0.01267  Uiso   1.00
O191   O     0.10010   0.94430   0.44030   0.01267  Uiso   1.00
O192   O     0.80980   0.87650   0.46690   0.01267  Uiso   1.00
O193   O     0.67670   0.85870   0.25830   0.01267  Uiso   1.00
O194   O     0.14220   0.01010   0.56970   0.01267  Uiso   1.00
O195   O     0.07940   0.12830   0.32070   0.01267  Uiso   1.00
O196   O     0.00570   0.03480   0.30240   0.01267  Uiso   1.00
O197   O     0.13550   0.86220   0.17880   0.01267  Uiso   1.00
O198   O     0.20530   0.91760   0.23820   0.01267  Uiso   1.00
O199   O     0.92610   0.94280   0.44240   0.01267  Uiso   1.00
O200   O     0.81220   0.19260   0.34110   0.01267  Uiso   1.00
O201   O     0.75070   0.98560   0.37780   0.01267  Uiso   1.00
O202   O     0.86640   0.03910   0.35590   0.01267  Uiso   1.00
O203   O     0.14730   0.04030   0.35230   0.01267  Uiso   1.00
O204   O     0.85980   0.08700   0.17610   0.01267  Uiso   1.00
O205   O     0.82130   0.77520   0.35890   0.01267  Uiso   1.00
O206   O     0.07900   0.84300   0.33210   0.01267  Uiso   1.00
O207   O     0.12280   0.97360   0.18440   0.01267  Uiso   1.00
O208   O     0.12480   0.08990   0.17140   0.01267  Uiso   1.00
O209   O     0.01510   0.94420   0.55490   0.01267  Uiso   1.00
O210   O     0.78790   0.97940   0.30920   0.01267  Uiso   1.00
O211   O     0.33780   0.06070   0.42490   0.01267  Uiso   1.00
O212   O     0.66770   0.04560   0.32520   0.01267  Uiso   1.00
O213   O     0.19510   0.77380   0.35040   0.01267  Uiso   1.00
O214   O     0.14910   0.93300   0.35620   0.01267  Uiso   1.00
O215   O     0.67560   0.11150   0.50560   0.01267  Uiso   1.00
O216   O     0.34680   0.91820   0.32140   0.01267  Uiso   1.00
O217   O     0.92830   0.09470   0.24790   0.01267  Uiso   1.00
O218   O     0.93130   0.88300   0.51020   0.01267  Uiso   1.00
O219   O     0.33770   0.00290   0.49310   0.01267  Uiso   1.00
O220   O     0.80950   0.99460   0.46110   0.01267  Uiso   1.00
O221   O     0.89560   0.00470   0.57450   0.01267  Uiso   1.00
O222   O     0.07970   0.85980   0.25540   0.01267  Uiso   1.00
O223   O     0.20050   0.04110   0.23010   0.01267  Uiso   1.00
O224   O     0.10250   0.00260   0.50110   0.01267  Uiso   1.00
O225   O     0.88390   0.13410   0.39510   0.01267  Uiso   1.00
O226   O     0.26720   0.98930   0.37090   0.01267  Uiso   1.00
O227   O     0.21960   0.10230   0.29570   0.01267  Uiso   1.00
O228   O     0.22510   0.07140   0.52000   0.01267  Uiso   1.00
O229   O     0.10070   0.12030   0.49740   0.01267  Uiso   1.00
O230   O     0.34210   0.05110   0.31500   0.01267  Uiso   1.00
O231   O     0.12590   0.21000   0.45150   0.01267  Uiso   1.00
O232   O     0.92310   0.04640   0.43920   0.01267  Uiso   1.00
O233   O     0.68660   0.05480   0.43780   0.01267  Uiso   1.00
O234   O     0.66280   0.09130   0.25310   0.01267  Uiso   1.00
O235   O     0.59000   0.87140   0.38760   0.01267  Uiso   1.00
O236   O     0.26950   0.67530   0.30160   0.01267  Uiso   1.00
O237   O     0.34800   0.23120   0.47440   0.01267  Uiso   1.00
O238   O     0.24050   0.27680   0.48380   0.01267  Uiso   1.00
O239   O     0.02610   0.72190   0.65310   0.01267  Uiso   1.00
O240   O     0.88960   0.70270   0.54660   0.01267  Uiso   1.00
O241   O     0.12560   0.73240   0.57830   0.01267  Uiso   1.00
O242   O     0.62400   0.78660   0.58700   0.01267  Uiso   1.00
O243   O     0.54740   0.82400   0.64700   0.01267  Uiso   1.00
O244   O     0.43610   0.81050   0.62050   0.01267  Uiso   1.00
O245   O     0.38220   0.79730   0.69970   0.01267  Uiso   1.00
O246   O     0.89000   0.75580   0.61150   0.01267  Uiso   1.00
O247   O     0.77790   0.79710   0.60100   0.01267  Uiso   1.00
O248   O     0.31220   0.79180   0.57110   0.01267  Uiso   1.00
O249   O     0.23550   0.80000   0.69430   0.01267  Uiso   1.00
O250   O     0.19560   0.78930   0.61770   0.01267  Uiso   1.00
O251   O     0.21560   0.75840   0.75140   0.01267  Uiso   1.00
O252   O     0.07390   0.73890   0.71040   0.01267  Uiso   1.00
O253   O     0.01240   0.65300   0.74400   0.01267  Uiso   1.00
O254   O     0.00870   0.37530   0.48370   0.01267  Uiso   1.00
O255   O     0.50890   0.23420   0.50080   0.01267  Uiso   1.00
O256   O     0.01150   0.29390   0.42170   0.01267  Uiso   1.00
O257   O     0.90160   0.28300   0.39260   0.01267  Uiso   1.00
O258   O     0.96450   0.26430   0.32700   0.01267  Uiso   1.00
O259   O     0.21450   0.29720   0.41200   0.01267  Uiso   1.00
O260   O     0.24860   0.63320   0.61640   0.01267  Uiso   1.00
O261   O     0.30670   0.43380   0.47340   0.01267  Uiso   1.00
O262   O     0.37440   0.52600   0.81330   0.01267  Uiso   1.00
O263   O     0.43450   0.37070   0.67610   0.01267  Uiso   1.00
O264   O     0.76890   0.39230   0.63210   0.01267  Uiso   1.00
O265   O     0.50790   0.35940   0.56140   0.01267  Uiso   1.00
O266   O     0.77180   0.62990   0.62400   0.01267  Uiso   1.00
O267   O     0.30180   0.38870   0.54280   0.01267  Uiso   1.00
O268   O     0.51590   0.64700   0.54980   0.01267  Uiso   1.00
O269   O     0.71510   0.38100   0.54960   0.01267  Uiso   1.00
O270   O     0.18560   0.57400   0.56080   0.01267  Uiso   1.00
O271   O     0.63490   0.65500   0.59610   0.01267  Uiso   1.00
O272   O     0.29840   0.46250   0.76060   0.01267  Uiso   1.00
O273   O     0.82420   0.52130   0.74700   0.01267  Uiso   1.00
O274   O     0.18240   0.52430   0.73590   0.01267  Uiso   1.00
O275   O     0.63000   0.36240   0.60960   0.01267  Uiso   1.00
O276   O     0.83710   0.56600   0.56680   0.01267  Uiso   1.00
O277   O     0.71810   0.51700   0.69640   0.01267  Uiso   1.00
O278   O     0.38990   0.65520   0.59360   0.01267  Uiso   1.00
O279   O     0.57140   0.52200   0.74880   0.01267  Uiso   1.00
O280   O     0.19450   0.50470   0.49630   0.01267  Uiso   1.00
O281   O     0.16980   0.58480   0.67150   0.01267  Uiso   1.00
O282   O     0.57530   0.40400   0.75540   0.01267  Uiso   1.00
O283   O     0.43100   0.52210   0.74700   0.01267  Uiso   1.00
O284   O     0.36850   0.56590   0.64040   0.01267  Uiso   1.00
O285   O     0.30400   0.58880   0.75870   0.01267  Uiso   1.00
O286   O     0.43330   0.65920   0.66660   0.01267  Uiso   1.00
O287   O     0.71580   0.49920   0.54300   0.01267  Uiso   1.00
O288   O     0.42410   0.38290   0.49820   0.01267  Uiso   1.00
O289   O     0.29210   0.63510   0.68860   0.01267  Uiso   1.00
O290   O     0.30550   0.56560   0.46740   0.01267  Uiso   1.00
O291   O     0.28940   0.40020   0.69840   0.01267  Uiso   1.00
O292   O     0.92500   0.62930   0.61640   0.01267  Uiso   1.00
O293   O     0.51820   0.42920   0.44870   0.01267  Uiso   1.00
O294   O     0.90780   0.51040   0.62540   0.01267  Uiso   1.00
O295   O     0.11020   0.51370   0.61410   0.01267  Uiso   1.00
O296   O     0.50600   0.57040   0.69320   0.01267  Uiso   1.00
O297   O     0.50060   0.59270   0.79950   0.01267  Uiso   1.00
O298   O     0.60220   0.61270   0.49180   0.01267  Uiso   1.00
O299   O     0.38930   0.29170   0.54460   0.01267  Uiso   1.00
O300   O     0.72580   0.55830   0.47390   0.01267  Uiso   1.00
O301   O     0.49640   0.45960   0.80480   0.01267  Uiso   1.00
O302   O     0.85280   0.37910   0.50860   0.01267  Uiso   1.00
O303   O     0.71860   0.63750   0.69370   0.01267  Uiso   1.00
O304   O     0.59650   0.45030   0.56340   0.01267  Uiso   1.00
O305   O     0.42580   0.49780   0.49570   0.01267  Uiso   1.00
O306   O     0.24620   0.39420   0.62610   0.01267  Uiso   1.00
O307   O     0.42960   0.64100   0.74480   0.01267  Uiso   1.00
O308   O     0.72330   0.62040   0.53800   0.01267  Uiso   1.00
O309   O     0.60010   0.55570   0.55970   0.01267  Uiso   1.00
O310   O     0.30980   0.62350   0.53310   0.01267  Uiso   1.00
O311   O     0.17670   0.64130   0.74170   0.01267  Uiso   1.00
O312   O     0.64220   0.48990   0.43030   0.01267  Uiso   1.00
O313   O     0.57940   0.37170   0.67930   0.01267  Uiso   1.00
O314   O     0.50570   0.46520   0.69760   0.01267  Uiso   1.00
O315   O     0.63550   0.63780   0.82120   0.01267  Uiso   1.00
O316   O     0.70530   0.58240   0.76180   0.01267  Uiso   1.00
O317   O     0.42610   0.55720   0.55760   0.01267  Uiso   1.00
O318   O     0.31220   0.30740   0.65890   0.01267  Uiso   1.00
O319   O     0.25070   0.51440   0.62220   0.01267  Uiso   1.00
O320   O     0.36640   0.46090   0.64410   0.01267  Uiso   1.00
O321   O     0.64730   0.45970   0.64770   0.01267  Uiso   1.00
O322   O     0.35980   0.41300   0.82390   0.01267  Uiso   1.00
O323   O     0.32130   0.72480   0.64110   0.01267  Uiso   1.00
O324   O     0.57900   0.65700   0.66790   0.01267  Uiso   1.00
O325   O     0.62280   0.52640   0.81560   0.01267  Uiso   1.00
O326   O     0.62480   0.41010   0.82860   0.01267  Uiso   1.00
O327   O     0.51510   0.55580   0.44510   0.01267  Uiso   1.00
O328   O     0.28790   0.52060   0.69080   0.01267  Uiso   1.00
O329   O     0.83780   0.43930   0.57510   0.01267  Uiso   1.00
O330   O     0.16770   0.45440   0.67480   0.01267  Uiso   1.00
O331   O     0.69510   0.72620   0.64960   0.01267  Uiso   1.00
O332   O     0.64910   0.56700   0.64380   0.01267  Uiso   1.00
O333   O     0.17560   0.38850   0.49440   0.01267  Uiso   1.00
O334   O     0.84680   0.58180   0.67860   0.01267  Uiso   1.00
O335   O     0.42830   0.40530   0.75210   0.01267  Uiso   1.00
O336   O     0.43130   0.61700   0.48980   0.01267  Uiso   1.00
O337   O     0.83770   0.49710   0.50690   0.01267  Uiso   1.00
O338   O     0.30950   0.50540   0.53890   0.01267  Uiso   1.00
O339   O     0.39560   0.49530   0.42550   0.01267  Uiso   1.00
O340   O     0.57970   0.64020   0.74460   0.01267  Uiso   1.00
O341   O     0.70050   0.45890   0.76990   0.01267  Uiso   1.00
O342   O     0.60250   0.49740   0.49890   0.01267  Uiso   1.00
O343   O     0.38390   0.36590   0.60490   0.01267  Uiso   1.00
O344   O     0.76720   0.51070   0.62910   0.01267  Uiso   1.00
O345   O     0.71960   0.39770   0.70430   0.01267  Uiso   1.00
O346   O     0.72510   0.42860   0.48000   0.01267  Uiso   1.00
O347   O     0.60070   0.37970   0.50260   0.01267  Uiso   1.00
O348   O     0.84210   0.44890   0.68500   0.01267  Uiso   1.00
O349   O     0.62590   0.29000   0.54850   0.01267  Uiso   1.00
O350   O     0.42310   0.45360   0.56080   0.01267  Uiso   1.00
O351   O     0.18660   0.44520   0.56220   0.01267  Uiso   1.00
O352   O     0.16280   0.40870   0.74690   0.01267  Uiso   1.00
O353   O     0.09000   0.62860   0.61240   0.01267  Uiso   1.00
O354   O     0.76950   0.82470   0.69840   0.01267  Uiso   1.00
O355   O     0.15200   0.76880   0.97440   0.01267  Uiso   1.00
O356   O     0.25950   0.72320   0.98380   0.01267  Uiso   1.00
O357   O     0.47390   0.27810   0.15310   0.01267  Uiso   1.00
O358   O     0.61040   0.29730   0.04660   0.01267  Uiso   1.00
O359   O     0.37440   0.26760   0.07830   0.01267  Uiso   1.00
O360   O     0.87600   0.21340   0.08700   0.01267  Uiso   1.00
O361   O     0.95260   0.17600   0.14700   0.01267  Uiso   1.00
O362   O     0.06390   0.18950   0.12050   0.01267  Uiso   1.00
O363   O     0.11780   0.20270   0.19970   0.01267  Uiso   1.00
O364   O     0.61000   0.24420   0.11150   0.01267  Uiso   1.00
O365   O     0.72210   0.20290   0.10100   0.01267  Uiso   1.00
O366   O     0.18780   0.20820   0.07110   0.01267  Uiso   1.00
O367   O     0.26450   0.20000   0.19430   0.01267  Uiso   1.00
O368   O     0.30440   0.21070   0.11770   0.01267  Uiso   1.00
O369   O     0.28440   0.24160   0.25140   0.01267  Uiso   1.00
O370   O     0.42610   0.26110   0.21040   0.01267  Uiso   1.00
O371   O     0.48760   0.34700   0.24400   0.01267  Uiso   1.00
O372   O     0.49130   0.62470   0.98370   0.01267  Uiso   1.00
O373   O     0.99110   0.76580   0.00080   0.01267  Uiso   1.00
O374   O     0.48850   0.70610   0.92170   0.01267  Uiso   1.00
O375   O     0.59840   0.71700   0.89260   0.01267  Uiso   1.00
O376   O     0.53550   0.73570   0.82700   0.01267  Uiso   1.00
O377   O     0.28550   0.70280   0.91200   0.01267  Uiso   1.00
O378   O     0.25140   0.36680   0.11640   0.01267  Uiso   1.00
O379   O     0.19330   0.56620   0.97340   0.01267  Uiso   1.00
O380   O     0.12560   0.47400   0.31330   0.01267  Uiso   1.00
O381   O     0.06550   0.62930   0.17610   0.01267  Uiso   1.00
O382   O     0.73110   0.60770   0.13210   0.01267  Uiso   1.00
O383   O     0.99210   0.64060   0.06140   0.01267  Uiso   1.00
O384   O     0.72820   0.37010   0.12400   0.01267  Uiso   1.00
O385   O     0.19820   0.61130   0.04280   0.01267  Uiso   1.00
O386   O     0.98410   0.35300   0.04980   0.01267  Uiso   1.00
O387   O     0.78490   0.61900   0.04960   0.01267  Uiso   1.00
O388   O     0.31440   0.42600   0.06080   0.01267  Uiso   1.00
O389   O     0.86510   0.34500   0.09610   0.01267  Uiso   1.00
O390   O     0.20160   0.53750   0.26060   0.01267  Uiso   1.00
O391   O     0.67580   0.47870   0.24700   0.01267  Uiso   1.00
O392   O     0.31760   0.47570   0.23590   0.01267  Uiso   1.00
O393   O     0.87000   0.63760   0.10960   0.01267  Uiso   1.00
O394   O     0.66290   0.43400   0.06680   0.01267  Uiso   1.00
O395   O     0.78190   0.48300   0.19640   0.01267  Uiso   1.00
O396   O     0.11010   0.34480   0.09360   0.01267  Uiso   1.00
O397   O     0.92860   0.47800   0.24880   0.01267  Uiso   1.00
O398   O     0.30550   0.49530   0.99630   0.01267  Uiso   1.00
O399   O     0.33020   0.41520   0.17150   0.01267  Uiso   1.00
O400   O     0.92470   0.59600   0.25540   0.01267  Uiso   1.00
O401   O     0.06900   0.47790   0.24700   0.01267  Uiso   1.00
O402   O     0.13150   0.43410   0.14040   0.01267  Uiso   1.00
O403   O     0.19600   0.41120   0.25870   0.01267  Uiso   1.00
O404   O     0.06670   0.34080   0.16660   0.01267  Uiso   1.00
O405   O     0.78420   0.50080   0.04300   0.01267  Uiso   1.00
O406   O     0.07590   0.61710   0.99820   0.01267  Uiso   1.00
O407   O     0.20790   0.36490   0.18860   0.01267  Uiso   1.00
O408   O     0.19450   0.43440   0.96740   0.01267  Uiso   1.00
O409   O     0.21060   0.59980   0.19840   0.01267  Uiso   1.00
O410   O     0.57500   0.37070   0.11640   0.01267  Uiso   1.00
O411   O     0.98180   0.57080   0.94870   0.01267  Uiso   1.00
O412   O     0.59220   0.48960   0.12540   0.01267  Uiso   1.00
O413   O     0.38980   0.48630   0.11410   0.01267  Uiso   1.00
O414   O     0.99400   0.42960   0.19320   0.01267  Uiso   1.00
O415   O     0.99940   0.40730   0.29950   0.01267  Uiso   1.00
O416   O     0.89780   0.38730   0.99180   0.01267  Uiso   1.00
O417   O     0.11070   0.70830   0.04460   0.01267  Uiso   1.00
O418   O     0.77420   0.44170   0.97390   0.01267  Uiso   1.00
O419   O     0.00360   0.54040   0.30480   0.01267  Uiso   1.00
O420   O     0.64720   0.62090   0.00860   0.01267  Uiso   1.00
O421   O     0.78140   0.36250   0.19370   0.01267  Uiso   1.00
O422   O     0.90350   0.54970   0.06340   0.01267  Uiso   1.00
O423   O     0.07420   0.50220   0.99570   0.01267  Uiso   1.00
O424   O     0.25380   0.60580   0.12610   0.01267  Uiso   1.00
O425   O     0.07040   0.35900   0.24480   0.01267  Uiso   1.00
O426   O     0.77670   0.37960   0.03800   0.01267  Uiso   1.00
O427   O     0.89990   0.44430   0.05970   0.01267  Uiso   1.00
O428   O     0.19020   0.37650   0.03310   0.01267  Uiso   1.00
O429   O     0.32330   0.35870   0.24170   0.01267  Uiso   1.00
O430   O     0.85780   0.51010   0.93030   0.01267  Uiso   1.00
O431   O     0.92060   0.62830   0.17930   0.01267  Uiso   1.00
O432   O     0.99430   0.53480   0.19760   0.01267  Uiso   1.00
O433   O     0.86450   0.36220   0.32120   0.01267  Uiso   1.00
O434   O     0.79470   0.41760   0.26180   0.01267  Uiso   1.00
O435   O     0.07390   0.44280   0.05760   0.01267  Uiso   1.00
O436   O     0.18780   0.69260   0.15890   0.01267  Uiso   1.00
O437   O     0.24930   0.48560   0.12220   0.01267  Uiso   1.00
O438   O     0.13360   0.53910   0.14410   0.01267  Uiso   1.00
O439   O     0.85270   0.54030   0.14770   0.01267  Uiso   1.00
O440   O     0.14020   0.58700   0.32390   0.01267  Uiso   1.00
O441   O     0.17870   0.27520   0.14110   0.01267  Uiso   1.00
O442   O     0.92100   0.34300   0.16790   0.01267  Uiso   1.00
O443   O     0.87720   0.47360   0.31560   0.01267  Uiso   1.00
O444   O     0.87520   0.58990   0.32860   0.01267  Uiso   1.00
O445   O     0.98490   0.44420   0.94510   0.01267  Uiso   1.00
O446   O     0.21210   0.47940   0.19080   0.01267  Uiso   1.00
O447   O     0.66220   0.56070   0.07510   0.01267  Uiso   1.00
O448   O     0.33230   0.54560   0.17480   0.01267  Uiso   1.00
O449   O     0.80490   0.27380   0.14960   0.01267  Uiso   1.00
O450   O     0.85090   0.43300   0.14380   0.01267  Uiso   1.00
O451   O     0.32440   0.61150   0.99440   0.01267  Uiso   1.00
O452   O     0.65320   0.41820   0.17860   0.01267  Uiso   1.00
O453   O     0.07170   0.59470   0.25210   0.01267  Uiso   1.00
O454   O     0.06870   0.38300   0.98980   0.01267  Uiso   1.00
O455   O     0.66230   0.50290   0.00690   0.01267  Uiso   1.00
O456   O     0.19050   0.49460   0.03890   0.01267  Uiso   1.00
O457   O     0.10440   0.50470   0.92550   0.01267  Uiso   1.00
O458   O     0.92030   0.35980   0.24460   0.01267  Uiso   1.00
O459   O     0.79950   0.54110   0.26990   0.01267  Uiso   1.00
O460   O     0.89750   0.50260   0.99890   0.01267  Uiso   1.00
O461   O     0.11610   0.63410   0.10490   0.01267  Uiso   1.00
O462   O     0.73280   0.48930   0.12910   0.01267  Uiso   1.00
O463   O     0.78040   0.60230   0.20430   0.01267  Uiso   1.00
O464   O     0.77490   0.57140   0.98000   0.01267  Uiso   1.00
O465   O     0.89930   0.62030   0.00260   0.01267  Uiso   1.00
O466   O     0.65790   0.55110   0.18500   0.01267  Uiso   1.00
O467   O     0.87410   0.71000   0.04850   0.01267  Uiso   1.00
O468   O     0.07690   0.54640   0.06080   0.01267  Uiso   1.00
O469   O     0.31340   0.55480   0.06220   0.01267  Uiso   1.00
O470   O     0.33720   0.59130   0.24690   0.01267  Uiso   1.00
O471   O     0.41000   0.37140   0.11240   0.01267  Uiso   1.00
O472   O     0.73050   0.17530   0.19840   0.01267  Uiso   1.00
loop_
_geom_bond_atom_site_label_1
_geom_bond_atom_site_label_2
_geom_bond_distance
_geom_bond_site_symmetry_2
_ccdc_geom_bond_type
K1     O116    2.256   .     S
K1     O354    2.952   .     S
K1     Na12    4.341   1_655 S
K2     Na17    4.341   .     S
K2     O234    2.256   .     S
K2     O472    2.952   .     S
K3     O118    2.952   .     S
K3     O352    2.256   .     S
K3     Na2     4.341   1_455 S
K4     Na7     4.341   .     S
K4     O236    2.952   .     S
K4     O470    2.256   .     S
Na1    O48     2.640   .     S
Na1    O60     2.623   .     S
Na1    O73     2.604   .     S
Na1    O81     2.589   .     S
Na1    O96     2.649   .     S
Na2    Sm4     3.753   .     S
Na2    C8      2.802   .     S
Na2    O3      2.635   .     S
Na2    O13     2.361   .     S
Na2    O14     2.360   .     S
Na2    O16     2.297   .     S
Na2    K3      4.341   1_655 S
Na3    Na4     3.610   1_645 S
Na4    Na3     3.610   1_465 S
Na4    Sm19    3.840   1_556 S
Na4    O18     2.606   1_456 S
Na5    O32     2.784   .     S
Na5    O35     2.800   .     S
Na5    O42     2.872   .     S
Na5    O48     2.757   .     S
Na5    O50     2.784   .     S
Na5    O60     2.633   .     S
Na5    O73     2.680   .     S
Na5    O81     2.745   .     S
Na5    O88     2.646   .     S
Na5    O96     2.614   .     S
Na6    O178    2.623   .     S
Na6    O191    2.604   .     S
Na6    O214    2.649   .     S
Na6    O166    2.640   1_455 S
Na6    O199    2.589   1_455 S
Na7    Sm10    3.753   .     S
Na7    C22     2.802   .     S
Na7    O121    2.635   .     S
Na7    O131    2.361   .     S
Na7    O132    2.360   .     S
Na7    O134    2.297   .     S
Na8    Na9     3.610   1_565 S
Na9    Sm13    3.840   .     S
Na9    O136    2.606   .     S
Na9    Na8     3.610   1_545 S
Na10   O150    2.784   .     S
Na10   O153    2.800   .     S
Na10   O178    2.633   .     S
Na10   O191    2.680   .     S
Na10   O206    2.646   .     S
Na10   O214    2.614   .     S
Na10   O160    2.872   1_455 S
Na10   O166    2.757   1_455 S
Na10   O168    2.784   1_455 S
Na10   O199    2.745   1_455 S
Na11   O284    2.640   .     S
Na11   O296    2.623   .     S
Na11   O309    2.604   .     S
Na11   O317    2.589   .     S
Na11   O332    2.649   .     S
Na12   Sm16    3.753   .     S
Na12   C36     2.802   .     S
Na12   O239    2.635   .     S
Na12   O249    2.361   .     S
Na12   O250    2.360   .     S
Na12   O252    2.297   .     S
Na12   K1      4.341   1_455 S
Na13   Na14    3.610   1_455 S
Na14   Sm7     3.840   .     S
Na14   Na13    3.610   1_655 S
Na14   O254    2.606   1_655 S
Na15   O268    2.784   .     S
Na15   O271    2.800   .     S
Na15   O278    2.872   .     S
Na15   O284    2.757   .     S
Na15   O286    2.784   .     S
Na15   O296    2.633   .     S
Na15   O309    2.680   .     S
Na15   O317    2.745   .     S
Na15   O324    2.646   .     S
Na15   O332    2.614   .     S
Na16   O414    2.623   .     S
Na16   O427    2.604   .     S
Na16   O450    2.649   .     S
Na16   O402    2.640   1_655 S
Na16   O435    2.589   1_655 S
Na17   Sm22    3.753   .     S
Na17   C50     2.802   .     S
Na17   O357    2.635   .     S
Na17   O367    2.361   .     S
Na17   O368    2.360   .     S
Na17   O370    2.297   .     S
Na18   Na19    3.610   .     S
Na19   Sm1     3.840   1_554 S
Na19   O372    2.606   1_554 S
Na20   O386    2.784   .     S
Na20   O389    2.800   .     S
Na20   O414    2.633   .     S
Na20   O427    2.680   .     S
Na20   O442    2.646   .     S
Na20   O450    2.614   .     S
Na20   O396    2.872   1_655 S
Na20   O402    2.757   1_655 S
Na20   O404    2.784   1_655 S
Na20   O435    2.745   1_655 S
Sm1    Sm20    3.942   .     S
Sm1    C46     2.971   .     S
Sm1    O19     2.437   .     S
Sm1    O63     2.386   .     S
Sm1    O372    2.619   .     S
Sm1    O374    2.606   .     S
Sm1    O375    2.701   .     S
Sm1    Na19    3.840   1_556 S
Sm1    O1      2.362   1_556 S
Sm1    O420    2.380   1_556 S
Sm2    O2      2.410   .     S
Sm2    O18     2.621   .     S
Sm2    O20     2.437   .     S
Sm2    O23     2.483   .     S
Sm2    O97     2.395   .     S
Sm2    O373    2.559   .     S
Sm2    O467    2.416   .     S
Sm2    Sm19    3.942   1_655 S
Sm3    O6      2.449   .     S
Sm3    O7      2.443   .     S
Sm3    O11     2.357   .     S
Sm3    O95     2.457   .     S
Sm3    O118    2.453   .     S
Sm3    O322    2.448   .     S
Sm4    O8      2.318   .     S
Sm4    O9      2.497   .     S
Sm4    O12     2.558   .     S
Sm4    O13     2.431   .     S
Sm4    O14     2.433   .     S
Sm4    O87     2.442   .     S
Sm4    O326    2.509   .     S
Sm5    O15     2.341   .     S
Sm5    O16     2.428   .     S
Sm5    O17     2.507   .     S
Sm5    O75     2.425   .     S
Sm6    O3      2.284   .     S
Sm6    O5      2.301   .     S
Sm6    O117    2.551   .     S
Sm6    O4      2.522   1_655 S
Sm6    O10     2.462   1_655 S
Sm6    O56     2.500   1_655 S
Sm7    C32     2.971   .     S
Sm7    O119    2.362   .     S
Sm7    O181    2.386   .     S
Sm7    O257    2.701   .     S
Sm7    O302    2.380   .     S
Sm7    Sm14    3.942   1_655 S
Sm7    O137    2.437   1_655 S
Sm7    O254    2.619   1_655 S
Sm7    O256    2.606   1_655 S
Sm8    Sm13    3.942   .     S
Sm8    O120    2.410   .     S
Sm8    O136    2.621   .     S
Sm8    O138    2.437   .     S
Sm8    O141    2.483   .     S
Sm8    O215    2.395   .     S
Sm8    O255    2.559   .     S
Sm8    O349    2.416   .     S
Sm9    O124    2.449   .     S
Sm9    O125    2.443   .     S
Sm9    O129    2.357   .     S
Sm9    O213    2.457   .     S
Sm9    O236    2.453   .     S
Sm9    O440    2.448   .     S
Sm10   O126    2.318   .     S
Sm10   O127    2.497   .     S
Sm10   O130    2.558   .     S
Sm10   O131    2.431   .     S
Sm10   O132    2.433   .     S
Sm10   O205    2.442   .     S
Sm10   O444    2.509   .     S
Sm11   O133    2.341   .     S
Sm11   O134    2.428   .     S
Sm11   O135    2.507   .     S
Sm11   O193    2.425   .     S
Sm12   O121    2.284   .     S
Sm12   O122    2.522   .     S
Sm12   O123    2.301   .     S
Sm12   O128    2.462   .     S
Sm12   O174    2.500   .     S
Sm12   O235    2.551   .     S
Sm13   C18     2.971   .     S
Sm13   O136    2.619   .     S
Sm13   O138    2.606   .     S
Sm13   O139    2.701   .     S
Sm13   O184    2.380   .     S
Sm13   O237    2.362   .     S
Sm13   O255    2.437   .     S
Sm13   O299    2.386   .     S
Sm14   O137    2.559   .     S
Sm14   O231    2.416   .     S
Sm14   O238    2.410   .     S
Sm14   O254    2.621   .     S
Sm14   O256    2.437   .     S
Sm14   O259    2.483   .     S
Sm14   O333    2.395   .     S
Sm14   Sm7     3.942   1_455 S
Sm15   O86     2.448   .     S
Sm15   O242    2.449   .     S
Sm15   O243    2.443   .     S
Sm15   O247    2.357   .     S
Sm15   O331    2.457   .     S
Sm15   O354    2.453   .     S
Sm16   O90     2.509   .     S
Sm16   O244    2.318   .     S
Sm16   O245    2.497   .     S
Sm16   O248    2.558   .     S
Sm16   O249    2.431   .     S
Sm16   O250    2.433   .     S
Sm16   O323    2.442   .     S
Sm17   O251    2.341   .     S
Sm17   O252    2.428   .     S
Sm17   O253    2.507   .     S
Sm17   O311    2.425   .     S
Sm18   O239    2.284   .     S
Sm18   O241    2.301   .     S
Sm18   O353    2.551   .     S
Sm18   O240    2.522   1_455 S
Sm18   O246    2.462   1_455 S
Sm18   O292    2.500   1_455 S
Sm19   C4      2.971   .     S
Sm19   O21     2.701   .     S
Sm19   O417    2.386   .     S
Sm19   Na4     3.840   1_554 S
Sm19   Sm2     3.942   1_455 S
Sm19   O18     2.619   1_455 S
Sm19   O20     2.606   1_455 S
Sm19   O66     2.380   1_554 S
Sm19   O355    2.362   1_554 S
Sm19   O373    2.437   1_455 S
Sm20   O19     2.559   .     S
Sm20   O113    2.416   .     S
Sm20   O356    2.410   .     S
Sm20   O372    2.621   .     S
Sm20   O374    2.437   .     S
Sm20   O377    2.483   .     S
Sm20   O451    2.395   .     S
Sm21   O204    2.448   .     S
Sm21   O360    2.449   .     S
Sm21   O361    2.443   .     S
Sm21   O365    2.357   .     S
Sm21   O449    2.457   .     S
Sm21   O472    2.453   .     S
Sm22   O208    2.509   .     S
Sm22   O362    2.318   .     S
Sm22   O363    2.497   .     S
Sm22   O366    2.558   .     S
Sm22   O367    2.431   .     S
Sm22   O368    2.433   .     S
Sm22   O441    2.442   .     S
Sm23   O369    2.341   .     S
Sm23   O370    2.428   .     S
Sm23   O371    2.507   .     S
Sm23   O429    2.425   .     S
Sm24   O357    2.284   .     S
Sm24   O358    2.522   .     S
Sm24   O359    2.301   .     S
Sm24   O364    2.462   .     S
Sm24   O410    2.500   .     S
Sm24   O471    2.551   .     S
Mn1    O79     2.093   .     S
Mn1    O139    2.195   .     S
Mn1    O140    2.341   .     S
Mn1    O318    2.157   .     S
Mn2    O21     2.195   .     S
Mn2    O22     2.341   .     S
Mn2    O197    2.093   .     S
Mn2    O436    2.157   .     S
Mn3    O82     2.157   .     S
Mn3    O315    2.093   .     S
Mn3    O375    2.195   .     S
Mn3    O376    2.341   .     S
Mn4    O200    2.157   .     S
Mn4    O257    2.195   .     S
Mn4    O258    2.341   .     S
Mn4    O433    2.093   .     S
P1     O43     1.556   .     S
P1     O47     1.589   .     S
P1     O60     1.553   .     S
P1     O78     1.523   1_545 S
P2     O73     1.517   .     S
P2     O51     1.577   1_545 S
P2     O68     1.521   1_545 S
P2     O106    1.582   1_546 S
P3     O81     1.512   .     S
P3     O102    1.573   .     S
P3     O69     1.585   1_546 S
P3     O114    1.509   1_545 S
P4     O41     1.551   .     S
P4     O96     1.546   .     S
P4     O108    1.575   .     S
P4     O85     1.536   1_545 S
P5     O48     1.497   .     S
P5     O83     1.557   .     S
P5     O92     1.598   .     S
P5     O84     1.538   1_545 S
P6     O161    1.556   .     S
P6     O178    1.553   .     S
P6     O165    1.589   1_455 S
P6     O196    1.523   1_565 S
P7     O191    1.517   .     S
P7     O169    1.577   1_565 S
P7     O186    1.521   1_565 S
P7     O224    1.582   1_565 S
P8     O199    1.512   .     S
P8     O220    1.573   .     S
P8     O187    1.585   1_565 S
P8     O232    1.509   1_565 S
P9     O159    1.551   .     S
P9     O214    1.546   .     S
P9     O226    1.575   .     S
P9     O203    1.536   1_565 S
P10    O166    1.497   .     S
P10    O201    1.557   .     S
P10    O210    1.598   .     S
P10    O202    1.538   1_565 S
P11    O279    1.556   .     S
P11    O283    1.589   .     S
P11    O296    1.553   .     S
P11    O314    1.523   .     D
P12    O287    1.577   .     S
P12    O304    1.521   .     D
P12    O309    1.517   .     S
P12    O342    1.582   .     S
P13    O305    1.585   .     S
P13    O317    1.512   .     S
P13    O338    1.573   .     S
P13    O350    1.509   .     D
P14    O277    1.551   .     S
P14    O321    1.536   .     D
P14    O332    1.546   .     S
P14    O344    1.575   .     S
P15    O284    1.497   .     S
P15    O319    1.557   .     S
P15    O320    1.538   .     D
P15    O328    1.598   .     S
P16    O397    1.556   .     S
P16    O414    1.553   .     S
P16    O432    1.523   .     D
P16    O401    1.589   1_655 S
P17    O405    1.577   .     S
P17    O422    1.521   .     D
P17    O427    1.517   .     S
P17    O460    1.582   1_554 S
P18    O435    1.512   .     S
P18    O456    1.573   .     S
P18    O468    1.509   .     D
P18    O423    1.585   1_554 S
P19    O395    1.551   .     S
P19    O439    1.536   .     D
P19    O450    1.546   .     S
P19    O462    1.575   .     S
P20    O402    1.497   .     S
P20    O437    1.557   .     S
P20    O438    1.538   .     D
P20    O446    1.598   .     S
H1     C1      0.970   .     S
H2     C1      0.969   .     S
H3     C3      0.967   .     S
H4     C3      0.976   1_455 S
H5     C5      0.970   .     S
H6     C5      0.970   .     S
H7     C6      0.970   .     S
H8     C6      0.970   .     S
H9     C7      0.970   .     S
H10    C7      0.971   .     S
H11    C9      0.971   .     S
H12    C9      0.969   .     S
H13    C13     0.969   .     S
H14    C13     0.969   .     S
H15    C15     0.970   .     S
H16    C15     0.969   .     S
H17    C17     0.967   .     S
H18    C17     0.976   .     S
H19    C19     0.970   .     S
H20    C19     0.970   .     S
H21    C20     0.970   .     S
H22    C20     0.970   .     S
H23    C21     0.970   .     S
H24    C21     0.971   .     S
H25    C23     0.971   .     S
H26    C23     0.969   .     S
H27    C27     0.969   .     S
H28    C27     0.969   .     S
H29    C29     0.970   .     S
H30    C29     0.969   .     S
H31    C31     0.967   .     S
H32    C31     0.976   1_655 S
H33    C33     0.970   .     S
H34    C33     0.970   .     S
H35    C34     0.970   .     S
H36    C34     0.970   .     S
H37    C35     0.970   .     S
H38    C35     0.971   .     S
H39    C37     0.971   .     S
H40    C37     0.969   .     S
H41    C41     0.969   .     S
H42    C41     0.969   .     S
H43    C43     0.970   .     S
H44    C43     0.969   .     S
H45    C45     0.967   .     S
H46    C45     0.976   .     S
H47    C47     0.970   .     S
H48    C47     0.970   .     S
H49    C48     0.970   .     S
H50    C48     0.970   .     S
H51    C49     0.970   .     S
H52    C49     0.971   .     S
H53    C51     0.971   .     S
H54    C51     0.969   .     S
H55    C55     0.969   .     S
H56    C55     0.969   .     S
W1     O24     1.904   .     S
W1     O34     2.077   .     S
W1     O45     1.833   .     S
W1     O59     1.954   .     S
W1     O83     2.278   .     S
W1     O117    1.710   .     S
W2     O29     1.869   .     S
W2     O33     1.914   .     S
W2     O39     1.925   .     S
W2     O68     2.168   .     S
W2     O111    1.894   .     S
W2     O113    1.730   .     S
W3     O30     1.871   .     S
W3     O40     1.845   .     S
W3     O56     1.763   .     S
W3     O58     1.953   .     S
W3     O98     2.102   .     S
W3     O108    2.269   .     S
W4     O62     1.834   .     S
W4     O64     2.115   .     S
W4     O91     1.807   .     S
W4     O76     1.952   1_545 S
W4     O106    2.234   1_545 S
W5     O27     1.900   .     S
W5     O46     1.947   .     S
W5     O77     1.875   .     S
W5     O78     2.191   .     S
W5     O99     1.948   .     S
W6     O50     1.879   .     S
W6     O60     2.176   .     S
W6     O71     1.939   .     S
W6     O88     1.894   .     S
W6     O104    1.948   .     S
W7     O54     1.819   .     S
W7     O91     2.043   .     S
W7     O100    1.902   .     S
W7     O69     2.298   1_545 S
W7     O103    1.904   1_545 S
W8     O40     2.030   .     S
W8     O72     1.923   .     S
W8     O51     2.311   1_545 S
W8     O64     1.808   1_556 S
W8     O101    1.898   1_545 S
W9     O37     1.919   .     S
W9     O41     2.284   .     S
W9     O67     1.990   .     S
W9     O80     2.070   .     S
W9     O98     1.806   .     S
W10    O32     1.888   .     S
W10    O42     1.940   .     S
W10    O74     1.918   .     S
W10    O81     2.231   .     S
W10    O100    1.896   1_556 S
W11    O34     1.796   .     S
W11    O74     1.902   .     S
W11    O102    2.312   .     S
W11    O44     1.932   1_556 S
W11    O54     2.127   1_556 S
W12    O29     1.912   .     S
W12    O31     1.921   .     S
W12    O63     1.757   .     S
W12    O107    1.896   .     S
W12    O114    2.197   .     S
W12    O52     1.945   1_556 S
W13    O43     2.226   .     S
W13    O61     2.114   .     S
W13    O79     1.724   .     S
W13    O80     1.805   .     S
W13    O89     1.925   .     S
W13    O104    1.897   .     S
W14    O38     1.939   .     S
W14    O45     2.068   .     S
W14    O49     1.823   .     S
W14    O53     1.834   .     S
W14    O75     1.727   .     S
W14    O92     2.214   .     S
W15    O28     1.919   .     S
W15    O39     1.862   .     S
W15    O77     1.921   .     S
W15    O85     2.233   .     S
W15    O109    1.932   .     S
W16    O32     1.899   .     S
W16    O35     1.876   .     S
W16    O72     1.908   .     S
W16    O73     2.198   .     S
W16    O62     1.967   1_556 S
W17    O25     2.099   .     S
W17    O52     1.858   .     S
W17    O57     1.801   .     S
W17    O69     2.212   .     S
W17    O103    1.953   .     S
W18    O57     2.068   .     S
W18    O76     1.893   .     S
W18    O106    2.281   .     S
W18    O110    1.813   .     S
W18    O111    1.906   1_554 S
W19    O36     1.818   .     S
W19    O65     2.065   .     S
W19    O86     1.735   .     S
W19    O99     1.868   .     S
W19    O26     1.916   1_565 S
W19    O47     2.229   1_565 S
W20    O30     1.955   .     S
W20    O35     1.922   .     S
W20    O67     1.837   .     S
W20    O88     1.902   .     S
W20    O95     1.750   .     S
W20    O96     2.145   .     S
W21    O24     1.911   .     S
W21    O42     1.839   .     S
W21    O48     2.193   .     S
W21    O50     1.900   .     S
W21    O53     1.964   .     S
W21    O87     1.694   .     S
W22    O27     1.920   .     S
W22    O55     1.902   .     S
W22    O70     1.931   .     S
W22    O82     1.670   .     S
W22    O84     2.156   .     S
W22    O107    1.882   .     S
W23    O46     1.845   .     S
W23    O65     1.829   .     S
W23    O90     1.688   .     S
W23    O105    2.041   .     S
W23    O43     2.293   1_565 S
W23    O89     1.931   1_565 S
W24    O26     1.980   .     S
W24    O47     2.283   .     S
W24    O49     2.034   .     S
W24    O61     1.789   .     S
W24    O71     1.867   .     S
W25    O33     1.932   .     S
W25    O51     2.207   .     S
W25    O66     1.769   .     S
W25    O93     1.811   .     S
W25    O101    1.970   .     S
W25    O110    2.090   1_556 S
W26    O36     2.033   .     S
W26    O55     1.924   .     S
W26    O94     1.799   .     S
W26    O116    1.754   .     S
W26    O38     1.909   1_565 S
W26    O92     2.251   1_565 S
W27    O31     1.899   .     S
W27    O115    1.989   .     S
W27    O25     1.812   1_556 S
W27    O44     1.919   1_566 S
W27    O97     1.725   1_556 S
W27    O102    2.274   1_565 S
W28    O28     1.897   .     S
W28    O93     2.061   .     S
W28    O112    1.806   .     S
W28    O58     1.948   1_565 S
W28    O108    2.265   1_565 S
W29    O105    1.839   .     S
W29    O109    1.881   .     S
W29    O112    2.083   .     S
W29    O37     1.985   1_565 S
W29    O41     2.302   1_565 S
W30    O70     1.905   .     S
W30    O94     2.114   .     S
W30    O115    1.855   .     S
W30    O59     1.930   1_565 S
W30    O83     2.247   1_565 S
W31    O142    1.904   .     S
W31    O152    2.077   .     S
W31    O163    1.833   .     S
W31    O177    1.954   .     S
W31    O201    2.278   .     S
W31    O235    1.710   .     S
W32    O147    1.869   .     S
W32    O151    1.914   .     S
W32    O157    1.925   .     S
W32    O186    2.168   .     S
W32    O229    1.894   .     S
W32    O231    1.730   .     S
W33    O148    1.871   .     S
W33    O158    1.845   .     S
W33    O174    1.763   .     S
W33    O176    1.953   .     S
W33    O216    2.102   .     S
W33    O226    2.269   .     S
W34    O180    1.834   .     S
W34    O182    2.115   .     S
W34    O209    1.807   .     S
W34    O194    1.952   1_565 S
W34    O224    2.234   1_565 S
W35    O164    1.947   .     S
W35    O195    1.875   .     S
W35    O196    2.191   .     S
W35    O145    1.900   1_455 S
W35    O217    1.948   1_455 S
W36    O178    2.176   .     S
W36    O206    1.894   .     S
W36    O222    1.948   .     S
W36    O168    1.879   1_455 S
W36    O189    1.939   1_455 S
W37    O172    1.819   .     S
W37    O218    1.902   .     S
W37    O187    2.298   1_565 S
W37    O209    2.043   1_655 S
W37    O221    1.904   1_565 S
W38    O158    2.030   .     S
W38    O182    1.808   .     S
W38    O190    1.923   .     S
W38    O169    2.311   1_565 S
W38    O219    1.898   1_565 S
W39    O155    1.919   .     S
W39    O159    2.284   .     S
W39    O185    1.990   .     S
W39    O198    2.070   .     S
W39    O216    1.806   .     S
W40    O160    1.940   .     S
W40    O192    1.918   .     S
W40    O199    2.231   .     S
W40    O218    1.896   .     S
W40    O150    1.888   1_655 S
W41    O152    1.796   .     S
W41    O162    1.932   .     S
W41    O172    2.127   .     S
W41    O192    1.902   .     S
W41    O220    2.312   .     S
W42    O149    1.921   .     S
W42    O170    1.945   .     S
W42    O181    1.757   .     S
W42    O225    1.896   .     S
W42    O232    2.197   .     S
W42    O147    1.912   1_655 S
W43    O161    2.226   .     S
W43    O179    2.114   .     S
W43    O197    1.724   .     S
W43    O198    1.805   .     S
W43    O207    1.925   .     S
W43    O222    1.897   .     S
W44    O156    1.939   .     S
W44    O163    2.068   .     S
W44    O167    1.823   .     S
W44    O171    1.834   .     S
W44    O193    1.727   .     S
W44    O210    2.214   .     S
W45    O146    1.919   .     S
W45    O157    1.862   .     S
W45    O195    1.921   .     S
W45    O203    2.233   .     S
W45    O227    1.932   .     S
W46    O150    1.899   .     S
W46    O153    1.876   .     S
W46    O180    1.967   .     S
W46    O190    1.908   .     S
W46    O191    2.198   .     S
W47    O143    2.099   .     S
W47    O170    1.858   .     S
W47    O187    2.212   .     S
W47    O221    1.953   .     S
W47    O175    1.801   1_655 S
W48    O175    2.068   .     S
W48    O194    1.893   .     S
W48    O224    2.281   .     S
W48    O228    1.813   .     S
W48    O229    1.906   .     S
W49    O154    1.818   .     S
W49    O183    2.065   .     S
W49    O204    1.735   .     S
W49    O217    1.868   .     S
W49    O144    1.916   1_545 S
W49    O165    2.229   1_545 S
W50    O148    1.955   .     S
W50    O153    1.922   .     S
W50    O185    1.837   .     S
W50    O206    1.902   .     S
W50    O213    1.750   .     S
W50    O214    2.145   .     S
W51    O142    1.911   .     S
W51    O160    1.839   .     S
W51    O166    2.193   .     S
W51    O168    1.900   .     S
W51    O171    1.964   .     S
W51    O205    1.694   .     S
W52    O145    1.920   .     S
W52    O173    1.902   .     S
W52    O188    1.931   .     S
W52    O200    1.670   .     S
W52    O202    2.156   .     S
W52    O225    1.882   .     S
W53    O164    1.845   .     S
W53    O208    1.688   .     S
W53    O223    2.041   .     S
W53    O161    2.293   1_545 S
W53    O183    1.829   1_455 S
W53    O207    1.931   1_545 S
W54    O144    1.980   .     S
W54    O165    2.283   .     S
W54    O167    2.034   .     S
W54    O189    1.867   .     S
W54    O179    1.789   1_655 S
W55    O151    1.932   .     S
W55    O169    2.207   .     S
W55    O184    1.769   .     S
W55    O211    1.811   .     S
W55    O219    1.970   .     S
W55    O228    2.090   .     S
W56    O154    2.033   .     S
W56    O173    1.924   .     S
W56    O212    1.799   .     S
W56    O234    1.754   .     S
W56    O156    1.909   1_545 S
W56    O210    2.251   1_545 S
W57    O143    1.812   .     S
W57    O149    1.899   .     S
W57    O215    1.725   .     S
W57    O233    1.989   .     S
W57    O162    1.919   1_545 S
W57    O220    2.274   1_545 S
W58    O146    1.897   .     S
W58    O211    2.061   .     S
W58    O230    1.806   .     S
W58    O176    1.948   1_545 S
W58    O226    2.265   1_545 S
W59    O223    1.839   .     S
W59    O227    1.881   .     S
W59    O230    2.083   .     S
W59    O155    1.985   1_545 S
W59    O159    2.302   1_545 S
W60    O188    1.905   .     S
W60    O212    2.114   .     S
W60    O233    1.855   .     S
W60    O177    1.930   1_545 S
W60    O201    2.247   1_545 S
W61    O260    1.904   .     S
W61    O270    2.077   .     S
W61    O281    1.833   .     S
W61    O295    1.954   .     S
W61    O319    2.278   .     S
W61    O353    1.710   .     S
W62    O265    1.869   .     S
W62    O269    1.914   .     S
W62    O275    1.925   .     S
W62    O304    2.168   .     S
W62    O347    1.894   .     S
W62    O349    1.730   .     S
W63    O266    1.871   .     S
W63    O276    1.845   .     S
W63    O292    1.763   .     S
W63    O294    1.953   .     S
W63    O334    2.102   .     S
W63    O344    2.269   .     S
W64    O298    1.834   .     S
W64    O300    2.115   .     S
W64    O312    1.952   .     S
W64    O327    1.807   .     S
W64    O342    2.234   .     S
W65    O263    1.900   .     S
W65    O282    1.947   .     S
W65    O313    1.875   .     S
W65    O314    2.191   .     S
W65    O335    1.948   .     S
W66    O286    1.879   .     S
W66    O296    2.176   .     S
W66    O307    1.939   .     S
W66    O324    1.894   .     S
W66    O340    1.948   .     S
W67    O290    1.819   .     S
W67    O305    2.298   .     S
W67    O327    2.043   .     S
W67    O336    1.902   .     S
W67    O339    1.904   .     S
W68    O276    2.030   .     S
W68    O287    2.311   .     S
W68    O300    1.808   .     S
W68    O308    1.923   .     S
W68    O337    1.898   .     S
W69    O273    1.919   .     S
W69    O277    2.284   .     S
W69    O303    1.990   .     S
W69    O316    2.070   .     S
W69    O334    1.806   .     S
W70    O268    1.888   .     S
W70    O278    1.940   .     S
W70    O310    1.918   .     S
W70    O317    2.231   .     S
W70    O336    1.896   .     S
W71    O270    1.796   .     S
W71    O280    1.932   .     S
W71    O290    2.127   .     S
W71    O310    1.902   .     S
W71    O338    2.312   .     S
W72    O265    1.912   .     S
W72    O267    1.921   .     S
W72    O288    1.945   .     S
W72    O299    1.757   .     S
W72    O343    1.896   .     S
W72    O350    2.197   .     S
W73    O279    2.226   .     S
W73    O297    2.114   .     S
W73    O315    1.724   .     S
W73    O316    1.805   .     S
W73    O325    1.925   .     S
W73    O340    1.897   .     S
W74    O274    1.939   .     S
W74    O281    2.068   .     S
W74    O285    1.823   .     S
W74    O289    1.834   .     S
W74    O311    1.727   .     S
W74    O328    2.214   .     S
W75    O264    1.919   .     S
W75    O275    1.862   .     S
W75    O313    1.921   .     S
W75    O321    2.233   .     S
W75    O345    1.932   .     S
W76    O268    1.899   .     S
W76    O271    1.876   .     S
W76    O298    1.967   .     S
W76    O308    1.908   .     S
W76    O309    2.198   .     S
W77    O261    2.099   .     S
W77    O288    1.858   .     S
W77    O293    1.801   .     S
W77    O305    2.212   .     S
W77    O339    1.953   .     S
W78    O293    2.068   .     S
W78    O312    1.893   .     S
W78    O342    2.281   .     S
W78    O346    1.813   .     S
W78    O347    1.906   .     S
W79    O262    1.916   .     S
W79    O272    1.818   .     S
W79    O283    2.229   .     S
W79    O301    2.065   .     S
W79    O322    1.735   .     S
W79    O335    1.868   .     S
W80    O266    1.955   .     S
W80    O271    1.922   .     S
W80    O303    1.837   .     S
W80    O324    1.902   .     S
W80    O331    1.750   .     S
W80    O332    2.145   .     S
W81    O260    1.911   .     S
W81    O278    1.839   .     S
W81    O284    2.193   .     S
W81    O286    1.900   .     S
W81    O289    1.964   .     S
W81    O323    1.694   .     S
W82    O263    1.920   .     S
W82    O291    1.902   .     S
W82    O306    1.931   .     S
W82    O318    1.670   .     S
W82    O320    2.156   .     S
W82    O343    1.882   .     S
W83    O279    2.293   .     S
W83    O282    1.845   .     S
W83    O301    1.829   .     S
W83    O325    1.931   .     S
W83    O326    1.688   .     S
W83    O341    2.041   .     S
W84    O262    1.980   .     S
W84    O283    2.283   .     S
W84    O285    2.034   .     S
W84    O297    1.789   .     S
W84    O307    1.867   .     S
W85    O269    1.932   .     S
W85    O287    2.207   .     S
W85    O302    1.769   .     S
W85    O329    1.811   .     S
W85    O337    1.970   .     S
W85    O346    2.090   .     S
W86    O272    2.033   .     S
W86    O274    1.909   .     S
W86    O291    1.924   .     S
W86    O328    2.251   .     S
W86    O330    1.799   .     S
W86    O352    1.754   .     S
W87    O261    1.812   .     S
W87    O267    1.899   .     S
W87    O280    1.919   .     S
W87    O333    1.725   .     S
W87    O338    2.274   .     S
W87    O351    1.989   .     S
W88    O264    1.897   .     S
W88    O294    1.948   .     S
W88    O329    2.061   .     S
W88    O344    2.265   .     S
W88    O348    1.806   .     S
W89    O273    1.985   .     S
W89    O277    2.302   .     S
W89    O341    1.839   .     S
W89    O345    1.881   .     S
W89    O348    2.083   .     S
W90    O295    1.930   .     S
W90    O306    1.905   .     S
W90    O319    2.247   .     S
W90    O330    2.114   .     S
W90    O351    1.855   .     S
W91    O378    1.904   .     S
W91    O388    2.077   .     S
W91    O399    1.833   .     S
W91    O413    1.954   .     S
W91    O437    2.278   .     S
W91    O471    1.710   .     S
W92    O383    1.869   .     S
W92    O387    1.914   .     S
W92    O393    1.925   .     S
W92    O422    2.168   .     S
W92    O465    1.894   .     S
W92    O467    1.730   .     S
W93    O384    1.871   .     S
W93    O394    1.845   .     S
W93    O410    1.763   .     S
W93    O412    1.953   .     S
W93    O452    2.102   .     S
W93    O462    2.269   .     S
W94    O416    1.834   .     S
W94    O418    2.115   .     S
W94    O430    1.952   .     S
W94    O445    1.807   .     S
W94    O460    2.234   .     S
W95    O400    1.947   .     S
W95    O431    1.875   .     S
W95    O432    2.191   .     S
W95    O381    1.900   1_655 S
W95    O453    1.948   1_655 S
W96    O414    2.176   .     S
W96    O442    1.894   .     S
W96    O458    1.948   .     S
W96    O404    1.879   1_655 S
W96    O425    1.939   1_655 S
W97    O408    1.819   .     S
W97    O423    2.298   .     S
W97    O454    1.902   .     S
W97    O457    1.904   .     S
W97    O445    2.043   1_455 S
W98    O394    2.030   .     S
W98    O405    2.311   .     S
W98    O426    1.923   .     S
W98    O455    1.898   .     S
W98    O418    1.808   1_554 S
W99    O391    1.919   .     S
W99    O395    2.284   .     S
W99    O421    1.990   .     S
W99    O434    2.070   .     S
W99    O452    1.806   .     S
W100   O396    1.940   .     S
W100   O428    1.918   .     S
W100   O435    2.231   .     S
W100   O386    1.888   1_455 S
W100   O454    1.896   1_554 S
W101   O388    1.796   .     S
W101   O428    1.902   .     S
W101   O456    2.312   .     S
W101   O398    1.932   1_554 S
W101   O408    2.127   1_554 S
W102   O385    1.921   .     S
W102   O417    1.757   .     S
W102   O461    1.896   .     S
W102   O468    2.197   .     S
W102   O383    1.912   1_455 S
W102   O406    1.945   1_554 S
W103   O397    2.226   .     S
W103   O415    2.114   .     S
W103   O433    1.724   .     S
W103   O434    1.805   .     S
W103   O443    1.925   .     S
W103   O458    1.897   .     S
W104   O392    1.939   .     S
W104   O399    2.068   .     S
W104   O403    1.823   .     S
W104   O407    1.834   .     S
W104   O429    1.727   .     S
W104   O446    2.214   .     S
W105   O382    1.919   .     S
W105   O393    1.862   .     S
W105   O431    1.921   .     S
W105   O439    2.233   .     S
W105   O463    1.932   .     S
W106   O386    1.899   .     S
W106   O389    1.876   .     S
W106   O426    1.908   .     S
W106   O427    2.198   .     S
W106   O416    1.967   1_554 S
W107   O379    2.099   .     S
W107   O406    1.858   .     S
W107   O423    2.212   .     S
W107   O457    1.953   .     S
W107   O411    1.801   1_455 S
W108   O411    2.068   .     S
W108   O430    1.893   .     S
W108   O460    2.281   .     S
W108   O464    1.813   .     S
W108   O465    1.906   1_556 S
W109   O380    1.916   .     S
W109   O390    1.818   .     S
W109   O401    2.229   .     S
W109   O419    2.065   .     S
W109   O440    1.735   .     S
W109   O453    1.868   .     S
W110   O384    1.955   .     S
W110   O389    1.922   .     S
W110   O421    1.837   .     S
W110   O442    1.902   .     S
W110   O449    1.750   .     S
W110   O450    2.145   .     S
W111   O378    1.911   .     S
W111   O396    1.839   .     S
W111   O402    2.193   .     S
W111   O404    1.900   .     S
W111   O407    1.964   .     S
W111   O441    1.694   .     S
W112   O381    1.920   .     S
W112   O409    1.902   .     S
W112   O424    1.931   .     S
W112   O436    1.670   .     S
W112   O438    2.156   .     S
W112   O461    1.882   .     S
W113   O397    2.293   .     S
W113   O400    1.845   .     S
W113   O443    1.931   .     S
W113   O444    1.688   .     S
W113   O459    2.041   .     S
W113   O419    1.829   1_655 S
W114   O380    1.980   .     S
W114   O401    2.283   .     S
W114   O403    2.034   .     S
W114   O425    1.867   .     S
W114   O415    1.789   1_455 S
W115   O387    1.932   .     S
W115   O405    2.207   .     S
W115   O420    1.769   .     S
W115   O447    1.811   .     S
W115   O455    1.970   .     S
W115   O464    2.090   1_554 S
W116   O390    2.033   .     S
W116   O392    1.909   .     S
W116   O409    1.924   .     S
W116   O446    2.251   .     S
W116   O448    1.799   .     S
W116   O470    1.754   .     S
W117   O385    1.899   .     S
W117   O456    2.274   .     S
W117   O469    1.989   .     S
W117   O379    1.812   1_554 S
W117   O398    1.919   1_554 S
W117   O451    1.725   1_554 S
W118   O382    1.897   .     S
W118   O412    1.948   .     S
W118   O447    2.061   .     S
W118   O462    2.265   .     S
W118   O466    1.806   .     S
W119   O391    1.985   .     S
W119   O395    2.302   .     S
W119   O459    1.839   .     S
W119   O463    1.881   .     S
W119   O466    2.083   .     S
W120   O413    1.930   .     S
W120   O424    1.905   .     S
W120   O437    2.247   .     S
W120   O448    2.114   .     S
W120   O469    1.855   .     S
C1     C14     1.398   .     S
C1     O12     1.463   .     S
C2     C7      1.492   .     S
C2     O13     1.222   .     S
C2     O15     1.293   .     D
C3     C8      1.593   .     S
C3     O17     1.409   .     S
C3     H4      0.976   1_655 S
C4     O21     1.223   .     A
C4     C9      1.548   1_455 S
C4     O20     1.272   1_455 S
C5     C12     1.433   .     S
C5     O23     1.430   .     S
C6     C10     1.546   .     S
C6     O4      1.440   .     S
C7     O9      1.546   .     S
C8     O3      1.352   .     A
C8     O16     1.203   .     A
C9     C4      1.548   1_655 S
C9     O22     1.380   1_655 S
C10    O10     1.262   .     A
C10    O11     1.235   .     A
C11    C13     1.434   .     S
C11    O7      1.208   .     A
C11    O8      1.357   .     A
C12    O1      1.301   .     A
C12    O2      1.297   .     A
C13    O6      1.467   .     S
C14    O5      1.303   .     D
C14    O14     1.382   .     S
C15    C28     1.398   .     S
C15    O130    1.463   .     S
C16    C21     1.492   .     S
C16    O131    1.222   .     S
C16    O133    1.293   .     D
C17    C22     1.593   .     S
C17    O135    1.409   .     S
C18    C23     1.548   .     S
C18    O138    1.272   .     A
C18    O139    1.223   .     A
C19    C26     1.433   .     S
C19    O141    1.430   .     S
C20    C24     1.546   .     S
C20    O122    1.440   .     S
C21    O127    1.546   .     S
C22    O121    1.352   .     A
C22    O134    1.203   .     A
C23    O140    1.380   .     S
C24    O128    1.262   .     A
C24    O129    1.235   .     A
C25    C27     1.434   .     S
C25    O125    1.208   .     A
C25    O126    1.357   1_455 S
C26    O119    1.301   .     A
C26    O120    1.297   .     A
C27    O124    1.467   .     S
C28    O123    1.303   .     D
C28    O132    1.382   .     S
C29    C42     1.398   .     S
C29    O248    1.463   .     S
C30    C35     1.492   .     S
C30    O249    1.222   .     S
C30    O251    1.293   .     D
C31    C36     1.593   .     S
C31    O253    1.409   .     S
C31    H32     0.976   1_455 S
C32    O257    1.223   .     A
C32    C37     1.548   1_655 S
C32    O256    1.272   1_655 S
C33    C40     1.433   .     S
C33    O259    1.430   .     S
C34    C38     1.546   .     S
C34    O240    1.440   .     S
C35    O245    1.546   .     S
C36    O239    1.352   .     A
C36    O252    1.203   .     A
C37    C32     1.548   1_455 S
C37    O258    1.380   1_455 S
C38    O246    1.262   .     A
C38    O247    1.235   .     A
C39    C41     1.434   .     S
C39    O243    1.208   .     A
C39    O244    1.357   .     A
C40    O237    1.301   .     A
C40    O238    1.297   .     A
C41    O242    1.467   .     S
C42    O241    1.303   .     D
C42    O250    1.382   .     S
C43    C56     1.398   .     S
C43    O366    1.463   .     S
C44    C49     1.492   .     S
C44    O367    1.222   .     S
C44    O369    1.293   .     D
C45    C50     1.593   .     S
C45    O371    1.409   .     S
C46    C51     1.548   .     S
C46    O374    1.272   .     A
C46    O375    1.223   .     A
C47    C54     1.433   .     S
C47    O377    1.430   .     S
C48    C52     1.546   .     S
C48    O358    1.440   .     S
C49    O363    1.546   .     S
C50    O357    1.352   .     A
C50    O370    1.203   .     A
C51    O376    1.380   .     S
C52    O364    1.262   .     A
C52    O365    1.235   .     A
C53    C55     1.434   .     S
C53    O361    1.208   .     A
C53    O362    1.357   1_655 S
C54    O355    1.301   .     A
C54    O356    1.297   .     A
C55    O360    1.467   .     S
C56    O359    1.303   .     D
C56    O368    1.382   .     S
O1     Sm1     2.362   1_554 S
O4     Sm6     2.522   1_455 S
O10    Sm6     2.462   1_455 S
O18    Na4     2.606   1_654 S
O18    Sm19    2.619   1_655 S
O20    Sm19    2.606   1_655 S
O20    C4      1.272   1_655 S
O22    C9      1.380   1_455 S
O25    W27     1.812   1_554 S
O26    W19     1.916   1_545 S
O37    W29     1.985   1_545 S
O38    W26     1.909   1_545 S
O41    W29     2.302   1_545 S
O43    W23     2.293   1_545 S
O44    W11     1.932   1_554 S
O44    W27     1.919   1_544 S
O47    W19     2.229   1_545 S
O51    P2      1.577   1_565 S
O51    W8      2.311   1_565 S
O52    W12     1.945   1_554 S
O54    W11     2.127   1_554 S
O56    Sm6     2.500   1_455 S
O58    W28     1.948   1_545 S
O59    W30     1.930   1_545 S
O62    W16     1.967   1_554 S
O64    W8      1.808   1_554 S
O66    Sm19    2.380   1_556 S
O68    P2      1.521   1_565 S
O69    P3      1.585   1_564 S
O69    W7      2.298   1_565 S
O76    W4      1.952   1_565 S
O78    P1      1.523   1_565 S
O83    W30     2.247   1_545 S
O84    P5      1.538   1_565 S
O85    P4      1.536   1_565 S
O89    W23     1.931   1_545 S
O92    W26     2.251   1_545 S
O97    W27     1.725   1_554 S
O100   W10     1.896   1_554 S
O101   W8      1.898   1_565 S
O102   W27     2.274   1_545 S
O103   W7      1.904   1_565 S
O106   P2      1.582   1_564 S
O106   W4      2.234   1_565 S
O108   W28     2.265   1_545 S
O110   W25     2.090   1_554 S
O111   W18     1.906   1_556 S
O114   P3      1.509   1_565 S
O126   C25     1.357   1_655 S
O137   Sm7     2.437   1_455 S
O144   W49     1.916   1_565 S
O145   W35     1.900   1_655 S
O147   W42     1.912   1_455 S
O150   W40     1.888   1_455 S
O155   W59     1.985   1_565 S
O156   W56     1.909   1_565 S
O159   W59     2.302   1_565 S
O160   Na10    2.872   1_655 S
O161   W53     2.293   1_565 S
O162   W57     1.919   1_565 S
O165   P6      1.589   1_655 S
O165   W49     2.229   1_565 S
O166   Na6     2.640   1_655 S
O166   Na10    2.757   1_655 S
O168   Na10    2.784   1_655 S
O168   W36     1.879   1_655 S
O169   P7      1.577   1_545 S
O169   W38     2.311   1_545 S
O175   W47     1.801   1_455 S
O176   W58     1.948   1_565 S
O177   W60     1.930   1_565 S
O179   W54     1.789   1_455 S
O183   W53     1.829   1_655 S
O186   P7      1.521   1_545 S
O187   P8      1.585   1_545 S
O187   W37     2.298   1_545 S
O189   W36     1.939   1_655 S
O194   W34     1.952   1_545 S
O196   P6      1.523   1_545 S
O199   Na6     2.589   1_655 S
O199   Na10    2.745   1_655 S
O201   W60     2.247   1_565 S
O202   P10     1.538   1_545 S
O203   P9      1.536   1_545 S
O207   W53     1.931   1_565 S
O209   W37     2.043   1_455 S
O210   W56     2.251   1_565 S
O217   W35     1.948   1_655 S
O219   W38     1.898   1_545 S
O220   W57     2.274   1_565 S
O221   W37     1.904   1_545 S
O224   P7      1.582   1_545 S
O224   W34     2.234   1_545 S
O226   W58     2.265   1_565 S
O232   P8      1.509   1_545 S
O240   Sm18    2.522   1_655 S
O246   Sm18    2.462   1_655 S
O254   Na14    2.606   1_455 S
O254   Sm7     2.619   1_455 S
O256   Sm7     2.606   1_455 S
O256   C32     1.272   1_455 S
O258   C37     1.380   1_655 S
O292   Sm18    2.500   1_655 S
O355   Sm19    2.362   1_556 S
O362   C53     1.357   1_455 S
O372   Na19    2.606   1_556 S
O373   Sm19    2.437   1_655 S
O379   W117    1.812   1_556 S
O381   W95     1.900   1_455 S
O383   W102    1.912   1_655 S
O386   W100    1.888   1_655 S
O396   Na20    2.872   1_455 S
O398   W101    1.932   1_556 S
O398   W117    1.919   1_556 S
O401   P16     1.589   1_455 S
O402   Na16    2.640   1_455 S
O402   Na20    2.757   1_455 S
O404   Na20    2.784   1_455 S
O404   W96     1.879   1_455 S
O406   W102    1.945   1_556 S
O408   W101    2.127   1_556 S
O411   W107    1.801   1_655 S
O415   W114    1.789   1_655 S
O416   W106    1.967   1_556 S
O418   W98     1.808   1_556 S
O419   W113    1.829   1_455 S
O420   Sm1     2.380   1_554 S
O423   P18     1.585   1_556 S
O425   W96     1.939   1_455 S
O435   Na16    2.589   1_455 S
O435   Na20    2.745   1_455 S
O445   W97     2.043   1_655 S
O451   W117    1.725   1_556 S
O453   W95     1.948   1_455 S
O454   W100    1.896   1_556 S
O460   P17     1.582   1_556 S
O464   W115    2.090   1_556 S
O465   W108    1.906   1_554 S
