data_image0
_cell_length_a       21.769
_cell_length_b       21.769
_cell_length_c       44.426
_cell_angle_alpha    90
_cell_angle_beta     90
_cell_angle_gamma    90

_symmetry_space_group_name_H-M    "P 1"
_symmetry_int_tables_number       1

loop_
  _symmetry_equiv_pos_as_xyz
  'x, y, z'

loop_
  _atom_site_label
  _atom_site_occupancy
  _atom_site_fract_x
  _atom_site_fract_y
  _atom_site_fract_z
  _atom_site_thermal_displace_type
  _atom_site_B_iso_or_equiv
  _atom_site_type_symbol
  Cd1      1.0000 0.88045  0.61822  0.07603  Biso   1.000  Cd
  O1       1.0000 0.92530  0.54039  0.04591  Biso   1.000  O
  O2       1.0000 0.83430  0.57420  0.03186  Biso   1.000  O
  O3       1.0000 0.92087  0.20440  0.85302  Biso   1.000  O
  O4       1.0000 0.82160  0.19282  0.85924  Biso   1.000  O
  O5       1.0000 0.94900  0.34400  0.98338  Biso   1.000  O
  O6       1.0000 0.77340  0.33460  0.94711  Biso   1.000  O
  O7       1.0000 0.95580  0.57520  0.10868  Biso   1.000  O
  O8       1.0000 0.94482  0.67245  0.11198  Biso   1.000  O
  O9       1.0000 0.29894  0.61070  0.29876  Biso   1.000  O
  O10      1.0000 0.21657  0.62480  0.32801  Biso   1.000  O
  O11      1.0000 0.13780  0.53750  0.18368  Biso   1.000  O
  O12      1.0000 0.05330  0.62890  0.25550  Biso   1.000  O
  C1       1.0000 0.88260  0.53790  0.02968  Biso   1.000  C
  C2       1.0000 0.88090  0.49290  0.00347  Biso   1.000  C
  C3       1.0000 0.83460  0.49260  0.98234  Biso   1.000  C
  H1       1.0000 0.80360  0.52190  0.98340  Biso   1.000  H
  C4       1.0000 0.83370  0.44970  0.95987  Biso   1.000  C
  H2       1.0000 0.80200  0.45110  0.94580  Biso   1.000  H
  C5       1.0000 0.87750  0.40490  0.95715  Biso   1.000  C
  C6       1.0000 0.91570  0.39970  0.98354  Biso   1.000  C
  C7       1.0000 0.92040  0.44340  0.00347  Biso   1.000  C
  H3       1.0000 0.95100  0.44110  0.01800  Biso   1.000  H
  C8       1.0000 0.87300  0.35840  0.93309  Biso   1.000  C
  C9       1.0000 0.92260  0.34730  0.91612  Biso   1.000  C
  H4       1.0000 0.95780  0.37050  0.91950  Biso   1.000  H
  C10      1.0000 0.92420  0.30140  0.89294  Biso   1.000  C
  H5       1.0000 0.95950  0.29550  0.88150  Biso   1.000  H
  C11      1.0000 0.87260  0.26620  0.88795  Biso   1.000  C
  C12      1.0000 0.82100  0.27960  0.90583  Biso   1.000  C
  H6       1.0000 0.78440  0.25910  0.90200  Biso   1.000  H
  C13      1.0000 0.82300  0.32290  0.92919  Biso   1.000  C
  C14      1.0000 0.87140  0.21620  0.86590  Biso   1.000  C
  C15      1.0000 0.99180  0.33090  0.01220  Biso   1.000  C
  H7       1.0000 0.01310  0.29260  0.00950  Biso   1.000  H
  H8       1.0000 0.96670  0.32860  0.03000  Biso   1.000  H
  H9       1.0000 0.02110  0.36350  0.01440  Biso   1.000  H
  C16      1.0000 0.74030  0.32370  0.97970  Biso   1.000  C
  H10      1.0000 0.74160  0.36110  0.99110  Biso   1.000  H
  H11      1.0000 0.76150  0.29190  0.99040  Biso   1.000  H
  H12      1.0000 0.69830  0.31180  0.97660  Biso   1.000  H
  C17      1.0000 0.97050  0.62630  0.12078  Biso   1.000  C
  C18      1.0000 0.01340  0.62800  0.14643  Biso   1.000  C
  C19      1.0000 0.04980  0.57620  0.15337  Biso   1.000  C
  H13      1.0000 0.04560  0.53950  0.14280  Biso   1.000  H
  C20      1.0000 0.09290  0.58240  0.17710  Biso   1.000  C
  C21      1.0000 0.09080  0.62850  0.19721  Biso   1.000  C
  C22      1.0000 0.06380  0.68140  0.18687  Biso   1.000  C
  H14      1.0000 0.07340  0.71860  0.19600  Biso   1.000  H
  C23      1.0000 0.02170  0.68040  0.16277  Biso   1.000  C
  H15      1.0000 0.99960  0.71560  0.15800  Biso   1.000  H
  C24      1.0000 0.13240  0.62790  0.22397  Biso   1.000  C
  C25      1.0000 0.10750  0.63590  0.25270  Biso   1.000  C
  C26      1.0000 0.14140  0.63870  0.27780  Biso   1.000  C
  H16      1.0000 0.12390  0.65060  0.29600  Biso   1.000  H
  C27      1.0000 0.20380  0.62330  0.27604  Biso   1.000  C
  C28      1.0000 0.23050  0.62100  0.24730  Biso   1.000  C
  H17      1.0000 0.27300  0.62170  0.24530  Biso   1.000  H
  C29      1.0000 0.19420  0.61770  0.22239  Biso   1.000  C
  C30      1.0000 0.24360  0.61830  0.30343  Biso   1.000  C
  C31      1.0000 0.17040  0.51540  0.15490  Biso   1.000  C
  H18      1.0000 0.19730  0.48180  0.15970  Biso   1.000  H
  H19      1.0000 0.19400  0.54850  0.14650  Biso   1.000  H
  H20      1.0000 0.14030  0.50210  0.14050  Biso   1.000  H
  C32      1.0000 0.01600  0.65120  0.27930  Biso   1.000  C
  H21      1.0000 0.98150  0.67290  0.27110  Biso   1.000  H
  H22      1.0000 0.03960  0.67840  0.29170  Biso   1.000  H
  H23      1.0000 0.00160  0.61730  0.29110  Biso   1.000  H
  C33      1.0000 0.71810  0.30060  0.94220  Biso   1.000  C
  H24      1.0000 0.70860  0.30040  0.92110  Biso   1.000  H
  H25      1.0000 0.68500  0.31940  0.95310  Biso   1.000  H
  H26      1.0000 0.72360  0.25910  0.94910  Biso   1.000  H
  C34      1.0000 0.13060  0.48210  0.16480  Biso   1.000  C
  H27      1.0000 0.10590  0.45250  0.17530  Biso   1.000  H
  H28      1.0000 0.17030  0.46480  0.16070  Biso   1.000  H
  H29      1.0000 0.11100  0.49300  0.14620  Biso   1.000  H
  O13      1.0000 0.22030  0.61400  0.19440  Biso   1.000  O
  Cd2      1.0000 0.38045  0.11822  0.57603  Biso   1.000  Cd
  O14      1.0000 0.42530  0.04039  0.54591  Biso   1.000  O
  O15      1.0000 0.33430  0.07420  0.53186  Biso   1.000  O
  O16      1.0000 0.42087  0.70440  0.35302  Biso   1.000  O
  O17      1.0000 0.32160  0.69282  0.35924  Biso   1.000  O
  O18      1.0000 0.44900  0.84400  0.48338  Biso   1.000  O
  O19      1.0000 0.27340  0.83460  0.44711  Biso   1.000  O
  O20      1.0000 0.45580  0.07520  0.60868  Biso   1.000  O
  O21      1.0000 0.44482  0.17245  0.61198  Biso   1.000  O
  O22      1.0000 0.79894  0.11070  0.79876  Biso   1.000  O
  O23      1.0000 0.71657  0.12480  0.82801  Biso   1.000  O
  O24      1.0000 0.63780  0.03750  0.68368  Biso   1.000  O
  O25      1.0000 0.55330  0.12890  0.75550  Biso   1.000  O
  C35      1.0000 0.38260  0.03790  0.52968  Biso   1.000  C
  C36      1.0000 0.38090  0.99290  0.50347  Biso   1.000  C
  C37      1.0000 0.33460  0.99260  0.48234  Biso   1.000  C
  H30      1.0000 0.30360  0.02190  0.48340  Biso   1.000  H
  C38      1.0000 0.33370  0.94970  0.45987  Biso   1.000  C
  H31      1.0000 0.30200  0.95110  0.44580  Biso   1.000  H
  C39      1.0000 0.37750  0.90490  0.45715  Biso   1.000  C
  C40      1.0000 0.41570  0.89970  0.48354  Biso   1.000  C
  C41      1.0000 0.42040  0.94340  0.50347  Biso   1.000  C
  H32      1.0000 0.45100  0.94110  0.51800  Biso   1.000  H
  C42      1.0000 0.37300  0.85840  0.43309  Biso   1.000  C
  C43      1.0000 0.42260  0.84730  0.41612  Biso   1.000  C
  H33      1.0000 0.45780  0.87050  0.41950  Biso   1.000  H
  C44      1.0000 0.42420  0.80140  0.39294  Biso   1.000  C
  H34      1.0000 0.45950  0.79550  0.38150  Biso   1.000  H
  C45      1.0000 0.37260  0.76620  0.38795  Biso   1.000  C
  C46      1.0000 0.32100  0.77960  0.40583  Biso   1.000  C
  H35      1.0000 0.28440  0.75910  0.40200  Biso   1.000  H
  C47      1.0000 0.32300  0.82290  0.42919  Biso   1.000  C
  C48      1.0000 0.37140  0.71620  0.36590  Biso   1.000  C
  C49      1.0000 0.49180  0.83090  0.51220  Biso   1.000  C
  H36      1.0000 0.51310  0.79260  0.50950  Biso   1.000  H
  H37      1.0000 0.46670  0.82860  0.53000  Biso   1.000  H
  H38      1.0000 0.52110  0.86350  0.51440  Biso   1.000  H
  C50      1.0000 0.24030  0.82370  0.47970  Biso   1.000  C
  H39      1.0000 0.24160  0.86110  0.49110  Biso   1.000  H
  H40      1.0000 0.26150  0.79190  0.49040  Biso   1.000  H
  H41      1.0000 0.19830  0.81180  0.47660  Biso   1.000  H
  C51      1.0000 0.47050  0.12630  0.62078  Biso   1.000  C
  C52      1.0000 0.51340  0.12800  0.64643  Biso   1.000  C
  C53      1.0000 0.54980  0.07620  0.65337  Biso   1.000  C
  H42      1.0000 0.54560  0.03950  0.64280  Biso   1.000  H
  C54      1.0000 0.59290  0.08240  0.67710  Biso   1.000  C
  C55      1.0000 0.59080  0.12850  0.69721  Biso   1.000  C
  C56      1.0000 0.56380  0.18140  0.68687  Biso   1.000  C
  H43      1.0000 0.57340  0.21860  0.69600  Biso   1.000  H
  C57      1.0000 0.52170  0.18040  0.66277  Biso   1.000  C
  H44      1.0000 0.49960  0.21560  0.65800  Biso   1.000  H
  C58      1.0000 0.63240  0.12790  0.72397  Biso   1.000  C
  C59      1.0000 0.60750  0.13590  0.75270  Biso   1.000  C
  C60      1.0000 0.64140  0.13870  0.77780  Biso   1.000  C
  H45      1.0000 0.62390  0.15060  0.79600  Biso   1.000  H
  C61      1.0000 0.70380  0.12330  0.77604  Biso   1.000  C
  C62      1.0000 0.73050  0.12100  0.74730  Biso   1.000  C
  H46      1.0000 0.77300  0.12170  0.74530  Biso   1.000  H
  C63      1.0000 0.69420  0.11770  0.72239  Biso   1.000  C
  C64      1.0000 0.74360  0.11830  0.80343  Biso   1.000  C
  C65      1.0000 0.67040  0.01540  0.65490  Biso   1.000  C
  H47      1.0000 0.69730  0.98180  0.65970  Biso   1.000  H
  H48      1.0000 0.69400  0.04850  0.64650  Biso   1.000  H
  H49      1.0000 0.64030  0.00210  0.64050  Biso   1.000  H
  C66      1.0000 0.51600  0.15120  0.77930  Biso   1.000  C
  H50      1.0000 0.48150  0.17290  0.77110  Biso   1.000  H
  H51      1.0000 0.53960  0.17840  0.79170  Biso   1.000  H
  H52      1.0000 0.50160  0.11730  0.79110  Biso   1.000  H
  C67      1.0000 0.21810  0.80060  0.44220  Biso   1.000  C
  H53      1.0000 0.20860  0.80040  0.42110  Biso   1.000  H
  H54      1.0000 0.18500  0.81940  0.45310  Biso   1.000  H
  H55      1.0000 0.22360  0.75910  0.44910  Biso   1.000  H
  C68      1.0000 0.63060  0.98210  0.66480  Biso   1.000  C
  H56      1.0000 0.60590  0.95250  0.67530  Biso   1.000  H
  H57      1.0000 0.67030  0.96480  0.66070  Biso   1.000  H
  H58      1.0000 0.61100  0.99300  0.64620  Biso   1.000  H
  O26      1.0000 0.72030  0.11400  0.69440  Biso   1.000  O
  Cd3      1.0000 0.11955  0.38178  0.07603  Biso   1.000  Cd
  O27      1.0000 0.07470  0.45961  0.04591  Biso   1.000  O
  O28      1.0000 0.16570  0.42580  0.03186  Biso   1.000  O
  O29      1.0000 0.07913  0.79560  0.85302  Biso   1.000  O
  O30      1.0000 0.17840  0.80718  0.85924  Biso   1.000  O
  O31      1.0000 0.05100  0.65600  0.98338  Biso   1.000  O
  O32      1.0000 0.22660  0.66540  0.94711  Biso   1.000  O
  O33      1.0000 0.04420  0.42480  0.10868  Biso   1.000  O
  O34      1.0000 0.05518  0.32755  0.11198  Biso   1.000  O
  O35      1.0000 0.70106  0.38930  0.29876  Biso   1.000  O
  O36      1.0000 0.78343  0.37520  0.32801  Biso   1.000  O
  O37      1.0000 0.86220  0.46250  0.18368  Biso   1.000  O
  O38      1.0000 0.94670  0.37110  0.25550  Biso   1.000  O
  C69      1.0000 0.11740  0.46210  0.02968  Biso   1.000  C
  C70      1.0000 0.11910  0.50710  0.00347  Biso   1.000  C
  C71      1.0000 0.16540  0.50740  0.98234  Biso   1.000  C
  H59      1.0000 0.19640  0.47810  0.98340  Biso   1.000  H
  C72      1.0000 0.16630  0.55030  0.95987  Biso   1.000  C
  H60      1.0000 0.19800  0.54890  0.94580  Biso   1.000  H
  C73      1.0000 0.12250  0.59510  0.95715  Biso   1.000  C
  C74      1.0000 0.08430  0.60030  0.98354  Biso   1.000  C
  C75      1.0000 0.07960  0.55660  0.00347  Biso   1.000  C
  H61      1.0000 0.04900  0.55890  0.01800  Biso   1.000  H
  C76      1.0000 0.12700  0.64160  0.93309  Biso   1.000  C
  C77      1.0000 0.07740  0.65270  0.91612  Biso   1.000  C
  H62      1.0000 0.04220  0.62950  0.91950  Biso   1.000  H
  C78      1.0000 0.07580  0.69860  0.89294  Biso   1.000  C
  H63      1.0000 0.04050  0.70450  0.88150  Biso   1.000  H
  C79      1.0000 0.12740  0.73380  0.88795  Biso   1.000  C
  C80      1.0000 0.17900  0.72040  0.90583  Biso   1.000  C
  H64      1.0000 0.21560  0.74090  0.90200  Biso   1.000  H
  C81      1.0000 0.17700  0.67710  0.92919  Biso   1.000  C
  C82      1.0000 0.12860  0.78380  0.86590  Biso   1.000  C
  C83      1.0000 0.00820  0.66910  0.01220  Biso   1.000  C
  H65      1.0000 0.98690  0.70740  0.00950  Biso   1.000  H
  H66      1.0000 0.03330  0.67140  0.03000  Biso   1.000  H
  H67      1.0000 0.97890  0.63650  0.01440  Biso   1.000  H
  C84      1.0000 0.25970  0.67630  0.97970  Biso   1.000  C
  H68      1.0000 0.25840  0.63890  0.99110  Biso   1.000  H
  H69      1.0000 0.23850  0.70810  0.99040  Biso   1.000  H
  H70      1.0000 0.30170  0.68820  0.97660  Biso   1.000  H
  C85      1.0000 0.02950  0.37370  0.12078  Biso   1.000  C
  C86      1.0000 0.98660  0.37200  0.14643  Biso   1.000  C
  C87      1.0000 0.95020  0.42380  0.15337  Biso   1.000  C
  H71      1.0000 0.95440  0.46050  0.14280  Biso   1.000  H
  C88      1.0000 0.90710  0.41760  0.17710  Biso   1.000  C
  C89      1.0000 0.90920  0.37150  0.19721  Biso   1.000  C
  C90      1.0000 0.93620  0.31860  0.18687  Biso   1.000  C
  H72      1.0000 0.92660  0.28140  0.19600  Biso   1.000  H
  C91      1.0000 0.97830  0.31960  0.16277  Biso   1.000  C
  H73      1.0000 0.00040  0.28440  0.15800  Biso   1.000  H
  C92      1.0000 0.86760  0.37210  0.22397  Biso   1.000  C
  C93      1.0000 0.89250  0.36410  0.25270  Biso   1.000  C
  C94      1.0000 0.85860  0.36130  0.27780  Biso   1.000  C
  H74      1.0000 0.87610  0.34940  0.29600  Biso   1.000  H
  C95      1.0000 0.79620  0.37670  0.27604  Biso   1.000  C
  C96      1.0000 0.76950  0.37900  0.24730  Biso   1.000  C
  H75      1.0000 0.72700  0.37830  0.24530  Biso   1.000  H
  C97      1.0000 0.80580  0.38230  0.22239  Biso   1.000  C
  C98      1.0000 0.75640  0.38170  0.30343  Biso   1.000  C
  C99      1.0000 0.82960  0.48460  0.15490  Biso   1.000  C
  H76      1.0000 0.80270  0.51820  0.15970  Biso   1.000  H
  H77      1.0000 0.80600  0.45150  0.14650  Biso   1.000  H
  H78      1.0000 0.85970  0.49790  0.14050  Biso   1.000  H
  C100     1.0000 0.98400  0.34880  0.27930  Biso   1.000  C
  H79      1.0000 0.01850  0.32710  0.27110  Biso   1.000  H
  H80      1.0000 0.96040  0.32160  0.29170  Biso   1.000  H
  H81      1.0000 0.99840  0.38270  0.29110  Biso   1.000  H
  C101     1.0000 0.28190  0.69940  0.94220  Biso   1.000  C
  H82      1.0000 0.29140  0.69960  0.92110  Biso   1.000  H
  H83      1.0000 0.31500  0.68060  0.95310  Biso   1.000  H
  H84      1.0000 0.27640  0.74090  0.94910  Biso   1.000  H
  C102     1.0000 0.86940  0.51790  0.16480  Biso   1.000  C
  H85      1.0000 0.89410  0.54750  0.17530  Biso   1.000  H
  H86      1.0000 0.82970  0.53520  0.16070  Biso   1.000  H
  H87      1.0000 0.88900  0.50700  0.14620  Biso   1.000  H
  O39      1.0000 0.77970  0.38600  0.19440  Biso   1.000  O
  Cd4      1.0000 0.61955  0.88178  0.57603  Biso   1.000  Cd
  O40      1.0000 0.57470  0.95961  0.54591  Biso   1.000  O
  O41      1.0000 0.66570  0.92580  0.53186  Biso   1.000  O
  O42      1.0000 0.57913  0.29560  0.35302  Biso   1.000  O
  O43      1.0000 0.67840  0.30718  0.35924  Biso   1.000  O
  O44      1.0000 0.55100  0.15600  0.48338  Biso   1.000  O
  O45      1.0000 0.72660  0.16540  0.44711  Biso   1.000  O
  O46      1.0000 0.54420  0.92480  0.60868  Biso   1.000  O
  O47      1.0000 0.55518  0.82755  0.61198  Biso   1.000  O
  O48      1.0000 0.20106  0.88930  0.79876  Biso   1.000  O
  O49      1.0000 0.28343  0.87520  0.82801  Biso   1.000  O
  O50      1.0000 0.36220  0.96250  0.68368  Biso   1.000  O
  O51      1.0000 0.44670  0.87110  0.75550  Biso   1.000  O
  C103     1.0000 0.61740  0.96210  0.52968  Biso   1.000  C
  C104     1.0000 0.61910  0.00710  0.50347  Biso   1.000  C
  C105     1.0000 0.66540  0.00740  0.48234  Biso   1.000  C
  H88      1.0000 0.69640  0.97810  0.48340  Biso   1.000  H
  C106     1.0000 0.66630  0.05030  0.45987  Biso   1.000  C
  H89      1.0000 0.69800  0.04890  0.44580  Biso   1.000  H
  C107     1.0000 0.62250  0.09510  0.45715  Biso   1.000  C
  C108     1.0000 0.58430  0.10030  0.48354  Biso   1.000  C
  C109     1.0000 0.57960  0.05660  0.50347  Biso   1.000  C
  H90      1.0000 0.54900  0.05890  0.51800  Biso   1.000  H
  C110     1.0000 0.62700  0.14160  0.43309  Biso   1.000  C
  C111     1.0000 0.57740  0.15270  0.41612  Biso   1.000  C
  H91      1.0000 0.54220  0.12950  0.41950  Biso   1.000  H
  C112     1.0000 0.57580  0.19860  0.39294  Biso   1.000  C
  H92      1.0000 0.54050  0.20450  0.38150  Biso   1.000  H
  C113     1.0000 0.62740  0.23380  0.38795  Biso   1.000  C
  C114     1.0000 0.67900  0.22040  0.40583  Biso   1.000  C
  H93      1.0000 0.71560  0.24090  0.40200  Biso   1.000  H
  C115     1.0000 0.67700  0.17710  0.42919  Biso   1.000  C
  C116     1.0000 0.62860  0.28380  0.36590  Biso   1.000  C
  C117     1.0000 0.50820  0.16910  0.51220  Biso   1.000  C
  H94      1.0000 0.48690  0.20740  0.50950  Biso   1.000  H
  H95      1.0000 0.53330  0.17140  0.53000  Biso   1.000  H
  H96      1.0000 0.47890  0.13650  0.51440  Biso   1.000  H
  C118     1.0000 0.75970  0.17630  0.47970  Biso   1.000  C
  H97      1.0000 0.75840  0.13890  0.49110  Biso   1.000  H
  H98      1.0000 0.73850  0.20810  0.49040  Biso   1.000  H
  H99      1.0000 0.80170  0.18820  0.47660  Biso   1.000  H
  C119     1.0000 0.52950  0.87370  0.62078  Biso   1.000  C
  C120     1.0000 0.48660  0.87200  0.64643  Biso   1.000  C
  C121     1.0000 0.45020  0.92380  0.65337  Biso   1.000  C
  H100     1.0000 0.45440  0.96050  0.64280  Biso   1.000  H
  C122     1.0000 0.40710  0.91760  0.67710  Biso   1.000  C
  C123     1.0000 0.40920  0.87150  0.69721  Biso   1.000  C
  C124     1.0000 0.43620  0.81860  0.68687  Biso   1.000  C
  H101     1.0000 0.42660  0.78140  0.69600  Biso   1.000  H
  C125     1.0000 0.47830  0.81960  0.66277  Biso   1.000  C
  H102     1.0000 0.50040  0.78440  0.65800  Biso   1.000  H
  C126     1.0000 0.36760  0.87210  0.72397  Biso   1.000  C
  C127     1.0000 0.39250  0.86410  0.75270  Biso   1.000  C
  C128     1.0000 0.35860  0.86130  0.77780  Biso   1.000  C
  H103     1.0000 0.37610  0.84940  0.79600  Biso   1.000  H
  C129     1.0000 0.29620  0.87670  0.77604  Biso   1.000  C
  C130     1.0000 0.26950  0.87900  0.74730  Biso   1.000  C
  H104     1.0000 0.22700  0.87830  0.74530  Biso   1.000  H
  C131     1.0000 0.30580  0.88230  0.72239  Biso   1.000  C
  C132     1.0000 0.25640  0.88170  0.80343  Biso   1.000  C
  C133     1.0000 0.32960  0.98460  0.65490  Biso   1.000  C
  H105     1.0000 0.30270  0.01820  0.65970  Biso   1.000  H
  H106     1.0000 0.30600  0.95150  0.64650  Biso   1.000  H
  H107     1.0000 0.35970  0.99790  0.64050  Biso   1.000  H
  C134     1.0000 0.48400  0.84880  0.77930  Biso   1.000  C
  H108     1.0000 0.51850  0.82710  0.77110  Biso   1.000  H
  H109     1.0000 0.46040  0.82160  0.79170  Biso   1.000  H
  H110     1.0000 0.49840  0.88270  0.79110  Biso   1.000  H
  C135     1.0000 0.78190  0.19940  0.44220  Biso   1.000  C
  H111     1.0000 0.79140  0.19960  0.42110  Biso   1.000  H
  H112     1.0000 0.81500  0.18060  0.45310  Biso   1.000  H
  H113     1.0000 0.77640  0.24090  0.44910  Biso   1.000  H
  C136     1.0000 0.36940  0.01790  0.66480  Biso   1.000  C
  H114     1.0000 0.39410  0.04750  0.67530  Biso   1.000  H
  H115     1.0000 0.32970  0.03520  0.66070  Biso   1.000  H
  H116     1.0000 0.38900  0.00700  0.64620  Biso   1.000  H
  O52      1.0000 0.27970  0.88600  0.69440  Biso   1.000  O
  Cd5      1.0000 0.61822  0.11955  0.92397  Biso   1.000  Cd
  O53      1.0000 0.54039  0.07470  0.95409  Biso   1.000  O
  O54      1.0000 0.57420  0.16570  0.96814  Biso   1.000  O
  O55      1.0000 0.20440  0.07913  0.14698  Biso   1.000  O
  O56      1.0000 0.19282  0.17840  0.14076  Biso   1.000  O
  O57      1.0000 0.34400  0.05100  0.01662  Biso   1.000  O
  O58      1.0000 0.33460  0.22660  0.05289  Biso   1.000  O
  O59      1.0000 0.57520  0.04420  0.89132  Biso   1.000  O
  O60      1.0000 0.67245  0.05518  0.88802  Biso   1.000  O
  O61      1.0000 0.61070  0.70106  0.70124  Biso   1.000  O
  O62      1.0000 0.62480  0.78343  0.67199  Biso   1.000  O
  O63      1.0000 0.53750  0.86220  0.81632  Biso   1.000  O
  O64      1.0000 0.62890  0.94670  0.74450  Biso   1.000  O
  C137     1.0000 0.53790  0.11740  0.97032  Biso   1.000  C
  C138     1.0000 0.49290  0.11910  0.99653  Biso   1.000  C
  C139     1.0000 0.49260  0.16540  0.01766  Biso   1.000  C
  H117     1.0000 0.52190  0.19640  0.01660  Biso   1.000  H
  C140     1.0000 0.44970  0.16630  0.04013  Biso   1.000  C
  H118     1.0000 0.45110  0.19800  0.05420  Biso   1.000  H
  C141     1.0000 0.40490  0.12250  0.04285  Biso   1.000  C
  C142     1.0000 0.39970  0.08430  0.01646  Biso   1.000  C
  C143     1.0000 0.44340  0.07960  0.99653  Biso   1.000  C
  H119     1.0000 0.44110  0.04900  0.98200  Biso   1.000  H
  C144     1.0000 0.35840  0.12700  0.06691  Biso   1.000  C
  C145     1.0000 0.34730  0.07740  0.08388  Biso   1.000  C
  H120     1.0000 0.37050  0.04220  0.08050  Biso   1.000  H
  C146     1.0000 0.30140  0.07580  0.10706  Biso   1.000  C
  H121     1.0000 0.29550  0.04050  0.11850  Biso   1.000  H
  C147     1.0000 0.26620  0.12740  0.11205  Biso   1.000  C
  C148     1.0000 0.27960  0.17900  0.09417  Biso   1.000  C
  H122     1.0000 0.25910  0.21560  0.09800  Biso   1.000  H
  C149     1.0000 0.32290  0.17700  0.07081  Biso   1.000  C
  C150     1.0000 0.21620  0.12860  0.13410  Biso   1.000  C
  C151     1.0000 0.33090  0.00820  0.98780  Biso   1.000  C
  H123     1.0000 0.29260  0.98690  0.99050  Biso   1.000  H
  H124     1.0000 0.32860  0.03330  0.97000  Biso   1.000  H
  H125     1.0000 0.36350  0.97890  0.98560  Biso   1.000  H
  C152     1.0000 0.32370  0.25970  0.02030  Biso   1.000  C
  H126     1.0000 0.36110  0.25840  0.00890  Biso   1.000  H
  H127     1.0000 0.29190  0.23850  0.00960  Biso   1.000  H
  H128     1.0000 0.31180  0.30170  0.02340  Biso   1.000  H
  C153     1.0000 0.62630  0.02950  0.87922  Biso   1.000  C
  C154     1.0000 0.62800  0.98660  0.85357  Biso   1.000  C
  C155     1.0000 0.57620  0.95020  0.84663  Biso   1.000  C
  H129     1.0000 0.53950  0.95440  0.85720  Biso   1.000  H
  C156     1.0000 0.58240  0.90710  0.82290  Biso   1.000  C
  C157     1.0000 0.62850  0.90920  0.80279  Biso   1.000  C
  C158     1.0000 0.68140  0.93620  0.81313  Biso   1.000  C
  H130     1.0000 0.71860  0.92660  0.80400  Biso   1.000  H
  C159     1.0000 0.68040  0.97830  0.83723  Biso   1.000  C
  H131     1.0000 0.71560  0.00040  0.84200  Biso   1.000  H
  C160     1.0000 0.62790  0.86760  0.77603  Biso   1.000  C
  C161     1.0000 0.63590  0.89250  0.74730  Biso   1.000  C
  C162     1.0000 0.63870  0.85860  0.72220  Biso   1.000  C
  H132     1.0000 0.65060  0.87610  0.70400  Biso   1.000  H
  C163     1.0000 0.62330  0.79620  0.72396  Biso   1.000  C
  C164     1.0000 0.62100  0.76950  0.75270  Biso   1.000  C
  H133     1.0000 0.62170  0.72700  0.75470  Biso   1.000  H
  C165     1.0000 0.61770  0.80580  0.77761  Biso   1.000  C
  C166     1.0000 0.61830  0.75640  0.69657  Biso   1.000  C
  C167     1.0000 0.51540  0.82960  0.84510  Biso   1.000  C
  H134     1.0000 0.48180  0.80270  0.84030  Biso   1.000  H
  H135     1.0000 0.54850  0.80600  0.85350  Biso   1.000  H
  H136     1.0000 0.50210  0.85970  0.85950  Biso   1.000  H
  C168     1.0000 0.65120  0.98400  0.72070  Biso   1.000  C
  H137     1.0000 0.67290  0.01850  0.72890  Biso   1.000  H
  H138     1.0000 0.67840  0.96040  0.70830  Biso   1.000  H
  H139     1.0000 0.61730  0.99840  0.70890  Biso   1.000  H
  C169     1.0000 0.30060  0.28190  0.05780  Biso   1.000  C
  H140     1.0000 0.30040  0.29140  0.07890  Biso   1.000  H
  H141     1.0000 0.31940  0.31500  0.04690  Biso   1.000  H
  H142     1.0000 0.25910  0.27640  0.05090  Biso   1.000  H
  C170     1.0000 0.48210  0.86940  0.83520  Biso   1.000  C
  H143     1.0000 0.45250  0.89410  0.82470  Biso   1.000  H
  H144     1.0000 0.46480  0.82970  0.83930  Biso   1.000  H
  H145     1.0000 0.49300  0.88900  0.85380  Biso   1.000  H
  O65      1.0000 0.61400  0.77970  0.80560  Biso   1.000  O
  Cd6      1.0000 0.11822  0.61955  0.42397  Biso   1.000  Cd
  O66      1.0000 0.04039  0.57470  0.45409  Biso   1.000  O
  O67      1.0000 0.07420  0.66570  0.46814  Biso   1.000  O
  O68      1.0000 0.70440  0.57913  0.64698  Biso   1.000  O
  O69      1.0000 0.69282  0.67840  0.64076  Biso   1.000  O
  O70      1.0000 0.84400  0.55100  0.51662  Biso   1.000  O
  O71      1.0000 0.83460  0.72660  0.55289  Biso   1.000  O
  O72      1.0000 0.07520  0.54420  0.39132  Biso   1.000  O
  O73      1.0000 0.17245  0.55518  0.38802  Biso   1.000  O
  O74      1.0000 0.11070  0.20106  0.20124  Biso   1.000  O
  O75      1.0000 0.12480  0.28343  0.17199  Biso   1.000  O
  O76      1.0000 0.03750  0.36220  0.31632  Biso   1.000  O
  O77      1.0000 0.12890  0.44670  0.24450  Biso   1.000  O
  C171     1.0000 0.03790  0.61740  0.47032  Biso   1.000  C
  C172     1.0000 0.99290  0.61910  0.49653  Biso   1.000  C
  C173     1.0000 0.99260  0.66540  0.51766  Biso   1.000  C
  H146     1.0000 0.02190  0.69640  0.51660  Biso   1.000  H
  C174     1.0000 0.94970  0.66630  0.54013  Biso   1.000  C
  H147     1.0000 0.95110  0.69800  0.55420  Biso   1.000  H
  C175     1.0000 0.90490  0.62250  0.54285  Biso   1.000  C
  C176     1.0000 0.89970  0.58430  0.51646  Biso   1.000  C
  C177     1.0000 0.94340  0.57960  0.49653  Biso   1.000  C
  H148     1.0000 0.94110  0.54900  0.48200  Biso   1.000  H
  C178     1.0000 0.85840  0.62700  0.56691  Biso   1.000  C
  C179     1.0000 0.84730  0.57740  0.58388  Biso   1.000  C
  H149     1.0000 0.87050  0.54220  0.58050  Biso   1.000  H
  C180     1.0000 0.80140  0.57580  0.60706  Biso   1.000  C
  H150     1.0000 0.79550  0.54050  0.61850  Biso   1.000  H
  C181     1.0000 0.76620  0.62740  0.61205  Biso   1.000  C
  C182     1.0000 0.77960  0.67900  0.59417  Biso   1.000  C
  H151     1.0000 0.75910  0.71560  0.59800  Biso   1.000  H
  C183     1.0000 0.82290  0.67700  0.57081  Biso   1.000  C
  C184     1.0000 0.71620  0.62860  0.63410  Biso   1.000  C
  C185     1.0000 0.83090  0.50820  0.48780  Biso   1.000  C
  H152     1.0000 0.79260  0.48690  0.49050  Biso   1.000  H
  H153     1.0000 0.82860  0.53330  0.47000  Biso   1.000  H
  H154     1.0000 0.86350  0.47890  0.48560  Biso   1.000  H
  C186     1.0000 0.82370  0.75970  0.52030  Biso   1.000  C
  H155     1.0000 0.86110  0.75840  0.50890  Biso   1.000  H
  H156     1.0000 0.79190  0.73850  0.50960  Biso   1.000  H
  H157     1.0000 0.81180  0.80170  0.52340  Biso   1.000  H
  C187     1.0000 0.12630  0.52950  0.37922  Biso   1.000  C
  C188     1.0000 0.12800  0.48660  0.35357  Biso   1.000  C
  C189     1.0000 0.07620  0.45020  0.34663  Biso   1.000  C
  H158     1.0000 0.03950  0.45440  0.35720  Biso   1.000  H
  C190     1.0000 0.08240  0.40710  0.32290  Biso   1.000  C
  C191     1.0000 0.12850  0.40920  0.30279  Biso   1.000  C
  C192     1.0000 0.18140  0.43620  0.31313  Biso   1.000  C
  H159     1.0000 0.21860  0.42660  0.30400  Biso   1.000  H
  C193     1.0000 0.18040  0.47830  0.33723  Biso   1.000  C
  H160     1.0000 0.21560  0.50040  0.34200  Biso   1.000  H
  C194     1.0000 0.12790  0.36760  0.27603  Biso   1.000  C
  C195     1.0000 0.13590  0.39250  0.24730  Biso   1.000  C
  C196     1.0000 0.13870  0.35860  0.22220  Biso   1.000  C
  H161     1.0000 0.15060  0.37610  0.20400  Biso   1.000  H
  C197     1.0000 0.12330  0.29620  0.22396  Biso   1.000  C
  C198     1.0000 0.12100  0.26950  0.25270  Biso   1.000  C
  H162     1.0000 0.12170  0.22700  0.25470  Biso   1.000  H
  C199     1.0000 0.11770  0.30580  0.27761  Biso   1.000  C
  C200     1.0000 0.11830  0.25640  0.19657  Biso   1.000  C
  C201     1.0000 0.01540  0.32960  0.34510  Biso   1.000  C
  H163     1.0000 0.98180  0.30270  0.34030  Biso   1.000  H
  H164     1.0000 0.04850  0.30600  0.35350  Biso   1.000  H
  H165     1.0000 0.00210  0.35970  0.35950  Biso   1.000  H
  C202     1.0000 0.15120  0.48400  0.22070  Biso   1.000  C
  H166     1.0000 0.17290  0.51850  0.22890  Biso   1.000  H
  H167     1.0000 0.17840  0.46040  0.20830  Biso   1.000  H
  H168     1.0000 0.11730  0.49840  0.20890  Biso   1.000  H
  C203     1.0000 0.80060  0.78190  0.55780  Biso   1.000  C
  H169     1.0000 0.80040  0.79140  0.57890  Biso   1.000  H
  H170     1.0000 0.81940  0.81500  0.54690  Biso   1.000  H
  H171     1.0000 0.75910  0.77640  0.55090  Biso   1.000  H
  C204     1.0000 0.98210  0.36940  0.33520  Biso   1.000  C
  H172     1.0000 0.95250  0.39410  0.32470  Biso   1.000  H
  H173     1.0000 0.96480  0.32970  0.33930  Biso   1.000  H
  H174     1.0000 0.99300  0.38900  0.35380  Biso   1.000  H
  O78      1.0000 0.11400  0.27970  0.30560  Biso   1.000  O
  Cd7      1.0000 0.38178  0.88045  0.92397  Biso   1.000  Cd
  O79      1.0000 0.45961  0.92530  0.95409  Biso   1.000  O
  O80      1.0000 0.42580  0.83430  0.96814  Biso   1.000  O
  O81      1.0000 0.79560  0.92087  0.14698  Biso   1.000  O
  O82      1.0000 0.80718  0.82160  0.14076  Biso   1.000  O
  O83      1.0000 0.65600  0.94900  0.01662  Biso   1.000  O
  O84      1.0000 0.66540  0.77340  0.05289  Biso   1.000  O
  O85      1.0000 0.42480  0.95580  0.89132  Biso   1.000  O
  O86      1.0000 0.32755  0.94482  0.88802  Biso   1.000  O
  O87      1.0000 0.38930  0.29894  0.70124  Biso   1.000  O
  O88      1.0000 0.37520  0.21657  0.67199  Biso   1.000  O
  O89      1.0000 0.46250  0.13780  0.81632  Biso   1.000  O
  O90      1.0000 0.37110  0.05330  0.74450  Biso   1.000  O
  C205     1.0000 0.46210  0.88260  0.97032  Biso   1.000  C
  C206     1.0000 0.50710  0.88090  0.99653  Biso   1.000  C
  C207     1.0000 0.50740  0.83460  0.01766  Biso   1.000  C
  H175     1.0000 0.47810  0.80360  0.01660  Biso   1.000  H
  C208     1.0000 0.55030  0.83370  0.04013  Biso   1.000  C
  H176     1.0000 0.54890  0.80200  0.05420  Biso   1.000  H
  C209     1.0000 0.59510  0.87750  0.04285  Biso   1.000  C
  C210     1.0000 0.60030  0.91570  0.01646  Biso   1.000  C
  C211     1.0000 0.55660  0.92040  0.99653  Biso   1.000  C
  H177     1.0000 0.55890  0.95100  0.98200  Biso   1.000  H
  C212     1.0000 0.64160  0.87300  0.06691  Biso   1.000  C
  C213     1.0000 0.65270  0.92260  0.08388  Biso   1.000  C
  H178     1.0000 0.62950  0.95780  0.08050  Biso   1.000  H
  C214     1.0000 0.69860  0.92420  0.10706  Biso   1.000  C
  H179     1.0000 0.70450  0.95950  0.11850  Biso   1.000  H
  C215     1.0000 0.73380  0.87260  0.11205  Biso   1.000  C
  C216     1.0000 0.72040  0.82100  0.09417  Biso   1.000  C
  H180     1.0000 0.74090  0.78440  0.09800  Biso   1.000  H
  C217     1.0000 0.67710  0.82300  0.07081  Biso   1.000  C
  C218     1.0000 0.78380  0.87140  0.13410  Biso   1.000  C
  C219     1.0000 0.66910  0.99180  0.98780  Biso   1.000  C
  H181     1.0000 0.70740  0.01310  0.99050  Biso   1.000  H
  H182     1.0000 0.67140  0.96670  0.97000  Biso   1.000  H
  H183     1.0000 0.63650  0.02110  0.98560  Biso   1.000  H
  C220     1.0000 0.67630  0.74030  0.02030  Biso   1.000  C
  H184     1.0000 0.63890  0.74160  0.00890  Biso   1.000  H
  H185     1.0000 0.70810  0.76150  0.00960  Biso   1.000  H
  H186     1.0000 0.68820  0.69830  0.02340  Biso   1.000  H
  C221     1.0000 0.37370  0.97050  0.87922  Biso   1.000  C
  C222     1.0000 0.37200  0.01340  0.85357  Biso   1.000  C
  C223     1.0000 0.42380  0.04980  0.84663  Biso   1.000  C
  H187     1.0000 0.46050  0.04560  0.85720  Biso   1.000  H
  C224     1.0000 0.41760  0.09290  0.82290  Biso   1.000  C
  C225     1.0000 0.37150  0.09080  0.80279  Biso   1.000  C
  C226     1.0000 0.31860  0.06380  0.81313  Biso   1.000  C
  H188     1.0000 0.28140  0.07340  0.80400  Biso   1.000  H
  C227     1.0000 0.31960  0.02170  0.83723  Biso   1.000  C
  H189     1.0000 0.28440  0.99960  0.84200  Biso   1.000  H
  C228     1.0000 0.37210  0.13240  0.77603  Biso   1.000  C
  C229     1.0000 0.36410  0.10750  0.74730  Biso   1.000  C
  C230     1.0000 0.36130  0.14140  0.72220  Biso   1.000  C
  H190     1.0000 0.34940  0.12390  0.70400  Biso   1.000  H
  C231     1.0000 0.37670  0.20380  0.72396  Biso   1.000  C
  C232     1.0000 0.37900  0.23050  0.75270  Biso   1.000  C
  H191     1.0000 0.37830  0.27300  0.75470  Biso   1.000  H
  C233     1.0000 0.38230  0.19420  0.77761  Biso   1.000  C
  C234     1.0000 0.38170  0.24360  0.69657  Biso   1.000  C
  C235     1.0000 0.48460  0.17040  0.84510  Biso   1.000  C
  H192     1.0000 0.51820  0.19730  0.84030  Biso   1.000  H
  H193     1.0000 0.45150  0.19400  0.85350  Biso   1.000  H
  H194     1.0000 0.49790  0.14030  0.85950  Biso   1.000  H
  C236     1.0000 0.34880  0.01600  0.72070  Biso   1.000  C
  H195     1.0000 0.32710  0.98150  0.72890  Biso   1.000  H
  H196     1.0000 0.32160  0.03960  0.70830  Biso   1.000  H
  H197     1.0000 0.38270  0.00160  0.70890  Biso   1.000  H
  C237     1.0000 0.69940  0.71810  0.05780  Biso   1.000  C
  H198     1.0000 0.69960  0.70860  0.07890  Biso   1.000  H
  H199     1.0000 0.68060  0.68500  0.04690  Biso   1.000  H
  H200     1.0000 0.74090  0.72360  0.05090  Biso   1.000  H
  C238     1.0000 0.51790  0.13060  0.83520  Biso   1.000  C
  H201     1.0000 0.54750  0.10590  0.82470  Biso   1.000  H
  H202     1.0000 0.53520  0.17030  0.83930  Biso   1.000  H
  H203     1.0000 0.50700  0.11100  0.85380  Biso   1.000  H
  O91      1.0000 0.38600  0.22030  0.80560  Biso   1.000  O
  Cd8      1.0000 0.88178  0.38045  0.42397  Biso   1.000  Cd
  O92      1.0000 0.95961  0.42530  0.45409  Biso   1.000  O
  O93      1.0000 0.92580  0.33430  0.46814  Biso   1.000  O
  O94      1.0000 0.29560  0.42087  0.64698  Biso   1.000  O
  O95      1.0000 0.30718  0.32160  0.64076  Biso   1.000  O
  O96      1.0000 0.15600  0.44900  0.51662  Biso   1.000  O
  O97      1.0000 0.16540  0.27340  0.55289  Biso   1.000  O
  O98      1.0000 0.92480  0.45580  0.39132  Biso   1.000  O
  O99      1.0000 0.82755  0.44482  0.38802  Biso   1.000  O
  O100     1.0000 0.88930  0.79894  0.20124  Biso   1.000  O
  O101     1.0000 0.87520  0.71657  0.17199  Biso   1.000  O
  O102     1.0000 0.96250  0.63780  0.31632  Biso   1.000  O
  O103     1.0000 0.87110  0.55330  0.24450  Biso   1.000  O
  C239     1.0000 0.96210  0.38260  0.47032  Biso   1.000  C
  C240     1.0000 0.00710  0.38090  0.49653  Biso   1.000  C
  C241     1.0000 0.00740  0.33460  0.51766  Biso   1.000  C
  H204     1.0000 0.97810  0.30360  0.51660  Biso   1.000  H
  C242     1.0000 0.05030  0.33370  0.54013  Biso   1.000  C
  H205     1.0000 0.04890  0.30200  0.55420  Biso   1.000  H
  C243     1.0000 0.09510  0.37750  0.54285  Biso   1.000  C
  C244     1.0000 0.10030  0.41570  0.51646  Biso   1.000  C
  C245     1.0000 0.05660  0.42040  0.49653  Biso   1.000  C
  H206     1.0000 0.05890  0.45100  0.48200  Biso   1.000  H
  C246     1.0000 0.14160  0.37300  0.56691  Biso   1.000  C
  C247     1.0000 0.15270  0.42260  0.58388  Biso   1.000  C
  H207     1.0000 0.12950  0.45780  0.58050  Biso   1.000  H
  C248     1.0000 0.19860  0.42420  0.60706  Biso   1.000  C
  H208     1.0000 0.20450  0.45950  0.61850  Biso   1.000  H
  C249     1.0000 0.23380  0.37260  0.61205  Biso   1.000  C
  C250     1.0000 0.22040  0.32100  0.59417  Biso   1.000  C
  H209     1.0000 0.24090  0.28440  0.59800  Biso   1.000  H
  C251     1.0000 0.17710  0.32300  0.57081  Biso   1.000  C
  C252     1.0000 0.28380  0.37140  0.63410  Biso   1.000  C
  C253     1.0000 0.16910  0.49180  0.48780  Biso   1.000  C
  H210     1.0000 0.20740  0.51310  0.49050  Biso   1.000  H
  H211     1.0000 0.17140  0.46670  0.47000  Biso   1.000  H
  H212     1.0000 0.13650  0.52110  0.48560  Biso   1.000  H
  C254     1.0000 0.17630  0.24030  0.52030  Biso   1.000  C
  H213     1.0000 0.13890  0.24160  0.50890  Biso   1.000  H
  H214     1.0000 0.20810  0.26150  0.50960  Biso   1.000  H
  H215     1.0000 0.18820  0.19830  0.52340  Biso   1.000  H
  C255     1.0000 0.87370  0.47050  0.37922  Biso   1.000  C
  C256     1.0000 0.87200  0.51340  0.35357  Biso   1.000  C
  C257     1.0000 0.92380  0.54980  0.34663  Biso   1.000  C
  H216     1.0000 0.96050  0.54560  0.35720  Biso   1.000  H
  C258     1.0000 0.91760  0.59290  0.32290  Biso   1.000  C
  C259     1.0000 0.87150  0.59080  0.30279  Biso   1.000  C
  C260     1.0000 0.81860  0.56380  0.31313  Biso   1.000  C
  H217     1.0000 0.78140  0.57340  0.30400  Biso   1.000  H
  C261     1.0000 0.81960  0.52170  0.33723  Biso   1.000  C
  H218     1.0000 0.78440  0.49960  0.34200  Biso   1.000  H
  C262     1.0000 0.87210  0.63240  0.27603  Biso   1.000  C
  C263     1.0000 0.86410  0.60750  0.24730  Biso   1.000  C
  C264     1.0000 0.86130  0.64140  0.22220  Biso   1.000  C
  H219     1.0000 0.84940  0.62390  0.20400  Biso   1.000  H
  C265     1.0000 0.87670  0.70380  0.22396  Biso   1.000  C
  C266     1.0000 0.87900  0.73050  0.25270  Biso   1.000  C
  H220     1.0000 0.87830  0.77300  0.25470  Biso   1.000  H
  C267     1.0000 0.88230  0.69420  0.27761  Biso   1.000  C
  C268     1.0000 0.88170  0.74360  0.19657  Biso   1.000  C
  C269     1.0000 0.98460  0.67040  0.34510  Biso   1.000  C
  H221     1.0000 0.01820  0.69730  0.34030  Biso   1.000  H
  H222     1.0000 0.95150  0.69400  0.35350  Biso   1.000  H
  H223     1.0000 0.99790  0.64030  0.35950  Biso   1.000  H
  C270     1.0000 0.84880  0.51600  0.22070  Biso   1.000  C
  H224     1.0000 0.82710  0.48150  0.22890  Biso   1.000  H
  H225     1.0000 0.82160  0.53960  0.20830  Biso   1.000  H
  H226     1.0000 0.88270  0.50160  0.20890  Biso   1.000  H
  C271     1.0000 0.19940  0.21810  0.55780  Biso   1.000  C
  H227     1.0000 0.19960  0.20860  0.57890  Biso   1.000  H
  H228     1.0000 0.18060  0.18500  0.54690  Biso   1.000  H
  H229     1.0000 0.24090  0.22360  0.55090  Biso   1.000  H
  C272     1.0000 0.01790  0.63060  0.33520  Biso   1.000  C
  H230     1.0000 0.04750  0.60590  0.32470  Biso   1.000  H
  H231     1.0000 0.03520  0.67030  0.33930  Biso   1.000  H
  H232     1.0000 0.00700  0.61100  0.35380  Biso   1.000  H
  O104     1.0000 0.88600  0.72030  0.30560  Biso   1.000  O
  Cd9      1.0000 0.61955  0.61822  0.67397  Biso   1.000  Cd
  O105     1.0000 0.57470  0.54039  0.70409  Biso   1.000  O
  O106     1.0000 0.66570  0.57420  0.71814  Biso   1.000  O
  O107     1.0000 0.57913  0.20440  0.89698  Biso   1.000  O
  O108     1.0000 0.67840  0.19282  0.89076  Biso   1.000  O
  O109     1.0000 0.55100  0.34400  0.76662  Biso   1.000  O
  O110     1.0000 0.72660  0.33460  0.80289  Biso   1.000  O
  O111     1.0000 0.54420  0.57520  0.64132  Biso   1.000  O
  O112     1.0000 0.55518  0.67245  0.63802  Biso   1.000  O
  O113     1.0000 0.20106  0.61070  0.45124  Biso   1.000  O
  O114     1.0000 0.28343  0.62480  0.42199  Biso   1.000  O
  O115     1.0000 0.36220  0.53750  0.56632  Biso   1.000  O
  O116     1.0000 0.44670  0.62890  0.49450  Biso   1.000  O
  C273     1.0000 0.61740  0.53790  0.72032  Biso   1.000  C
  C274     1.0000 0.61910  0.49290  0.74653  Biso   1.000  C
  C275     1.0000 0.66540  0.49260  0.76766  Biso   1.000  C
  H233     1.0000 0.69640  0.52190  0.76660  Biso   1.000  H
  C276     1.0000 0.66630  0.44970  0.79013  Biso   1.000  C
  H234     1.0000 0.69800  0.45110  0.80420  Biso   1.000  H
  C277     1.0000 0.62250  0.40490  0.79285  Biso   1.000  C
  C278     1.0000 0.58430  0.39970  0.76646  Biso   1.000  C
  C279     1.0000 0.57960  0.44340  0.74653  Biso   1.000  C
  H235     1.0000 0.54900  0.44110  0.73200  Biso   1.000  H
  C280     1.0000 0.62700  0.35840  0.81691  Biso   1.000  C
  C281     1.0000 0.57740  0.34730  0.83388  Biso   1.000  C
  H236     1.0000 0.54220  0.37050  0.83050  Biso   1.000  H
  C282     1.0000 0.57580  0.30140  0.85706  Biso   1.000  C
  H237     1.0000 0.54050  0.29550  0.86850  Biso   1.000  H
  C283     1.0000 0.62740  0.26620  0.86205  Biso   1.000  C
  C284     1.0000 0.67900  0.27960  0.84417  Biso   1.000  C
  H238     1.0000 0.71560  0.25910  0.84800  Biso   1.000  H
  C285     1.0000 0.67700  0.32290  0.82081  Biso   1.000  C
  C286     1.0000 0.62860  0.21620  0.88410  Biso   1.000  C
  C287     1.0000 0.50820  0.33090  0.73780  Biso   1.000  C
  H239     1.0000 0.48690  0.29260  0.74050  Biso   1.000  H
  H240     1.0000 0.53330  0.32860  0.72000  Biso   1.000  H
  H241     1.0000 0.47890  0.36350  0.73560  Biso   1.000  H
  C288     1.0000 0.75970  0.32370  0.77030  Biso   1.000  C
  H242     1.0000 0.75840  0.36110  0.75890  Biso   1.000  H
  H243     1.0000 0.73850  0.29190  0.75960  Biso   1.000  H
  H244     1.0000 0.80170  0.31180  0.77340  Biso   1.000  H
  C289     1.0000 0.52950  0.62630  0.62922  Biso   1.000  C
  C290     1.0000 0.48660  0.62800  0.60357  Biso   1.000  C
  C291     1.0000 0.45020  0.57620  0.59663  Biso   1.000  C
  H245     1.0000 0.45440  0.53950  0.60720  Biso   1.000  H
  C292     1.0000 0.40710  0.58240  0.57290  Biso   1.000  C
  C293     1.0000 0.40920  0.62850  0.55279  Biso   1.000  C
  C294     1.0000 0.43620  0.68140  0.56313  Biso   1.000  C
  H246     1.0000 0.42660  0.71860  0.55400  Biso   1.000  H
  C295     1.0000 0.47830  0.68040  0.58723  Biso   1.000  C
  H247     1.0000 0.50040  0.71560  0.59200  Biso   1.000  H
  C296     1.0000 0.36760  0.62790  0.52603  Biso   1.000  C
  C297     1.0000 0.39250  0.63590  0.49730  Biso   1.000  C
  C298     1.0000 0.35860  0.63870  0.47220  Biso   1.000  C
  H248     1.0000 0.37610  0.65060  0.45400  Biso   1.000  H
  C299     1.0000 0.29620  0.62330  0.47396  Biso   1.000  C
  C300     1.0000 0.26950  0.62100  0.50270  Biso   1.000  C
  H249     1.0000 0.22700  0.62170  0.50470  Biso   1.000  H
  C301     1.0000 0.30580  0.61770  0.52761  Biso   1.000  C
  C302     1.0000 0.25640  0.61830  0.44657  Biso   1.000  C
  C303     1.0000 0.32960  0.51540  0.59510  Biso   1.000  C
  H250     1.0000 0.30270  0.48180  0.59030  Biso   1.000  H
  H251     1.0000 0.30600  0.54850  0.60350  Biso   1.000  H
  H252     1.0000 0.35970  0.50210  0.60950  Biso   1.000  H
  C304     1.0000 0.48400  0.65120  0.47070  Biso   1.000  C
  H253     1.0000 0.51850  0.67290  0.47890  Biso   1.000  H
  H254     1.0000 0.46040  0.67840  0.45830  Biso   1.000  H
  H255     1.0000 0.49840  0.61730  0.45890  Biso   1.000  H
  C305     1.0000 0.78190  0.30060  0.80780  Biso   1.000  C
  H256     1.0000 0.79140  0.30040  0.82890  Biso   1.000  H
  H257     1.0000 0.81500  0.31940  0.79690  Biso   1.000  H
  H258     1.0000 0.77640  0.25910  0.80090  Biso   1.000  H
  C306     1.0000 0.36940  0.48210  0.58520  Biso   1.000  C
  H259     1.0000 0.39410  0.45250  0.57470  Biso   1.000  H
  H260     1.0000 0.32970  0.46480  0.58930  Biso   1.000  H
  H261     1.0000 0.38900  0.49300  0.60380  Biso   1.000  H
  O117     1.0000 0.27970  0.61400  0.55560  Biso   1.000  O
  Cd10     1.0000 0.11955  0.11822  0.17397  Biso   1.000  Cd
  O118     1.0000 0.07470  0.04039  0.20409  Biso   1.000  O
  O119     1.0000 0.16570  0.07420  0.21814  Biso   1.000  O
  O120     1.0000 0.07913  0.70440  0.39698  Biso   1.000  O
  O121     1.0000 0.17840  0.69282  0.39076  Biso   1.000  O
  O122     1.0000 0.05100  0.84400  0.26662  Biso   1.000  O
  O123     1.0000 0.22660  0.83460  0.30289  Biso   1.000  O
  O124     1.0000 0.04420  0.07520  0.14132  Biso   1.000  O
  O125     1.0000 0.05518  0.17245  0.13802  Biso   1.000  O
  O126     1.0000 0.70106  0.11070  0.95124  Biso   1.000  O
  O127     1.0000 0.78343  0.12480  0.92199  Biso   1.000  O
  O128     1.0000 0.86220  0.03750  0.06632  Biso   1.000  O
  O129     1.0000 0.94670  0.12890  0.99450  Biso   1.000  O
  C307     1.0000 0.11740  0.03790  0.22032  Biso   1.000  C
  C308     1.0000 0.11910  0.99290  0.24653  Biso   1.000  C
  C309     1.0000 0.16540  0.99260  0.26766  Biso   1.000  C
  H262     1.0000 0.19640  0.02190  0.26660  Biso   1.000  H
  C310     1.0000 0.16630  0.94970  0.29013  Biso   1.000  C
  H263     1.0000 0.19800  0.95110  0.30420  Biso   1.000  H
  C311     1.0000 0.12250  0.90490  0.29285  Biso   1.000  C
  C312     1.0000 0.08430  0.89970  0.26646  Biso   1.000  C
  C313     1.0000 0.07960  0.94340  0.24653  Biso   1.000  C
  H264     1.0000 0.04900  0.94110  0.23200  Biso   1.000  H
  C314     1.0000 0.12700  0.85840  0.31691  Biso   1.000  C
  C315     1.0000 0.07740  0.84730  0.33388  Biso   1.000  C
  H265     1.0000 0.04220  0.87050  0.33050  Biso   1.000  H
  C316     1.0000 0.07580  0.80140  0.35706  Biso   1.000  C
  H266     1.0000 0.04050  0.79550  0.36850  Biso   1.000  H
  C317     1.0000 0.12740  0.76620  0.36205  Biso   1.000  C
  C318     1.0000 0.17900  0.77960  0.34417  Biso   1.000  C
  H267     1.0000 0.21560  0.75910  0.34800  Biso   1.000  H
  C319     1.0000 0.17700  0.82290  0.32081  Biso   1.000  C
  C320     1.0000 0.12860  0.71620  0.38410  Biso   1.000  C
  C321     1.0000 0.00820  0.83090  0.23780  Biso   1.000  C
  H268     1.0000 0.98690  0.79260  0.24050  Biso   1.000  H
  H269     1.0000 0.03330  0.82860  0.22000  Biso   1.000  H
  H270     1.0000 0.97890  0.86350  0.23560  Biso   1.000  H
  C322     1.0000 0.25970  0.82370  0.27030  Biso   1.000  C
  H271     1.0000 0.25840  0.86110  0.25890  Biso   1.000  H
  H272     1.0000 0.23850  0.79190  0.25960  Biso   1.000  H
  H273     1.0000 0.30170  0.81180  0.27340  Biso   1.000  H
  C323     1.0000 0.02950  0.12630  0.12922  Biso   1.000  C
  C324     1.0000 0.98660  0.12800  0.10357  Biso   1.000  C
  C325     1.0000 0.95020  0.07620  0.09663  Biso   1.000  C
  H274     1.0000 0.95440  0.03950  0.10720  Biso   1.000  H
  C326     1.0000 0.90710  0.08240  0.07290  Biso   1.000  C
  C327     1.0000 0.90920  0.12850  0.05279  Biso   1.000  C
  C328     1.0000 0.93620  0.18140  0.06313  Biso   1.000  C
  H275     1.0000 0.92660  0.21860  0.05400  Biso   1.000  H
  C329     1.0000 0.97830  0.18040  0.08723  Biso   1.000  C
  H276     1.0000 0.00040  0.21560  0.09200  Biso   1.000  H
  C330     1.0000 0.86760  0.12790  0.02603  Biso   1.000  C
  C331     1.0000 0.89250  0.13590  0.99730  Biso   1.000  C
  C332     1.0000 0.85860  0.13870  0.97220  Biso   1.000  C
  H277     1.0000 0.87610  0.15060  0.95400  Biso   1.000  H
  C333     1.0000 0.79620  0.12330  0.97396  Biso   1.000  C
  C334     1.0000 0.76950  0.12100  0.00270  Biso   1.000  C
  H278     1.0000 0.72700  0.12170  0.00470  Biso   1.000  H
  C335     1.0000 0.80580  0.11770  0.02761  Biso   1.000  C
  C336     1.0000 0.75640  0.11830  0.94657  Biso   1.000  C
  C337     1.0000 0.82960  0.01540  0.09510  Biso   1.000  C
  H279     1.0000 0.80270  0.98180  0.09030  Biso   1.000  H
  H280     1.0000 0.80600  0.04850  0.10350  Biso   1.000  H
  H281     1.0000 0.85970  0.00210  0.10950  Biso   1.000  H
  C338     1.0000 0.98400  0.15120  0.97070  Biso   1.000  C
  H282     1.0000 0.01850  0.17290  0.97890  Biso   1.000  H
  H283     1.0000 0.96040  0.17840  0.95830  Biso   1.000  H
  H284     1.0000 0.99840  0.11730  0.95890  Biso   1.000  H
  C339     1.0000 0.28190  0.80060  0.30780  Biso   1.000  C
  H285     1.0000 0.29140  0.80040  0.32890  Biso   1.000  H
  H286     1.0000 0.31500  0.81940  0.29690  Biso   1.000  H
  H287     1.0000 0.27640  0.75910  0.30090  Biso   1.000  H
  C340     1.0000 0.86940  0.98210  0.08520  Biso   1.000  C
  H288     1.0000 0.89410  0.95250  0.07470  Biso   1.000  H
  H289     1.0000 0.82970  0.96480  0.08930  Biso   1.000  H
  H290     1.0000 0.88900  0.99300  0.10380  Biso   1.000  H
  O130     1.0000 0.77970  0.11400  0.05560  Biso   1.000  O
  Cd11     1.0000 0.38045  0.38178  0.67397  Biso   1.000  Cd
  O131     1.0000 0.42530  0.45961  0.70409  Biso   1.000  O
  O132     1.0000 0.33430  0.42580  0.71814  Biso   1.000  O
  O133     1.0000 0.42087  0.79560  0.89698  Biso   1.000  O
  O134     1.0000 0.32160  0.80718  0.89076  Biso   1.000  O
  O135     1.0000 0.44900  0.65600  0.76662  Biso   1.000  O
  O136     1.0000 0.27340  0.66540  0.80289  Biso   1.000  O
  O137     1.0000 0.45580  0.42480  0.64132  Biso   1.000  O
  O138     1.0000 0.44482  0.32755  0.63802  Biso   1.000  O
  O139     1.0000 0.79894  0.38930  0.45124  Biso   1.000  O
  O140     1.0000 0.71657  0.37520  0.42199  Biso   1.000  O
  O141     1.0000 0.63780  0.46250  0.56632  Biso   1.000  O
  O142     1.0000 0.55330  0.37110  0.49450  Biso   1.000  O
  C341     1.0000 0.38260  0.46210  0.72032  Biso   1.000  C
  C342     1.0000 0.38090  0.50710  0.74653  Biso   1.000  C
  C343     1.0000 0.33460  0.50740  0.76766  Biso   1.000  C
  H291     1.0000 0.30360  0.47810  0.76660  Biso   1.000  H
  C344     1.0000 0.33370  0.55030  0.79013  Biso   1.000  C
  H292     1.0000 0.30200  0.54890  0.80420  Biso   1.000  H
  C345     1.0000 0.37750  0.59510  0.79285  Biso   1.000  C
  C346     1.0000 0.41570  0.60030  0.76646  Biso   1.000  C
  C347     1.0000 0.42040  0.55660  0.74653  Biso   1.000  C
  H293     1.0000 0.45100  0.55890  0.73200  Biso   1.000  H
  C348     1.0000 0.37300  0.64160  0.81691  Biso   1.000  C
  C349     1.0000 0.42260  0.65270  0.83388  Biso   1.000  C
  H294     1.0000 0.45780  0.62950  0.83050  Biso   1.000  H
  C350     1.0000 0.42420  0.69860  0.85706  Biso   1.000  C
  H295     1.0000 0.45950  0.70450  0.86850  Biso   1.000  H
  C351     1.0000 0.37260  0.73380  0.86205  Biso   1.000  C
  C352     1.0000 0.32100  0.72040  0.84417  Biso   1.000  C
  H296     1.0000 0.28440  0.74090  0.84800  Biso   1.000  H
  C353     1.0000 0.32300  0.67710  0.82081  Biso   1.000  C
  C354     1.0000 0.37140  0.78380  0.88410  Biso   1.000  C
  C355     1.0000 0.49180  0.66910  0.73780  Biso   1.000  C
  H297     1.0000 0.51310  0.70740  0.74050  Biso   1.000  H
  H298     1.0000 0.46670  0.67140  0.72000  Biso   1.000  H
  H299     1.0000 0.52110  0.63650  0.73560  Biso   1.000  H
  C356     1.0000 0.24030  0.67630  0.77030  Biso   1.000  C
  H300     1.0000 0.24160  0.63890  0.75890  Biso   1.000  H
  H301     1.0000 0.26150  0.70810  0.75960  Biso   1.000  H
  H302     1.0000 0.19830  0.68820  0.77340  Biso   1.000  H
  C357     1.0000 0.47050  0.37370  0.62922  Biso   1.000  C
  C358     1.0000 0.51340  0.37200  0.60357  Biso   1.000  C
  C359     1.0000 0.54980  0.42380  0.59663  Biso   1.000  C
  H303     1.0000 0.54560  0.46050  0.60720  Biso   1.000  H
  C360     1.0000 0.59290  0.41760  0.57290  Biso   1.000  C
  C361     1.0000 0.59080  0.37150  0.55279  Biso   1.000  C
  C362     1.0000 0.56380  0.31860  0.56313  Biso   1.000  C
  H304     1.0000 0.57340  0.28140  0.55400  Biso   1.000  H
  C363     1.0000 0.52170  0.31960  0.58723  Biso   1.000  C
  H305     1.0000 0.49960  0.28440  0.59200  Biso   1.000  H
  C364     1.0000 0.63240  0.37210  0.52603  Biso   1.000  C
  C365     1.0000 0.60750  0.36410  0.49730  Biso   1.000  C
  C366     1.0000 0.64140  0.36130  0.47220  Biso   1.000  C
  H306     1.0000 0.62390  0.34940  0.45400  Biso   1.000  H
  C367     1.0000 0.70380  0.37670  0.47396  Biso   1.000  C
  C368     1.0000 0.73050  0.37900  0.50270  Biso   1.000  C
  H307     1.0000 0.77300  0.37830  0.50470  Biso   1.000  H
  C369     1.0000 0.69420  0.38230  0.52761  Biso   1.000  C
  C370     1.0000 0.74360  0.38170  0.44657  Biso   1.000  C
  C371     1.0000 0.67040  0.48460  0.59510  Biso   1.000  C
  H308     1.0000 0.69730  0.51820  0.59030  Biso   1.000  H
  H309     1.0000 0.69400  0.45150  0.60350  Biso   1.000  H
  H310     1.0000 0.64030  0.49790  0.60950  Biso   1.000  H
  C372     1.0000 0.51600  0.34880  0.47070  Biso   1.000  C
  H311     1.0000 0.48150  0.32710  0.47890  Biso   1.000  H
  H312     1.0000 0.53960  0.32160  0.45830  Biso   1.000  H
  H313     1.0000 0.50160  0.38270  0.45890  Biso   1.000  H
  C373     1.0000 0.21810  0.69940  0.80780  Biso   1.000  C
  H314     1.0000 0.20860  0.69960  0.82890  Biso   1.000  H
  H315     1.0000 0.18500  0.68060  0.79690  Biso   1.000  H
  H316     1.0000 0.22360  0.74090  0.80090  Biso   1.000  H
  C374     1.0000 0.63060  0.51790  0.58520  Biso   1.000  C
  H317     1.0000 0.60590  0.54750  0.57470  Biso   1.000  H
  H318     1.0000 0.67030  0.53520  0.58930  Biso   1.000  H
  H319     1.0000 0.61100  0.50700  0.60380  Biso   1.000  H
  O143     1.0000 0.72030  0.38600  0.55560  Biso   1.000  O
  Cd12     1.0000 0.88045  0.88178  0.17397  Biso   1.000  Cd
  O144     1.0000 0.92530  0.95961  0.20409  Biso   1.000  O
  O145     1.0000 0.83430  0.92580  0.21814  Biso   1.000  O
  O146     1.0000 0.92087  0.29560  0.39698  Biso   1.000  O
  O147     1.0000 0.82160  0.30718  0.39076  Biso   1.000  O
  O148     1.0000 0.94900  0.15600  0.26662  Biso   1.000  O
  O149     1.0000 0.77340  0.16540  0.30289  Biso   1.000  O
  O150     1.0000 0.95580  0.92480  0.14132  Biso   1.000  O
  O151     1.0000 0.94482  0.82755  0.13802  Biso   1.000  O
  O152     1.0000 0.29894  0.88930  0.95124  Biso   1.000  O
  O153     1.0000 0.21657  0.87520  0.92199  Biso   1.000  O
  O154     1.0000 0.13780  0.96250  0.06632  Biso   1.000  O
  O155     1.0000 0.05330  0.87110  0.99450  Biso   1.000  O
  C375     1.0000 0.88260  0.96210  0.22032  Biso   1.000  C
  C376     1.0000 0.88090  0.00710  0.24653  Biso   1.000  C
  C377     1.0000 0.83460  0.00740  0.26766  Biso   1.000  C
  H320     1.0000 0.80360  0.97810  0.26660  Biso   1.000  H
  C378     1.0000 0.83370  0.05030  0.29013  Biso   1.000  C
  H321     1.0000 0.80200  0.04890  0.30420  Biso   1.000  H
  C379     1.0000 0.87750  0.09510  0.29285  Biso   1.000  C
  C380     1.0000 0.91570  0.10030  0.26646  Biso   1.000  C
  C381     1.0000 0.92040  0.05660  0.24653  Biso   1.000  C
  H322     1.0000 0.95100  0.05890  0.23200  Biso   1.000  H
  C382     1.0000 0.87300  0.14160  0.31691  Biso   1.000  C
  C383     1.0000 0.92260  0.15270  0.33388  Biso   1.000  C
  H323     1.0000 0.95780  0.12950  0.33050  Biso   1.000  H
  C384     1.0000 0.92420  0.19860  0.35706  Biso   1.000  C
  H324     1.0000 0.95950  0.20450  0.36850  Biso   1.000  H
  C385     1.0000 0.87260  0.23380  0.36205  Biso   1.000  C
  C386     1.0000 0.82100  0.22040  0.34417  Biso   1.000  C
  H325     1.0000 0.78440  0.24090  0.34800  Biso   1.000  H
  C387     1.0000 0.82300  0.17710  0.32081  Biso   1.000  C
  C388     1.0000 0.87140  0.28380  0.38410  Biso   1.000  C
  C389     1.0000 0.99180  0.16910  0.23780  Biso   1.000  C
  H326     1.0000 0.01310  0.20740  0.24050  Biso   1.000  H
  H327     1.0000 0.96670  0.17140  0.22000  Biso   1.000  H
  H328     1.0000 0.02110  0.13650  0.23560  Biso   1.000  H
  C390     1.0000 0.74030  0.17630  0.27030  Biso   1.000  C
  H329     1.0000 0.74160  0.13890  0.25890  Biso   1.000  H
  H330     1.0000 0.76150  0.20810  0.25960  Biso   1.000  H
  H331     1.0000 0.69830  0.18820  0.27340  Biso   1.000  H
  C391     1.0000 0.97050  0.87370  0.12922  Biso   1.000  C
  C392     1.0000 0.01340  0.87200  0.10357  Biso   1.000  C
  C393     1.0000 0.04980  0.92380  0.09663  Biso   1.000  C
  H332     1.0000 0.04560  0.96050  0.10720  Biso   1.000  H
  C394     1.0000 0.09290  0.91760  0.07290  Biso   1.000  C
  C395     1.0000 0.09080  0.87150  0.05279  Biso   1.000  C
  C396     1.0000 0.06380  0.81860  0.06313  Biso   1.000  C
  H333     1.0000 0.07340  0.78140  0.05400  Biso   1.000  H
  C397     1.0000 0.02170  0.81960  0.08723  Biso   1.000  C
  H334     1.0000 0.99960  0.78440  0.09200  Biso   1.000  H
  C398     1.0000 0.13240  0.87210  0.02603  Biso   1.000  C
  C399     1.0000 0.10750  0.86410  0.99730  Biso   1.000  C
  C400     1.0000 0.14140  0.86130  0.97220  Biso   1.000  C
  H335     1.0000 0.12390  0.84940  0.95400  Biso   1.000  H
  C401     1.0000 0.20380  0.87670  0.97396  Biso   1.000  C
  C402     1.0000 0.23050  0.87900  0.00270  Biso   1.000  C
  H336     1.0000 0.27300  0.87830  0.00470  Biso   1.000  H
  C403     1.0000 0.19420  0.88230  0.02761  Biso   1.000  C
  C404     1.0000 0.24360  0.88170  0.94657  Biso   1.000  C
  C405     1.0000 0.17040  0.98460  0.09510  Biso   1.000  C
  H337     1.0000 0.19730  0.01820  0.09030  Biso   1.000  H
  H338     1.0000 0.19400  0.95150  0.10350  Biso   1.000  H
  H339     1.0000 0.14030  0.99790  0.10950  Biso   1.000  H
  C406     1.0000 0.01600  0.84880  0.97070  Biso   1.000  C
  H340     1.0000 0.98150  0.82710  0.97890  Biso   1.000  H
  H341     1.0000 0.03960  0.82160  0.95830  Biso   1.000  H
  H342     1.0000 0.00160  0.88270  0.95890  Biso   1.000  H
  C407     1.0000 0.71810  0.19940  0.30780  Biso   1.000  C
  H343     1.0000 0.70860  0.19960  0.32890  Biso   1.000  H
  H344     1.0000 0.68500  0.18060  0.29690  Biso   1.000  H
  H345     1.0000 0.72360  0.24090  0.30090  Biso   1.000  H
  C408     1.0000 0.13060  0.01790  0.08520  Biso   1.000  C
  H346     1.0000 0.10590  0.04750  0.07470  Biso   1.000  H
  H347     1.0000 0.17030  0.03520  0.08930  Biso   1.000  H
  H348     1.0000 0.11100  0.00700  0.10380  Biso   1.000  H
  O156     1.0000 0.22030  0.88600  0.05560  Biso   1.000  O
  Cd13     1.0000 0.88178  0.11955  0.82603  Biso   1.000  Cd
  O157     1.0000 0.95961  0.07470  0.79591  Biso   1.000  O
  O158     1.0000 0.92580  0.16570  0.78186  Biso   1.000  O
  O159     1.0000 0.29560  0.07913  0.60302  Biso   1.000  O
  O160     1.0000 0.30718  0.17840  0.60924  Biso   1.000  O
  O161     1.0000 0.15600  0.05100  0.73338  Biso   1.000  O
  O162     1.0000 0.16540  0.22660  0.69711  Biso   1.000  O
  O163     1.0000 0.92480  0.04420  0.85868  Biso   1.000  O
  O164     1.0000 0.82755  0.05518  0.86198  Biso   1.000  O
  O165     1.0000 0.88930  0.70106  0.04876  Biso   1.000  O
  O166     1.0000 0.87520  0.78343  0.07801  Biso   1.000  O
  O167     1.0000 0.96250  0.86220  0.93368  Biso   1.000  O
  O168     1.0000 0.87110  0.94670  0.00550  Biso   1.000  O
  C409     1.0000 0.96210  0.11740  0.77968  Biso   1.000  C
  C410     1.0000 0.00710  0.11910  0.75347  Biso   1.000  C
  C411     1.0000 0.00740  0.16540  0.73234  Biso   1.000  C
  H349     1.0000 0.97810  0.19640  0.73340  Biso   1.000  H
  C412     1.0000 0.05030  0.16630  0.70987  Biso   1.000  C
  H350     1.0000 0.04890  0.19800  0.69580  Biso   1.000  H
  C413     1.0000 0.09510  0.12250  0.70715  Biso   1.000  C
  C414     1.0000 0.10030  0.08430  0.73354  Biso   1.000  C
  C415     1.0000 0.05660  0.07960  0.75347  Biso   1.000  C
  H351     1.0000 0.05890  0.04900  0.76800  Biso   1.000  H
  C416     1.0000 0.14160  0.12700  0.68309  Biso   1.000  C
  C417     1.0000 0.15270  0.07740  0.66612  Biso   1.000  C
  H352     1.0000 0.12950  0.04220  0.66950  Biso   1.000  H
  C418     1.0000 0.19860  0.07580  0.64294  Biso   1.000  C
  H353     1.0000 0.20450  0.04050  0.63150  Biso   1.000  H
  C419     1.0000 0.23380  0.12740  0.63795  Biso   1.000  C
  C420     1.0000 0.22040  0.17900  0.65583  Biso   1.000  C
  H354     1.0000 0.24090  0.21560  0.65200  Biso   1.000  H
  C421     1.0000 0.17710  0.17700  0.67919  Biso   1.000  C
  C422     1.0000 0.28380  0.12860  0.61590  Biso   1.000  C
  C423     1.0000 0.16910  0.00820  0.76220  Biso   1.000  C
  H355     1.0000 0.20740  0.98690  0.75950  Biso   1.000  H
  H356     1.0000 0.17140  0.03330  0.78000  Biso   1.000  H
  H357     1.0000 0.13650  0.97890  0.76440  Biso   1.000  H
  C424     1.0000 0.17630  0.25970  0.72970  Biso   1.000  C
  H358     1.0000 0.13890  0.25840  0.74110  Biso   1.000  H
  H359     1.0000 0.20810  0.23850  0.74040  Biso   1.000  H
  H360     1.0000 0.18820  0.30170  0.72660  Biso   1.000  H
  C425     1.0000 0.87370  0.02950  0.87078  Biso   1.000  C
  C426     1.0000 0.87200  0.98660  0.89643  Biso   1.000  C
  C427     1.0000 0.92380  0.95020  0.90337  Biso   1.000  C
  H361     1.0000 0.96050  0.95440  0.89280  Biso   1.000  H
  C428     1.0000 0.91760  0.90710  0.92710  Biso   1.000  C
  C429     1.0000 0.87150  0.90920  0.94721  Biso   1.000  C
  C430     1.0000 0.81860  0.93620  0.93687  Biso   1.000  C
  H362     1.0000 0.78140  0.92660  0.94600  Biso   1.000  H
  C431     1.0000 0.81960  0.97830  0.91277  Biso   1.000  C
  H363     1.0000 0.78440  0.00040  0.90800  Biso   1.000  H
  C432     1.0000 0.87210  0.86760  0.97397  Biso   1.000  C
  C433     1.0000 0.86410  0.89250  0.00270  Biso   1.000  C
  C434     1.0000 0.86130  0.85860  0.02780  Biso   1.000  C
  H364     1.0000 0.84940  0.87610  0.04600  Biso   1.000  H
  C435     1.0000 0.87670  0.79620  0.02604  Biso   1.000  C
  C436     1.0000 0.87900  0.76950  0.99730  Biso   1.000  C
  H365     1.0000 0.87830  0.72700  0.99530  Biso   1.000  H
  C437     1.0000 0.88230  0.80580  0.97239  Biso   1.000  C
  C438     1.0000 0.88170  0.75640  0.05343  Biso   1.000  C
  C439     1.0000 0.98460  0.82960  0.90490  Biso   1.000  C
  H366     1.0000 0.01820  0.80270  0.90970  Biso   1.000  H
  H367     1.0000 0.95150  0.80600  0.89650  Biso   1.000  H
  H368     1.0000 0.99790  0.85970  0.89050  Biso   1.000  H
  C440     1.0000 0.84880  0.98400  0.02930  Biso   1.000  C
  H369     1.0000 0.82710  0.01850  0.02110  Biso   1.000  H
  H370     1.0000 0.82160  0.96040  0.04170  Biso   1.000  H
  H371     1.0000 0.88270  0.99840  0.04110  Biso   1.000  H
  C441     1.0000 0.19940  0.28190  0.69220  Biso   1.000  C
  H372     1.0000 0.19960  0.29140  0.67110  Biso   1.000  H
  H373     1.0000 0.18060  0.31500  0.70310  Biso   1.000  H
  H374     1.0000 0.24090  0.27640  0.69910  Biso   1.000  H
  C442     1.0000 0.01790  0.86940  0.91480  Biso   1.000  C
  H375     1.0000 0.04750  0.89410  0.92530  Biso   1.000  H
  H376     1.0000 0.03520  0.82970  0.91070  Biso   1.000  H
  H377     1.0000 0.00700  0.88900  0.89620  Biso   1.000  H
  O169     1.0000 0.88600  0.77970  0.94440  Biso   1.000  O
  Cd14     1.0000 0.38178  0.61955  0.32603  Biso   1.000  Cd
  O170     1.0000 0.45961  0.57470  0.29591  Biso   1.000  O
  O171     1.0000 0.42580  0.66570  0.28186  Biso   1.000  O
  O172     1.0000 0.79560  0.57913  0.10302  Biso   1.000  O
  O173     1.0000 0.80718  0.67840  0.10924  Biso   1.000  O
  O174     1.0000 0.65600  0.55100  0.23338  Biso   1.000  O
  O175     1.0000 0.66540  0.72660  0.19711  Biso   1.000  O
  O176     1.0000 0.42480  0.54420  0.35868  Biso   1.000  O
  O177     1.0000 0.32755  0.55518  0.36198  Biso   1.000  O
  O178     1.0000 0.38930  0.20106  0.54876  Biso   1.000  O
  O179     1.0000 0.37520  0.28343  0.57801  Biso   1.000  O
  O180     1.0000 0.46250  0.36220  0.43368  Biso   1.000  O
  O181     1.0000 0.37110  0.44670  0.50550  Biso   1.000  O
  C443     1.0000 0.46210  0.61740  0.27968  Biso   1.000  C
  C444     1.0000 0.50710  0.61910  0.25347  Biso   1.000  C
  C445     1.0000 0.50740  0.66540  0.23234  Biso   1.000  C
  H378     1.0000 0.47810  0.69640  0.23340  Biso   1.000  H
  C446     1.0000 0.55030  0.66630  0.20987  Biso   1.000  C
  H379     1.0000 0.54890  0.69800  0.19580  Biso   1.000  H
  C447     1.0000 0.59510  0.62250  0.20715  Biso   1.000  C
  C448     1.0000 0.60030  0.58430  0.23354  Biso   1.000  C
  C449     1.0000 0.55660  0.57960  0.25347  Biso   1.000  C
  H380     1.0000 0.55890  0.54900  0.26800  Biso   1.000  H
  C450     1.0000 0.64160  0.62700  0.18309  Biso   1.000  C
  C451     1.0000 0.65270  0.57740  0.16612  Biso   1.000  C
  H381     1.0000 0.62950  0.54220  0.16950  Biso   1.000  H
  C452     1.0000 0.69860  0.57580  0.14294  Biso   1.000  C
  H382     1.0000 0.70450  0.54050  0.13150  Biso   1.000  H
  C453     1.0000 0.73380  0.62740  0.13795  Biso   1.000  C
  C454     1.0000 0.72040  0.67900  0.15583  Biso   1.000  C
  H383     1.0000 0.74090  0.71560  0.15200  Biso   1.000  H
  C455     1.0000 0.67710  0.67700  0.17919  Biso   1.000  C
  C456     1.0000 0.78380  0.62860  0.11590  Biso   1.000  C
  C457     1.0000 0.66910  0.50820  0.26220  Biso   1.000  C
  H384     1.0000 0.70740  0.48690  0.25950  Biso   1.000  H
  H385     1.0000 0.67140  0.53330  0.28000  Biso   1.000  H
  H386     1.0000 0.63650  0.47890  0.26440  Biso   1.000  H
  C458     1.0000 0.67630  0.75970  0.22970  Biso   1.000  C
  H387     1.0000 0.63890  0.75840  0.24110  Biso   1.000  H
  H388     1.0000 0.70810  0.73850  0.24040  Biso   1.000  H
  H389     1.0000 0.68820  0.80170  0.22660  Biso   1.000  H
  C459     1.0000 0.37370  0.52950  0.37078  Biso   1.000  C
  C460     1.0000 0.37200  0.48660  0.39643  Biso   1.000  C
  C461     1.0000 0.42380  0.45020  0.40337  Biso   1.000  C
  H390     1.0000 0.46050  0.45440  0.39280  Biso   1.000  H
  C462     1.0000 0.41760  0.40710  0.42710  Biso   1.000  C
  C463     1.0000 0.37150  0.40920  0.44721  Biso   1.000  C
  C464     1.0000 0.31860  0.43620  0.43687  Biso   1.000  C
  H391     1.0000 0.28140  0.42660  0.44600  Biso   1.000  H
  C465     1.0000 0.31960  0.47830  0.41277  Biso   1.000  C
  H392     1.0000 0.28440  0.50040  0.40800  Biso   1.000  H
  C466     1.0000 0.37210  0.36760  0.47397  Biso   1.000  C
  C467     1.0000 0.36410  0.39250  0.50270  Biso   1.000  C
  C468     1.0000 0.36130  0.35860  0.52780  Biso   1.000  C
  H393     1.0000 0.34940  0.37610  0.54600  Biso   1.000  H
  C469     1.0000 0.37670  0.29620  0.52604  Biso   1.000  C
  C470     1.0000 0.37900  0.26950  0.49730  Biso   1.000  C
  H394     1.0000 0.37830  0.22700  0.49530  Biso   1.000  H
  C471     1.0000 0.38230  0.30580  0.47239  Biso   1.000  C
  C472     1.0000 0.38170  0.25640  0.55343  Biso   1.000  C
  C473     1.0000 0.48460  0.32960  0.40490  Biso   1.000  C
  H395     1.0000 0.51820  0.30270  0.40970  Biso   1.000  H
  H396     1.0000 0.45150  0.30600  0.39650  Biso   1.000  H
  H397     1.0000 0.49790  0.35970  0.39050  Biso   1.000  H
  C474     1.0000 0.34880  0.48400  0.52930  Biso   1.000  C
  H398     1.0000 0.32710  0.51850  0.52110  Biso   1.000  H
  H399     1.0000 0.32160  0.46040  0.54170  Biso   1.000  H
  H400     1.0000 0.38270  0.49840  0.54110  Biso   1.000  H
  C475     1.0000 0.69940  0.78190  0.19220  Biso   1.000  C
  H401     1.0000 0.69960  0.79140  0.17110  Biso   1.000  H
  H402     1.0000 0.68060  0.81500  0.20310  Biso   1.000  H
  H403     1.0000 0.74090  0.77640  0.19910  Biso   1.000  H
  C476     1.0000 0.51790  0.36940  0.41480  Biso   1.000  C
  H404     1.0000 0.54750  0.39410  0.42530  Biso   1.000  H
  H405     1.0000 0.53520  0.32970  0.41070  Biso   1.000  H
  H406     1.0000 0.50700  0.38900  0.39620  Biso   1.000  H
  O182     1.0000 0.38600  0.27970  0.44440  Biso   1.000  O
  Cd15     1.0000 0.11822  0.88045  0.82603  Biso   1.000  Cd
  O183     1.0000 0.04039  0.92530  0.79591  Biso   1.000  O
  O184     1.0000 0.07420  0.83430  0.78186  Biso   1.000  O
  O185     1.0000 0.70440  0.92087  0.60302  Biso   1.000  O
  O186     1.0000 0.69282  0.82160  0.60924  Biso   1.000  O
  O187     1.0000 0.84400  0.94900  0.73338  Biso   1.000  O
  O188     1.0000 0.83460  0.77340  0.69711  Biso   1.000  O
  O189     1.0000 0.07520  0.95580  0.85868  Biso   1.000  O
  O190     1.0000 0.17245  0.94482  0.86198  Biso   1.000  O
  O191     1.0000 0.11070  0.29894  0.04876  Biso   1.000  O
  O192     1.0000 0.12480  0.21657  0.07801  Biso   1.000  O
  O193     1.0000 0.03750  0.13780  0.93368  Biso   1.000  O
  O194     1.0000 0.12890  0.05330  0.00550  Biso   1.000  O
  C477     1.0000 0.03790  0.88260  0.77968  Biso   1.000  C
  C478     1.0000 0.99290  0.88090  0.75347  Biso   1.000  C
  C479     1.0000 0.99260  0.83460  0.73234  Biso   1.000  C
  H407     1.0000 0.02190  0.80360  0.73340  Biso   1.000  H
  C480     1.0000 0.94970  0.83370  0.70987  Biso   1.000  C
  H408     1.0000 0.95110  0.80200  0.69580  Biso   1.000  H
  C481     1.0000 0.90490  0.87750  0.70715  Biso   1.000  C
  C482     1.0000 0.89970  0.91570  0.73354  Biso   1.000  C
  C483     1.0000 0.94340  0.92040  0.75347  Biso   1.000  C
  H409     1.0000 0.94110  0.95100  0.76800  Biso   1.000  H
  C484     1.0000 0.85840  0.87300  0.68309  Biso   1.000  C
  C485     1.0000 0.84730  0.92260  0.66612  Biso   1.000  C
  H410     1.0000 0.87050  0.95780  0.66950  Biso   1.000  H
  C486     1.0000 0.80140  0.92420  0.64294  Biso   1.000  C
  H411     1.0000 0.79550  0.95950  0.63150  Biso   1.000  H
  C487     1.0000 0.76620  0.87260  0.63795  Biso   1.000  C
  C488     1.0000 0.77960  0.82100  0.65583  Biso   1.000  C
  H412     1.0000 0.75910  0.78440  0.65200  Biso   1.000  H
  C489     1.0000 0.82290  0.82300  0.67919  Biso   1.000  C
  C490     1.0000 0.71620  0.87140  0.61590  Biso   1.000  C
  C491     1.0000 0.83090  0.99180  0.76220  Biso   1.000  C
  H413     1.0000 0.79260  0.01310  0.75950  Biso   1.000  H
  H414     1.0000 0.82860  0.96670  0.78000  Biso   1.000  H
  H415     1.0000 0.86350  0.02110  0.76440  Biso   1.000  H
  C492     1.0000 0.82370  0.74030  0.72970  Biso   1.000  C
  H416     1.0000 0.86110  0.74160  0.74110  Biso   1.000  H
  H417     1.0000 0.79190  0.76150  0.74040  Biso   1.000  H
  H418     1.0000 0.81180  0.69830  0.72660  Biso   1.000  H
  C493     1.0000 0.12630  0.97050  0.87078  Biso   1.000  C
  C494     1.0000 0.12800  0.01340  0.89643  Biso   1.000  C
  C495     1.0000 0.07620  0.04980  0.90337  Biso   1.000  C
  H419     1.0000 0.03950  0.04560  0.89280  Biso   1.000  H
  C496     1.0000 0.08240  0.09290  0.92710  Biso   1.000  C
  C497     1.0000 0.12850  0.09080  0.94721  Biso   1.000  C
  C498     1.0000 0.18140  0.06380  0.93687  Biso   1.000  C
  H420     1.0000 0.21860  0.07340  0.94600  Biso   1.000  H
  C499     1.0000 0.18040  0.02170  0.91277  Biso   1.000  C
  H421     1.0000 0.21560  0.99960  0.90800  Biso   1.000  H
  C500     1.0000 0.12790  0.13240  0.97397  Biso   1.000  C
  C501     1.0000 0.13590  0.10750  0.00270  Biso   1.000  C
  C502     1.0000 0.13870  0.14140  0.02780  Biso   1.000  C
  H422     1.0000 0.15060  0.12390  0.04600  Biso   1.000  H
  C503     1.0000 0.12330  0.20380  0.02604  Biso   1.000  C
  C504     1.0000 0.12100  0.23050  0.99730  Biso   1.000  C
  H423     1.0000 0.12170  0.27300  0.99530  Biso   1.000  H
  C505     1.0000 0.11770  0.19420  0.97239  Biso   1.000  C
  C506     1.0000 0.11830  0.24360  0.05343  Biso   1.000  C
  C507     1.0000 0.01540  0.17040  0.90490  Biso   1.000  C
  H424     1.0000 0.98180  0.19730  0.90970  Biso   1.000  H
  H425     1.0000 0.04850  0.19400  0.89650  Biso   1.000  H
  H426     1.0000 0.00210  0.14030  0.89050  Biso   1.000  H
  C508     1.0000 0.15120  0.01600  0.02930  Biso   1.000  C
  H427     1.0000 0.17290  0.98150  0.02110  Biso   1.000  H
  H428     1.0000 0.17840  0.03960  0.04170  Biso   1.000  H
  H429     1.0000 0.11730  0.00160  0.04110  Biso   1.000  H
  C509     1.0000 0.80060  0.71810  0.69220  Biso   1.000  C
  H430     1.0000 0.80040  0.70860  0.67110  Biso   1.000  H
  H431     1.0000 0.81940  0.68500  0.70310  Biso   1.000  H
  H432     1.0000 0.75910  0.72360  0.69910  Biso   1.000  H
  C510     1.0000 0.98210  0.13060  0.91480  Biso   1.000  C
  H433     1.0000 0.95250  0.10590  0.92530  Biso   1.000  H
  H434     1.0000 0.96480  0.17030  0.91070  Biso   1.000  H
  H435     1.0000 0.99300  0.11100  0.89620  Biso   1.000  H
  O195     1.0000 0.11400  0.22030  0.94440  Biso   1.000  O
  Cd16     1.0000 0.61822  0.38045  0.32603  Biso   1.000  Cd
  O196     1.0000 0.54039  0.42530  0.29591  Biso   1.000  O
  O197     1.0000 0.57420  0.33430  0.28186  Biso   1.000  O
  O198     1.0000 0.20440  0.42087  0.10302  Biso   1.000  O
  O199     1.0000 0.19282  0.32160  0.10924  Biso   1.000  O
  O200     1.0000 0.34400  0.44900  0.23338  Biso   1.000  O
  O201     1.0000 0.33460  0.27340  0.19711  Biso   1.000  O
  O202     1.0000 0.57520  0.45580  0.35868  Biso   1.000  O
  O203     1.0000 0.67245  0.44482  0.36198  Biso   1.000  O
  O204     1.0000 0.61070  0.79894  0.54876  Biso   1.000  O
  O205     1.0000 0.62480  0.71657  0.57801  Biso   1.000  O
  O206     1.0000 0.53750  0.63780  0.43368  Biso   1.000  O
  O207     1.0000 0.62890  0.55330  0.50550  Biso   1.000  O
  C511     1.0000 0.53790  0.38260  0.27968  Biso   1.000  C
  C512     1.0000 0.49290  0.38090  0.25347  Biso   1.000  C
  C513     1.0000 0.49260  0.33460  0.23234  Biso   1.000  C
  H436     1.0000 0.52190  0.30360  0.23340  Biso   1.000  H
  C514     1.0000 0.44970  0.33370  0.20987  Biso   1.000  C
  H437     1.0000 0.45110  0.30200  0.19580  Biso   1.000  H
  C515     1.0000 0.40490  0.37750  0.20715  Biso   1.000  C
  C516     1.0000 0.39970  0.41570  0.23354  Biso   1.000  C
  C517     1.0000 0.44340  0.42040  0.25347  Biso   1.000  C
  H438     1.0000 0.44110  0.45100  0.26800  Biso   1.000  H
  C518     1.0000 0.35840  0.37300  0.18309  Biso   1.000  C
  C519     1.0000 0.34730  0.42260  0.16612  Biso   1.000  C
  H439     1.0000 0.37050  0.45780  0.16950  Biso   1.000  H
  C520     1.0000 0.30140  0.42420  0.14294  Biso   1.000  C
  H440     1.0000 0.29550  0.45950  0.13150  Biso   1.000  H
  C521     1.0000 0.26620  0.37260  0.13795  Biso   1.000  C
  C522     1.0000 0.27960  0.32100  0.15583  Biso   1.000  C
  H441     1.0000 0.25910  0.28440  0.15200  Biso   1.000  H
  C523     1.0000 0.32290  0.32300  0.17919  Biso   1.000  C
  C524     1.0000 0.21620  0.37140  0.11590  Biso   1.000  C
  C525     1.0000 0.33090  0.49180  0.26220  Biso   1.000  C
  H442     1.0000 0.29260  0.51310  0.25950  Biso   1.000  H
  H443     1.0000 0.32860  0.46670  0.28000  Biso   1.000  H
  H444     1.0000 0.36350  0.52110  0.26440  Biso   1.000  H
  C526     1.0000 0.32370  0.24030  0.22970  Biso   1.000  C
  H445     1.0000 0.36110  0.24160  0.24110  Biso   1.000  H
  H446     1.0000 0.29190  0.26150  0.24040  Biso   1.000  H
  H447     1.0000 0.31180  0.19830  0.22660  Biso   1.000  H
  C527     1.0000 0.62630  0.47050  0.37078  Biso   1.000  C
  C528     1.0000 0.62800  0.51340  0.39643  Biso   1.000  C
  C529     1.0000 0.57620  0.54980  0.40337  Biso   1.000  C
  H448     1.0000 0.53950  0.54560  0.39280  Biso   1.000  H
  C530     1.0000 0.58240  0.59290  0.42710  Biso   1.000  C
  C531     1.0000 0.62850  0.59080  0.44721  Biso   1.000  C
  C532     1.0000 0.68140  0.56380  0.43687  Biso   1.000  C
  H449     1.0000 0.71860  0.57340  0.44600  Biso   1.000  H
  C533     1.0000 0.68040  0.52170  0.41277  Biso   1.000  C
  H450     1.0000 0.71560  0.49960  0.40800  Biso   1.000  H
  C534     1.0000 0.62790  0.63240  0.47397  Biso   1.000  C
  C535     1.0000 0.63590  0.60750  0.50270  Biso   1.000  C
  C536     1.0000 0.63870  0.64140  0.52780  Biso   1.000  C
  H451     1.0000 0.65060  0.62390  0.54600  Biso   1.000  H
  C537     1.0000 0.62330  0.70380  0.52604  Biso   1.000  C
  C538     1.0000 0.62100  0.73050  0.49730  Biso   1.000  C
  H452     1.0000 0.62170  0.77300  0.49530  Biso   1.000  H
  C539     1.0000 0.61770  0.69420  0.47239  Biso   1.000  C
  C540     1.0000 0.61830  0.74360  0.55343  Biso   1.000  C
  C541     1.0000 0.51540  0.67040  0.40490  Biso   1.000  C
  H453     1.0000 0.48180  0.69730  0.40970  Biso   1.000  H
  H454     1.0000 0.54850  0.69400  0.39650  Biso   1.000  H
  H455     1.0000 0.50210  0.64030  0.39050  Biso   1.000  H
  C542     1.0000 0.65120  0.51600  0.52930  Biso   1.000  C
  H456     1.0000 0.67290  0.48150  0.52110  Biso   1.000  H
  H457     1.0000 0.67840  0.53960  0.54170  Biso   1.000  H
  H458     1.0000 0.61730  0.50160  0.54110  Biso   1.000  H
  C543     1.0000 0.30060  0.21810  0.19220  Biso   1.000  C
  H459     1.0000 0.30040  0.20860  0.17110  Biso   1.000  H
  H460     1.0000 0.31940  0.18500  0.20310  Biso   1.000  H
  H461     1.0000 0.25910  0.22360  0.19910  Biso   1.000  H
  C544     1.0000 0.48210  0.63060  0.41480  Biso   1.000  C
  H462     1.0000 0.45250  0.60590  0.42530  Biso   1.000  H
  H463     1.0000 0.46480  0.67030  0.41070  Biso   1.000  H
  H464     1.0000 0.49300  0.61100  0.39620  Biso   1.000  H
  O208     1.0000 0.61400  0.72030  0.44440  Biso   1.000  O
  Cd17     1.0000 0.87801  0.75000  0.12500  Biso   1.000  Cd
  Cd18     1.0000 0.12199  0.25000  0.12500  Biso   1.000  Cd
  Cd19     1.0000 0.75000  0.12199  0.87500  Biso   1.000  Cd
  Cd20     1.0000 0.25000  0.62199  0.37500  Biso   1.000  Cd
  Cd21     1.0000 0.25000  0.87801  0.87500  Biso   1.000  Cd
  Cd22     1.0000 0.75000  0.37801  0.37500  Biso   1.000  Cd
  Cd23     1.0000 0.62199  0.75000  0.62500  Biso   1.000  Cd
  Cd24     1.0000 0.37801  0.25000  0.62500  Biso   1.000  Cd
  Na1      1.0000 0.00000  0.50000  0.07677  Biso   1.000  Na
  Na2      1.0000 0.50000  0.00000  0.57677  Biso   1.000  Na
  Na3      1.0000 0.50000  0.00000  0.92323  Biso   1.000  Na
  Na4      1.0000 0.00000  0.50000  0.42323  Biso   1.000  Na
  Na5      1.0000 0.50000  0.50000  0.67323  Biso   1.000  Na
  Na6      1.0000 0.00000  0.00000  0.17323  Biso   1.000  Na
  Na7      1.0000 0.00000  0.00000  0.82677  Biso   1.000  Na
  Na8      1.0000 0.50000  0.50000  0.32677  Biso   1.000  Na
