data_image0
_cell_length_a       34.351
_cell_length_b       34.351
_cell_length_c       14.71
_cell_angle_alpha    90
_cell_angle_beta     90
_cell_angle_gamma    90

_symmetry_space_group_name_H-M    "P 1"
_symmetry_int_tables_number       1

loop_
  _symmetry_equiv_pos_as_xyz
  'x, y, z'

loop_
  _atom_site_label
  _atom_site_occupancy
  _atom_site_fract_x
  _atom_site_fract_y
  _atom_site_fract_z
  _atom_site_thermal_displace_type
  _atom_site_B_iso_or_equiv
  _atom_site_type_symbol
  O1       1.0000 0.24960  0.67000  0.17300  Biso   1.000  O
  O2       1.0000 0.19450  0.65940  0.09030  Biso   1.000  O
  O3       1.0000 0.21280  0.36250  0.41080  Biso   1.000  O
  O4       1.0000 0.21360  0.73640  0.11570  Biso   1.000  O
  H1       1.0000 0.20560  0.72860  0.17670  Biso   1.000  H
  O5       1.0000 0.27430  0.35310  0.32810  Biso   1.000  O
  C1       1.0000 0.22290  0.64900  0.14600  Biso   1.000  C
  C2       1.0000 0.22230  0.60840  0.17900  Biso   1.000  C
  C3       1.0000 0.24980  0.59550  0.24160  Biso   1.000  C
  H2       1.0000 0.26710  0.61380  0.26990  Biso   1.000  H
  C4       1.0000 0.25220  0.55620  0.26310  Biso   1.000  C
  H3       1.0000 0.27110  0.54730  0.30630  Biso   1.000  H
  C5       1.0000 0.22710  0.52970  0.22220  Biso   1.000  C
  C6       1.0000 0.19960  0.54260  0.15960  Biso   1.000  C
  C7       1.0000 0.19720  0.58190  0.13810  Biso   1.000  C
  H4       1.0000 0.17830  0.59080  0.09490  Biso   1.000  H
  C8       1.0000 0.22980  0.48890  0.25070  Biso   1.000  C
  C9       1.0000 0.25830  0.46440  0.21530  Biso   1.000  C
  H5       1.0000 0.27520  0.47350  0.16810  Biso   1.000  H
  C10      1.0000 0.26210  0.42670  0.24830  Biso   1.000  C
  H6       1.0000 0.28180  0.40980  0.22380  Biso   1.000  H
  C11      1.0000 0.23750  0.41340  0.31670  Biso   1.000  C
  C12      1.0000 0.20910  0.43790  0.35210  Biso   1.000  C
  H7       1.0000 0.19210  0.42870  0.39930  Biso   1.000  H
  C13      1.0000 0.20520  0.47560  0.31910  Biso   1.000  C
  C14      1.0000 0.17990  0.50330  0.39080  Biso   1.000  C
  H8       1.0000 0.16520  0.48700  0.43130  Biso   1.000  H
  H9       1.0000 0.19740  0.51920  0.42540  Biso   1.000  H
  H10      1.0000 0.16240  0.51960  0.35710  Biso   1.000  H
  C15      1.0000 0.24090  0.37330  0.35410  Biso   1.000  C
  O6       1.0000 0.75040  0.33000  0.17300  Biso   1.000  O
  O7       1.0000 0.80550  0.34060  0.09030  Biso   1.000  O
  O8       1.0000 0.78720  0.63750  0.41080  Biso   1.000  O
  O9       1.0000 0.78640  0.26360  0.11570  Biso   1.000  O
  H11      1.0000 0.79440  0.27140  0.17670  Biso   1.000  H
  O10      1.0000 0.72570  0.64690  0.32810  Biso   1.000  O
  C16      1.0000 0.77710  0.35100  0.14600  Biso   1.000  C
  C17      1.0000 0.77770  0.39160  0.17900  Biso   1.000  C
  C18      1.0000 0.75020  0.40450  0.24160  Biso   1.000  C
  H12      1.0000 0.73290  0.38620  0.26990  Biso   1.000  H
  C19      1.0000 0.74780  0.44380  0.26310  Biso   1.000  C
  H13      1.0000 0.72890  0.45270  0.30630  Biso   1.000  H
  C20      1.0000 0.77290  0.47030  0.22220  Biso   1.000  C
  C21      1.0000 0.80040  0.45740  0.15960  Biso   1.000  C
  C22      1.0000 0.80280  0.41810  0.13810  Biso   1.000  C
  H14      1.0000 0.82170  0.40920  0.09490  Biso   1.000  H
  C23      1.0000 0.77020  0.51110  0.25070  Biso   1.000  C
  C24      1.0000 0.74170  0.53560  0.21530  Biso   1.000  C
  H15      1.0000 0.72480  0.52650  0.16810  Biso   1.000  H
  C25      1.0000 0.73790  0.57330  0.24830  Biso   1.000  C
  H16      1.0000 0.71820  0.59020  0.22380  Biso   1.000  H
  C26      1.0000 0.76250  0.58660  0.31670  Biso   1.000  C
  C27      1.0000 0.79090  0.56210  0.35210  Biso   1.000  C
  H17      1.0000 0.80790  0.57130  0.39930  Biso   1.000  H
  C28      1.0000 0.79480  0.52440  0.31910  Biso   1.000  C
  C29      1.0000 0.82010  0.49670  0.39080  Biso   1.000  C
  H18      1.0000 0.83480  0.51300  0.43130  Biso   1.000  H
  H19      1.0000 0.80260  0.48080  0.42540  Biso   1.000  H
  H20      1.0000 0.83760  0.48040  0.35710  Biso   1.000  H
  C30      1.0000 0.75910  0.62670  0.35410  Biso   1.000  C
  O11      1.0000 0.83000  0.74960  0.67300  Biso   1.000  O
  O12      1.0000 0.84060  0.69450  0.59030  Biso   1.000  O
  O13      1.0000 0.13750  0.71280  0.91080  Biso   1.000  O
  O14      1.0000 0.76360  0.71360  0.61570  Biso   1.000  O
  H21      1.0000 0.77140  0.70560  0.67670  Biso   1.000  H
  O15      1.0000 0.14690  0.77430  0.82810  Biso   1.000  O
  C31      1.0000 0.85100  0.72290  0.64600  Biso   1.000  C
  C32      1.0000 0.89160  0.72230  0.67900  Biso   1.000  C
  C33      1.0000 0.90450  0.74980  0.74160  Biso   1.000  C
  H22      1.0000 0.88620  0.76710  0.76990  Biso   1.000  H
  C34      1.0000 0.94380  0.75220  0.76310  Biso   1.000  C
  H23      1.0000 0.95270  0.77110  0.80630  Biso   1.000  H
  C35      1.0000 0.97030  0.72710  0.72220  Biso   1.000  C
  C36      1.0000 0.95740  0.69960  0.65960  Biso   1.000  C
  C37      1.0000 0.91810  0.69720  0.63810  Biso   1.000  C
  H24      1.0000 0.90920  0.67830  0.59490  Biso   1.000  H
  C38      1.0000 0.01110  0.72980  0.75070  Biso   1.000  C
  C39      1.0000 0.03560  0.75830  0.71530  Biso   1.000  C
  H25      1.0000 0.02650  0.77520  0.66810  Biso   1.000  H
  C40      1.0000 0.07330  0.76210  0.74830  Biso   1.000  C
  H26      1.0000 0.09020  0.78180  0.72380  Biso   1.000  H
  C41      1.0000 0.08660  0.73750  0.81670  Biso   1.000  C
  C42      1.0000 0.06210  0.70910  0.85210  Biso   1.000  C
  H27      1.0000 0.07130  0.69210  0.89930  Biso   1.000  H
  C43      1.0000 0.02440  0.70520  0.81910  Biso   1.000  C
  C44      1.0000 0.99670  0.67990  0.89080  Biso   1.000  C
  H28      1.0000 0.01300  0.66520  0.93130  Biso   1.000  H
  H29      1.0000 0.98080  0.69740  0.92540  Biso   1.000  H
  H30      1.0000 0.98040  0.66240  0.85710  Biso   1.000  H
  C45      1.0000 0.12670  0.74090  0.85410  Biso   1.000  C
  O16      1.0000 0.17000  0.25040  0.67300  Biso   1.000  O
  O17      1.0000 0.15940  0.30550  0.59030  Biso   1.000  O
  O18      1.0000 0.86250  0.28720  0.91080  Biso   1.000  O
  O19      1.0000 0.23640  0.28640  0.61570  Biso   1.000  O
  H31      1.0000 0.22860  0.29440  0.67670  Biso   1.000  H
  O20      1.0000 0.85310  0.22570  0.82810  Biso   1.000  O
  C46      1.0000 0.14900  0.27710  0.64600  Biso   1.000  C
  C47      1.0000 0.10840  0.27770  0.67900  Biso   1.000  C
  C48      1.0000 0.09550  0.25020  0.74160  Biso   1.000  C
  H32      1.0000 0.11380  0.23290  0.76990  Biso   1.000  H
  C49      1.0000 0.05620  0.24780  0.76310  Biso   1.000  C
  H33      1.0000 0.04730  0.22890  0.80630  Biso   1.000  H
  C50      1.0000 0.02970  0.27290  0.72220  Biso   1.000  C
  C51      1.0000 0.04260  0.30040  0.65960  Biso   1.000  C
  C52      1.0000 0.08190  0.30280  0.63810  Biso   1.000  C
  H34      1.0000 0.09080  0.32170  0.59490  Biso   1.000  H
  C53      1.0000 0.98890  0.27020  0.75070  Biso   1.000  C
  C54      1.0000 0.96440  0.24170  0.71530  Biso   1.000  C
  H35      1.0000 0.97350  0.22480  0.66810  Biso   1.000  H
  C55      1.0000 0.92670  0.23790  0.74830  Biso   1.000  C
  H36      1.0000 0.90980  0.21820  0.72380  Biso   1.000  H
  C56      1.0000 0.91340  0.26250  0.81670  Biso   1.000  C
  C57      1.0000 0.93790  0.29090  0.85210  Biso   1.000  C
  H37      1.0000 0.92870  0.30790  0.89930  Biso   1.000  H
  C58      1.0000 0.97560  0.29480  0.81910  Biso   1.000  C
  C59      1.0000 0.00330  0.32010  0.89080  Biso   1.000  C
  H38      1.0000 0.98700  0.33480  0.93130  Biso   1.000  H
  H39      1.0000 0.01920  0.30260  0.92540  Biso   1.000  H
  H40      1.0000 0.01960  0.33760  0.85710  Biso   1.000  H
  C60      1.0000 0.87330  0.25910  0.85410  Biso   1.000  C
  O21      1.0000 0.25040  0.17000  0.32700  Biso   1.000  O
  O22      1.0000 0.30550  0.15940  0.40970  Biso   1.000  O
  O23      1.0000 0.28720  0.86250  0.08920  Biso   1.000  O
  O24      1.0000 0.28640  0.23640  0.38430  Biso   1.000  O
  H41      1.0000 0.29440  0.22860  0.32330  Biso   1.000  H
  O25      1.0000 0.22570  0.85310  0.17190  Biso   1.000  O
  C61      1.0000 0.27710  0.14900  0.35400  Biso   1.000  C
  C62      1.0000 0.27770  0.10840  0.32100  Biso   1.000  C
  C63      1.0000 0.25020  0.09550  0.25840  Biso   1.000  C
  H42      1.0000 0.23290  0.11380  0.23010  Biso   1.000  H
  C64      1.0000 0.24780  0.05620  0.23690  Biso   1.000  C
  H43      1.0000 0.22890  0.04730  0.19370  Biso   1.000  H
  C65      1.0000 0.27290  0.02970  0.27780  Biso   1.000  C
  C66      1.0000 0.30040  0.04260  0.34040  Biso   1.000  C
  C67      1.0000 0.30280  0.08190  0.36190  Biso   1.000  C
  H44      1.0000 0.32170  0.09080  0.40510  Biso   1.000  H
  C68      1.0000 0.27020  0.98890  0.24930  Biso   1.000  C
  C69      1.0000 0.24170  0.96440  0.28470  Biso   1.000  C
  H45      1.0000 0.22480  0.97350  0.33190  Biso   1.000  H
  C70      1.0000 0.23790  0.92670  0.25170  Biso   1.000  C
  H46      1.0000 0.21820  0.90980  0.27620  Biso   1.000  H
  C71      1.0000 0.26250  0.91340  0.18330  Biso   1.000  C
  C72      1.0000 0.29090  0.93790  0.14790  Biso   1.000  C
  H47      1.0000 0.30790  0.92870  0.10070  Biso   1.000  H
  C73      1.0000 0.29480  0.97560  0.18090  Biso   1.000  C
  C74      1.0000 0.32010  0.00330  0.10920  Biso   1.000  C
  H48      1.0000 0.33480  0.98700  0.06870  Biso   1.000  H
  H49      1.0000 0.30260  0.01920  0.07460  Biso   1.000  H
  H50      1.0000 0.33760  0.01960  0.14290  Biso   1.000  H
  C75      1.0000 0.25910  0.87330  0.14590  Biso   1.000  C
  O26      1.0000 0.74960  0.83000  0.32700  Biso   1.000  O
  O27      1.0000 0.69450  0.84060  0.40970  Biso   1.000  O
  O28      1.0000 0.71280  0.13750  0.08920  Biso   1.000  O
  O29      1.0000 0.71360  0.76360  0.38430  Biso   1.000  O
  H51      1.0000 0.70560  0.77140  0.32330  Biso   1.000  H
  O30      1.0000 0.77430  0.14690  0.17190  Biso   1.000  O
  C76      1.0000 0.72290  0.85100  0.35400  Biso   1.000  C
  C77      1.0000 0.72230  0.89160  0.32100  Biso   1.000  C
  C78      1.0000 0.74980  0.90450  0.25840  Biso   1.000  C
  H52      1.0000 0.76710  0.88620  0.23010  Biso   1.000  H
  C79      1.0000 0.75220  0.94380  0.23690  Biso   1.000  C
  H53      1.0000 0.77110  0.95270  0.19370  Biso   1.000  H
  C80      1.0000 0.72710  0.97030  0.27780  Biso   1.000  C
  C81      1.0000 0.69960  0.95740  0.34040  Biso   1.000  C
  C82      1.0000 0.69720  0.91810  0.36190  Biso   1.000  C
  H54      1.0000 0.67830  0.90920  0.40510  Biso   1.000  H
  C83      1.0000 0.72980  0.01110  0.24930  Biso   1.000  C
  C84      1.0000 0.75830  0.03560  0.28470  Biso   1.000  C
  H55      1.0000 0.77520  0.02650  0.33190  Biso   1.000  H
  C85      1.0000 0.76210  0.07330  0.25170  Biso   1.000  C
  H56      1.0000 0.78180  0.09020  0.27620  Biso   1.000  H
  C86      1.0000 0.73750  0.08660  0.18330  Biso   1.000  C
  C87      1.0000 0.70910  0.06210  0.14790  Biso   1.000  C
  H57      1.0000 0.69210  0.07130  0.10070  Biso   1.000  H
  C88      1.0000 0.70520  0.02440  0.18090  Biso   1.000  C
  C89      1.0000 0.67990  0.99670  0.10920  Biso   1.000  C
  H58      1.0000 0.66520  0.01300  0.06870  Biso   1.000  H
  H59      1.0000 0.69740  0.98080  0.07460  Biso   1.000  H
  H60      1.0000 0.66240  0.98040  0.14290  Biso   1.000  H
  C90      1.0000 0.74090  0.12670  0.14590  Biso   1.000  C
  O31      1.0000 0.67000  0.24960  0.82700  Biso   1.000  O
  O32      1.0000 0.65940  0.19450  0.90970  Biso   1.000  O
  O33      1.0000 0.36250  0.21280  0.58920  Biso   1.000  O
  O34      1.0000 0.73640  0.21360  0.88430  Biso   1.000  O
  H61      1.0000 0.72860  0.20560  0.82330  Biso   1.000  H
  O35      1.0000 0.35310  0.27430  0.67190  Biso   1.000  O
  C91      1.0000 0.64900  0.22290  0.85400  Biso   1.000  C
  C92      1.0000 0.60840  0.22230  0.82100  Biso   1.000  C
  C93      1.0000 0.59550  0.24980  0.75840  Biso   1.000  C
  H62      1.0000 0.61380  0.26710  0.73010  Biso   1.000  H
  C94      1.0000 0.55620  0.25220  0.73690  Biso   1.000  C
  H63      1.0000 0.54730  0.27110  0.69370  Biso   1.000  H
  C95      1.0000 0.52970  0.22710  0.77780  Biso   1.000  C
  C96      1.0000 0.54260  0.19960  0.84040  Biso   1.000  C
  C97      1.0000 0.58190  0.19720  0.86190  Biso   1.000  C
  H64      1.0000 0.59080  0.17830  0.90510  Biso   1.000  H
  C98      1.0000 0.48890  0.22980  0.74930  Biso   1.000  C
  C99      1.0000 0.46440  0.25830  0.78470  Biso   1.000  C
  H65      1.0000 0.47350  0.27520  0.83190  Biso   1.000  H
  C100     1.0000 0.42670  0.26210  0.75170  Biso   1.000  C
  H66      1.0000 0.40980  0.28180  0.77620  Biso   1.000  H
  C101     1.0000 0.41340  0.23750  0.68330  Biso   1.000  C
  C102     1.0000 0.43790  0.20910  0.64790  Biso   1.000  C
  H67      1.0000 0.42870  0.19210  0.60070  Biso   1.000  H
  C103     1.0000 0.47560  0.20520  0.68090  Biso   1.000  C
  C104     1.0000 0.50330  0.17990  0.60920  Biso   1.000  C
  H68      1.0000 0.48700  0.16520  0.56870  Biso   1.000  H
  H69      1.0000 0.51920  0.19740  0.57460  Biso   1.000  H
  H70      1.0000 0.51960  0.16240  0.64290  Biso   1.000  H
  C105     1.0000 0.37330  0.24090  0.64590  Biso   1.000  C
  O36      1.0000 0.33000  0.75040  0.82700  Biso   1.000  O
  O37      1.0000 0.34060  0.80550  0.90970  Biso   1.000  O
  O38      1.0000 0.63750  0.78720  0.58920  Biso   1.000  O
  O39      1.0000 0.26360  0.78640  0.88430  Biso   1.000  O
  H71      1.0000 0.27140  0.79440  0.82330  Biso   1.000  H
  O40      1.0000 0.64690  0.72570  0.67190  Biso   1.000  O
  C106     1.0000 0.35100  0.77710  0.85400  Biso   1.000  C
  C107     1.0000 0.39160  0.77770  0.82100  Biso   1.000  C
  C108     1.0000 0.40450  0.75020  0.75840  Biso   1.000  C
  H72      1.0000 0.38620  0.73290  0.73010  Biso   1.000  H
  C109     1.0000 0.44380  0.74780  0.73690  Biso   1.000  C
  H73      1.0000 0.45270  0.72890  0.69370  Biso   1.000  H
  C110     1.0000 0.47030  0.77290  0.77780  Biso   1.000  C
  C111     1.0000 0.45740  0.80040  0.84040  Biso   1.000  C
  C112     1.0000 0.41810  0.80280  0.86190  Biso   1.000  C
  H74      1.0000 0.40920  0.82170  0.90510  Biso   1.000  H
  C113     1.0000 0.51110  0.77020  0.74930  Biso   1.000  C
  C114     1.0000 0.53560  0.74170  0.78470  Biso   1.000  C
  H75      1.0000 0.52650  0.72480  0.83190  Biso   1.000  H
  C115     1.0000 0.57330  0.73790  0.75170  Biso   1.000  C
  H76      1.0000 0.59020  0.71820  0.77620  Biso   1.000  H
  C116     1.0000 0.58660  0.76250  0.68330  Biso   1.000  C
  C117     1.0000 0.56210  0.79090  0.64790  Biso   1.000  C
  H77      1.0000 0.57130  0.80790  0.60070  Biso   1.000  H
  C118     1.0000 0.52440  0.79480  0.68090  Biso   1.000  C
  C119     1.0000 0.49670  0.82010  0.60920  Biso   1.000  C
  H78      1.0000 0.51300  0.83480  0.56870  Biso   1.000  H
  H79      1.0000 0.48080  0.80260  0.57460  Biso   1.000  H
  H80      1.0000 0.48040  0.83760  0.64290  Biso   1.000  H
  C120     1.0000 0.62670  0.75910  0.64590  Biso   1.000  C
  O41      1.0000 0.75040  0.33000  0.82700  Biso   1.000  O
  O42      1.0000 0.80550  0.34060  0.90970  Biso   1.000  O
  O43      1.0000 0.78720  0.63750  0.58920  Biso   1.000  O
  O44      1.0000 0.78640  0.26360  0.88430  Biso   1.000  O
  H81      1.0000 0.79440  0.27140  0.82330  Biso   1.000  H
  O45      1.0000 0.72570  0.64690  0.67190  Biso   1.000  O
  C121     1.0000 0.77710  0.35100  0.85400  Biso   1.000  C
  C122     1.0000 0.77770  0.39160  0.82100  Biso   1.000  C
  C123     1.0000 0.75020  0.40450  0.75840  Biso   1.000  C
  H82      1.0000 0.73290  0.38620  0.73010  Biso   1.000  H
  C124     1.0000 0.74780  0.44380  0.73690  Biso   1.000  C
  H83      1.0000 0.72890  0.45270  0.69370  Biso   1.000  H
  C125     1.0000 0.77290  0.47030  0.77780  Biso   1.000  C
  C126     1.0000 0.80040  0.45740  0.84040  Biso   1.000  C
  C127     1.0000 0.80280  0.41810  0.86190  Biso   1.000  C
  H84      1.0000 0.82170  0.40920  0.90510  Biso   1.000  H
  C128     1.0000 0.77020  0.51110  0.74930  Biso   1.000  C
  C129     1.0000 0.74170  0.53560  0.78470  Biso   1.000  C
  H85      1.0000 0.72480  0.52650  0.83190  Biso   1.000  H
  C130     1.0000 0.73790  0.57330  0.75170  Biso   1.000  C
  H86      1.0000 0.71820  0.59020  0.77620  Biso   1.000  H
  C131     1.0000 0.76250  0.58660  0.68330  Biso   1.000  C
  C132     1.0000 0.79090  0.56210  0.64790  Biso   1.000  C
  H87      1.0000 0.80790  0.57130  0.60070  Biso   1.000  H
  C133     1.0000 0.79480  0.52440  0.68090  Biso   1.000  C
  C134     1.0000 0.82010  0.49670  0.60920  Biso   1.000  C
  H88      1.0000 0.83480  0.51300  0.56870  Biso   1.000  H
  H89      1.0000 0.80260  0.48080  0.57460  Biso   1.000  H
  H90      1.0000 0.83760  0.48040  0.64290  Biso   1.000  H
  C135     1.0000 0.75910  0.62670  0.64590  Biso   1.000  C
  O46      1.0000 0.24960  0.67000  0.82700  Biso   1.000  O
  O47      1.0000 0.19450  0.65940  0.90970  Biso   1.000  O
  O48      1.0000 0.21280  0.36250  0.58920  Biso   1.000  O
  O49      1.0000 0.21360  0.73640  0.88430  Biso   1.000  O
  H91      1.0000 0.20560  0.72860  0.82330  Biso   1.000  H
  O50      1.0000 0.27430  0.35310  0.67190  Biso   1.000  O
  C136     1.0000 0.22290  0.64900  0.85400  Biso   1.000  C
  C137     1.0000 0.22230  0.60840  0.82100  Biso   1.000  C
  C138     1.0000 0.24980  0.59550  0.75840  Biso   1.000  C
  H92      1.0000 0.26710  0.61380  0.73010  Biso   1.000  H
  C139     1.0000 0.25220  0.55620  0.73690  Biso   1.000  C
  H93      1.0000 0.27110  0.54730  0.69370  Biso   1.000  H
  C140     1.0000 0.22710  0.52970  0.77780  Biso   1.000  C
  C141     1.0000 0.19960  0.54260  0.84040  Biso   1.000  C
  C142     1.0000 0.19720  0.58190  0.86190  Biso   1.000  C
  H94      1.0000 0.17830  0.59080  0.90510  Biso   1.000  H
  C143     1.0000 0.22980  0.48890  0.74930  Biso   1.000  C
  C144     1.0000 0.25830  0.46440  0.78470  Biso   1.000  C
  H95      1.0000 0.27520  0.47350  0.83190  Biso   1.000  H
  C145     1.0000 0.26210  0.42670  0.75170  Biso   1.000  C
  H96      1.0000 0.28180  0.40980  0.77620  Biso   1.000  H
  C146     1.0000 0.23750  0.41340  0.68330  Biso   1.000  C
  C147     1.0000 0.20910  0.43790  0.64790  Biso   1.000  C
  H97      1.0000 0.19210  0.42870  0.60070  Biso   1.000  H
  C148     1.0000 0.20520  0.47560  0.68090  Biso   1.000  C
  C149     1.0000 0.17990  0.50330  0.60920  Biso   1.000  C
  H98      1.0000 0.16520  0.48700  0.56870  Biso   1.000  H
  H99      1.0000 0.19740  0.51920  0.57460  Biso   1.000  H
  H100     1.0000 0.16240  0.51960  0.64290  Biso   1.000  H
  C150     1.0000 0.24090  0.37330  0.64590  Biso   1.000  C
  O51      1.0000 0.17000  0.25040  0.32700  Biso   1.000  O
  O52      1.0000 0.15940  0.30550  0.40970  Biso   1.000  O
  O53      1.0000 0.86250  0.28720  0.08920  Biso   1.000  O
  O54      1.0000 0.23640  0.28640  0.38430  Biso   1.000  O
  H101     1.0000 0.22860  0.29440  0.32330  Biso   1.000  H
  O55      1.0000 0.85310  0.22570  0.17190  Biso   1.000  O
  C151     1.0000 0.14900  0.27710  0.35400  Biso   1.000  C
  C152     1.0000 0.10840  0.27770  0.32100  Biso   1.000  C
  C153     1.0000 0.09550  0.25020  0.25840  Biso   1.000  C
  H102     1.0000 0.11380  0.23290  0.23010  Biso   1.000  H
  C154     1.0000 0.05620  0.24780  0.23690  Biso   1.000  C
  H103     1.0000 0.04730  0.22890  0.19370  Biso   1.000  H
  C155     1.0000 0.02970  0.27290  0.27780  Biso   1.000  C
  C156     1.0000 0.04260  0.30040  0.34040  Biso   1.000  C
  C157     1.0000 0.08190  0.30280  0.36190  Biso   1.000  C
  H104     1.0000 0.09080  0.32170  0.40510  Biso   1.000  H
  C158     1.0000 0.98890  0.27020  0.24930  Biso   1.000  C
  C159     1.0000 0.96440  0.24170  0.28470  Biso   1.000  C
  H105     1.0000 0.97350  0.22480  0.33190  Biso   1.000  H
  C160     1.0000 0.92670  0.23790  0.25170  Biso   1.000  C
  H106     1.0000 0.90980  0.21820  0.27620  Biso   1.000  H
  C161     1.0000 0.91340  0.26250  0.18330  Biso   1.000  C
  C162     1.0000 0.93790  0.29090  0.14790  Biso   1.000  C
  H107     1.0000 0.92870  0.30790  0.10070  Biso   1.000  H
  C163     1.0000 0.97560  0.29480  0.18090  Biso   1.000  C
  C164     1.0000 0.00330  0.32010  0.10920  Biso   1.000  C
  H108     1.0000 0.98700  0.33480  0.06870  Biso   1.000  H
  H109     1.0000 0.01920  0.30260  0.07460  Biso   1.000  H
  H110     1.0000 0.01960  0.33760  0.14290  Biso   1.000  H
  C165     1.0000 0.87330  0.25910  0.14590  Biso   1.000  C
  O56      1.0000 0.83000  0.74960  0.32700  Biso   1.000  O
  O57      1.0000 0.84060  0.69450  0.40970  Biso   1.000  O
  O58      1.0000 0.13750  0.71280  0.08920  Biso   1.000  O
  O59      1.0000 0.76360  0.71360  0.38430  Biso   1.000  O
  H111     1.0000 0.77140  0.70560  0.32330  Biso   1.000  H
  O60      1.0000 0.14690  0.77430  0.17190  Biso   1.000  O
  C166     1.0000 0.85100  0.72290  0.35400  Biso   1.000  C
  C167     1.0000 0.89160  0.72230  0.32100  Biso   1.000  C
  C168     1.0000 0.90450  0.74980  0.25840  Biso   1.000  C
  H112     1.0000 0.88620  0.76710  0.23010  Biso   1.000  H
  C169     1.0000 0.94380  0.75220  0.23690  Biso   1.000  C
  H113     1.0000 0.95270  0.77110  0.19370  Biso   1.000  H
  C170     1.0000 0.97030  0.72710  0.27780  Biso   1.000  C
  C171     1.0000 0.95740  0.69960  0.34040  Biso   1.000  C
  C172     1.0000 0.91810  0.69720  0.36190  Biso   1.000  C
  H114     1.0000 0.90920  0.67830  0.40510  Biso   1.000  H
  C173     1.0000 0.01110  0.72980  0.24930  Biso   1.000  C
  C174     1.0000 0.03560  0.75830  0.28470  Biso   1.000  C
  H115     1.0000 0.02650  0.77520  0.33190  Biso   1.000  H
  C175     1.0000 0.07330  0.76210  0.25170  Biso   1.000  C
  H116     1.0000 0.09020  0.78180  0.27620  Biso   1.000  H
  C176     1.0000 0.08660  0.73750  0.18330  Biso   1.000  C
  C177     1.0000 0.06210  0.70910  0.14790  Biso   1.000  C
  H117     1.0000 0.07130  0.69210  0.10070  Biso   1.000  H
  C178     1.0000 0.02440  0.70520  0.18090  Biso   1.000  C
  C179     1.0000 0.99670  0.67990  0.10920  Biso   1.000  C
  H118     1.0000 0.01300  0.66520  0.06870  Biso   1.000  H
  H119     1.0000 0.98080  0.69740  0.07460  Biso   1.000  H
  H120     1.0000 0.98040  0.66240  0.14290  Biso   1.000  H
  C180     1.0000 0.12670  0.74090  0.14590  Biso   1.000  C
  O61      1.0000 0.74960  0.83000  0.67300  Biso   1.000  O
  O62      1.0000 0.69450  0.84060  0.59030  Biso   1.000  O
  O63      1.0000 0.71280  0.13750  0.91080  Biso   1.000  O
  O64      1.0000 0.71360  0.76360  0.61570  Biso   1.000  O
  H121     1.0000 0.70560  0.77140  0.67670  Biso   1.000  H
  O65      1.0000 0.77430  0.14690  0.82810  Biso   1.000  O
  C181     1.0000 0.72290  0.85100  0.64600  Biso   1.000  C
  C182     1.0000 0.72230  0.89160  0.67900  Biso   1.000  C
  C183     1.0000 0.74980  0.90450  0.74160  Biso   1.000  C
  H122     1.0000 0.76710  0.88620  0.76990  Biso   1.000  H
  C184     1.0000 0.75220  0.94380  0.76310  Biso   1.000  C
  H123     1.0000 0.77110  0.95270  0.80630  Biso   1.000  H
  C185     1.0000 0.72710  0.97030  0.72220  Biso   1.000  C
  C186     1.0000 0.69960  0.95740  0.65960  Biso   1.000  C
  C187     1.0000 0.69720  0.91810  0.63810  Biso   1.000  C
  H124     1.0000 0.67830  0.90920  0.59490  Biso   1.000  H
  C188     1.0000 0.72980  0.01110  0.75070  Biso   1.000  C
  C189     1.0000 0.75830  0.03560  0.71530  Biso   1.000  C
  H125     1.0000 0.77520  0.02650  0.66810  Biso   1.000  H
  C190     1.0000 0.76210  0.07330  0.74830  Biso   1.000  C
  H126     1.0000 0.78180  0.09020  0.72380  Biso   1.000  H
  C191     1.0000 0.73750  0.08660  0.81670  Biso   1.000  C
  C192     1.0000 0.70910  0.06210  0.85210  Biso   1.000  C
  H127     1.0000 0.69210  0.07130  0.89930  Biso   1.000  H
  C193     1.0000 0.70520  0.02440  0.81910  Biso   1.000  C
  C194     1.0000 0.67990  0.99670  0.89080  Biso   1.000  C
  H128     1.0000 0.66520  0.01300  0.93130  Biso   1.000  H
  H129     1.0000 0.69740  0.98080  0.92540  Biso   1.000  H
  H130     1.0000 0.66240  0.98040  0.85710  Biso   1.000  H
  C195     1.0000 0.74090  0.12670  0.85410  Biso   1.000  C
  O66      1.0000 0.25040  0.17000  0.67300  Biso   1.000  O
  O67      1.0000 0.30550  0.15940  0.59030  Biso   1.000  O
  O68      1.0000 0.28720  0.86250  0.91080  Biso   1.000  O
  O69      1.0000 0.28640  0.23640  0.61570  Biso   1.000  O
  H131     1.0000 0.29440  0.22860  0.67670  Biso   1.000  H
  O70      1.0000 0.22570  0.85310  0.82810  Biso   1.000  O
  C196     1.0000 0.27710  0.14900  0.64600  Biso   1.000  C
  C197     1.0000 0.27770  0.10840  0.67900  Biso   1.000  C
  C198     1.0000 0.25020  0.09550  0.74160  Biso   1.000  C
  H132     1.0000 0.23290  0.11380  0.76990  Biso   1.000  H
  C199     1.0000 0.24780  0.05620  0.76310  Biso   1.000  C
  H133     1.0000 0.22890  0.04730  0.80630  Biso   1.000  H
  C200     1.0000 0.27290  0.02970  0.72220  Biso   1.000  C
  C201     1.0000 0.30040  0.04260  0.65960  Biso   1.000  C
  C202     1.0000 0.30280  0.08190  0.63810  Biso   1.000  C
  H134     1.0000 0.32170  0.09080  0.59490  Biso   1.000  H
  C203     1.0000 0.27020  0.98890  0.75070  Biso   1.000  C
  C204     1.0000 0.24170  0.96440  0.71530  Biso   1.000  C
  H135     1.0000 0.22480  0.97350  0.66810  Biso   1.000  H
  C205     1.0000 0.23790  0.92670  0.74830  Biso   1.000  C
  H136     1.0000 0.21820  0.90980  0.72380  Biso   1.000  H
  C206     1.0000 0.26250  0.91340  0.81670  Biso   1.000  C
  C207     1.0000 0.29090  0.93790  0.85210  Biso   1.000  C
  H137     1.0000 0.30790  0.92870  0.89930  Biso   1.000  H
  C208     1.0000 0.29480  0.97560  0.81910  Biso   1.000  C
  C209     1.0000 0.32010  0.00330  0.89080  Biso   1.000  C
  H138     1.0000 0.33480  0.98700  0.93130  Biso   1.000  H
  H139     1.0000 0.30260  0.01920  0.92540  Biso   1.000  H
  H140     1.0000 0.33760  0.01960  0.85710  Biso   1.000  H
  C210     1.0000 0.25910  0.87330  0.85410  Biso   1.000  C
  O71      1.0000 0.33000  0.75040  0.17300  Biso   1.000  O
  O72      1.0000 0.34060  0.80550  0.09030  Biso   1.000  O
  O73      1.0000 0.63750  0.78720  0.41080  Biso   1.000  O
  O74      1.0000 0.26360  0.78640  0.11570  Biso   1.000  O
  H141     1.0000 0.27140  0.79440  0.17670  Biso   1.000  H
  O75      1.0000 0.64690  0.72570  0.32810  Biso   1.000  O
  C211     1.0000 0.35100  0.77710  0.14600  Biso   1.000  C
  C212     1.0000 0.39160  0.77770  0.17900  Biso   1.000  C
  C213     1.0000 0.40450  0.75020  0.24160  Biso   1.000  C
  H142     1.0000 0.38620  0.73290  0.26990  Biso   1.000  H
  C214     1.0000 0.44380  0.74780  0.26310  Biso   1.000  C
  H143     1.0000 0.45270  0.72890  0.30630  Biso   1.000  H
  C215     1.0000 0.47030  0.77290  0.22220  Biso   1.000  C
  C216     1.0000 0.45740  0.80040  0.15960  Biso   1.000  C
  C217     1.0000 0.41810  0.80280  0.13810  Biso   1.000  C
  H144     1.0000 0.40920  0.82170  0.09490  Biso   1.000  H
  C218     1.0000 0.51110  0.77020  0.25070  Biso   1.000  C
  C219     1.0000 0.53560  0.74170  0.21530  Biso   1.000  C
  H145     1.0000 0.52650  0.72480  0.16810  Biso   1.000  H
  C220     1.0000 0.57330  0.73790  0.24830  Biso   1.000  C
  H146     1.0000 0.59020  0.71820  0.22380  Biso   1.000  H
  C221     1.0000 0.58660  0.76250  0.31670  Biso   1.000  C
  C222     1.0000 0.56210  0.79090  0.35210  Biso   1.000  C
  H147     1.0000 0.57130  0.80790  0.39930  Biso   1.000  H
  C223     1.0000 0.52440  0.79480  0.31910  Biso   1.000  C
  C224     1.0000 0.49670  0.82010  0.39080  Biso   1.000  C
  H148     1.0000 0.51300  0.83480  0.43130  Biso   1.000  H
  H149     1.0000 0.48080  0.80260  0.42540  Biso   1.000  H
  H150     1.0000 0.48040  0.83760  0.35710  Biso   1.000  H
  C225     1.0000 0.62670  0.75910  0.35410  Biso   1.000  C
  O76      1.0000 0.67000  0.24960  0.17300  Biso   1.000  O
  O77      1.0000 0.65940  0.19450  0.09030  Biso   1.000  O
  O78      1.0000 0.36250  0.21280  0.41080  Biso   1.000  O
  O79      1.0000 0.73640  0.21360  0.11570  Biso   1.000  O
  H151     1.0000 0.72860  0.20560  0.17670  Biso   1.000  H
  O80      1.0000 0.35310  0.27430  0.32810  Biso   1.000  O
  C226     1.0000 0.64900  0.22290  0.14600  Biso   1.000  C
  C227     1.0000 0.60840  0.22230  0.17900  Biso   1.000  C
  C228     1.0000 0.59550  0.24980  0.24160  Biso   1.000  C
  H152     1.0000 0.61380  0.26710  0.26990  Biso   1.000  H
  C229     1.0000 0.55620  0.25220  0.26310  Biso   1.000  C
  H153     1.0000 0.54730  0.27110  0.30630  Biso   1.000  H
  C230     1.0000 0.52970  0.22710  0.22220  Biso   1.000  C
  C231     1.0000 0.54260  0.19960  0.15960  Biso   1.000  C
  C232     1.0000 0.58190  0.19720  0.13810  Biso   1.000  C
  H154     1.0000 0.59080  0.17830  0.09490  Biso   1.000  H
  C233     1.0000 0.48890  0.22980  0.25070  Biso   1.000  C
  C234     1.0000 0.46440  0.25830  0.21530  Biso   1.000  C
  H155     1.0000 0.47350  0.27520  0.16810  Biso   1.000  H
  C235     1.0000 0.42670  0.26210  0.24830  Biso   1.000  C
  H156     1.0000 0.40980  0.28180  0.22380  Biso   1.000  H
  C236     1.0000 0.41340  0.23750  0.31670  Biso   1.000  C
  C237     1.0000 0.43790  0.20910  0.35210  Biso   1.000  C
  H157     1.0000 0.42870  0.19210  0.39930  Biso   1.000  H
  C238     1.0000 0.47560  0.20520  0.31910  Biso   1.000  C
  C239     1.0000 0.50330  0.17990  0.39080  Biso   1.000  C
  H158     1.0000 0.48700  0.16520  0.43130  Biso   1.000  H
  H159     1.0000 0.51920  0.19740  0.42540  Biso   1.000  H
  H160     1.0000 0.51960  0.16240  0.35710  Biso   1.000  H
  C240     1.0000 0.37330  0.24090  0.35410  Biso   1.000  C
  Zr1      1.0000 0.27400  0.72600  0.11980  Biso   1.000  Zr
  Zr2      1.0000 0.20220  0.79780  0.88080  Biso   1.000  Zr
  O81      1.0000 0.15640  0.84360  0.91900  Biso   1.000  O
  O82      1.0000 0.21420  0.78580  0.26490  Biso   1.000  O
  O83      1.0000 0.26280  0.73720  0.26330  Biso   1.000  O
  O84      1.0000 0.32050  0.67950  0.09250  Biso   1.000  O
  H161     1.0000 0.32330  0.67670  0.03620  Biso   1.000  H
  C241     1.0000 0.23860  0.76140  0.30600  Biso   1.000  C
  C242     1.0000 0.26270  0.73730  0.46100  Biso   1.000  C
  C243     1.0000 0.23890  0.76110  0.40850  Biso   1.000  C
  C244     1.0000 0.21320  0.78680  0.45030  Biso   1.000  C
  H162     1.0000 0.19650  0.80350  0.41580  Biso   1.000  H
  C245     1.0000 0.26090  0.73910  0.55530  Biso   1.000  C
  H163     1.0000 0.27730  0.72270  0.59140  Biso   1.000  H
  N1       1.0000 0.28870  0.71130  0.41550  Biso   1.000  N
  H164     1.0000 0.28940  0.71060  0.35440  Biso   1.000  H
  H165     1.0000 0.30440  0.69560  0.44800  Biso   1.000  H
  C246     1.0000 0.10140  0.89860  0.91810  Biso   1.000  C
  H166     1.0000 0.11130  0.88870  0.86160  Biso   1.000  H
  C247     1.0000 0.07280  0.92720  0.91810  Biso   1.000  C
  H167     1.0000 0.06290  0.93710  0.86160  Biso   1.000  H
  C248     1.0000 0.01370  0.98630  0.91710  Biso   1.000  C
  C249     1.0000 0.98510  0.01490  0.91490  Biso   1.000  C
  O85      1.0000 0.02880  0.97120  0.83370  Biso   1.000  O
  C250     1.0000 0.00950  0.99050  0.76020  Biso   1.000  C
  H168     1.0000 0.01925  0.98075  0.70350  Biso   1.000  H
  H169     1.0000 0.97480  0.02520  0.85930  Biso   1.000  H
  Zr3      1.0000 0.72600  0.27400  0.11980  Biso   1.000  Zr
  Zr4      1.0000 0.79780  0.20220  0.88080  Biso   1.000  Zr
  O86      1.0000 0.84360  0.15640  0.91900  Biso   1.000  O
  O87      1.0000 0.78580  0.21420  0.26490  Biso   1.000  O
  O88      1.0000 0.73720  0.26280  0.26330  Biso   1.000  O
  O89      1.0000 0.67950  0.32050  0.09250  Biso   1.000  O
  H170     1.0000 0.67670  0.32330  0.03620  Biso   1.000  H
  C251     1.0000 0.76140  0.23860  0.30600  Biso   1.000  C
  C252     1.0000 0.73730  0.26270  0.46100  Biso   1.000  C
  C253     1.0000 0.76110  0.23890  0.40850  Biso   1.000  C
  C254     1.0000 0.78680  0.21320  0.45030  Biso   1.000  C
  H171     1.0000 0.80350  0.19650  0.41580  Biso   1.000  H
  C255     1.0000 0.73910  0.26090  0.55530  Biso   1.000  C
  H172     1.0000 0.72270  0.27730  0.59140  Biso   1.000  H
  N2       1.0000 0.71130  0.28870  0.41550  Biso   1.000  N
  H173     1.0000 0.71060  0.28940  0.35440  Biso   1.000  H
  H174     1.0000 0.69560  0.30440  0.44800  Biso   1.000  H
  C256     1.0000 0.89860  0.10140  0.91810  Biso   1.000  C
  H175     1.0000 0.88870  0.11130  0.86160  Biso   1.000  H
  C257     1.0000 0.92720  0.07280  0.91810  Biso   1.000  C
  H176     1.0000 0.93710  0.06290  0.86160  Biso   1.000  H
  C258     1.0000 0.98630  0.01370  0.91710  Biso   1.000  C
  C259     1.0000 0.01490  0.98510  0.91490  Biso   1.000  C
  O90      1.0000 0.97120  0.02880  0.83370  Biso   1.000  O
  C260     1.0000 0.99050  0.00950  0.76020  Biso   1.000  C
  H177     1.0000 0.98075  0.01925  0.70350  Biso   1.000  H
  H178     1.0000 0.02520  0.97480  0.85930  Biso   1.000  H
  Zr5      1.0000 0.77400  0.77400  0.61980  Biso   1.000  Zr
  Zr6      1.0000 0.70220  0.70220  0.38080  Biso   1.000  Zr
  O91      1.0000 0.65640  0.65640  0.41900  Biso   1.000  O
  O92      1.0000 0.71420  0.71420  0.76490  Biso   1.000  O
  O93      1.0000 0.76280  0.76280  0.76330  Biso   1.000  O
  O94      1.0000 0.82050  0.82050  0.59250  Biso   1.000  O
  H179     1.0000 0.82330  0.82330  0.53620  Biso   1.000  H
  C261     1.0000 0.73860  0.73860  0.80600  Biso   1.000  C
  C262     1.0000 0.76270  0.76270  0.96100  Biso   1.000  C
  C263     1.0000 0.73890  0.73890  0.90850  Biso   1.000  C
  C264     1.0000 0.71320  0.71320  0.95030  Biso   1.000  C
  H180     1.0000 0.69650  0.69650  0.91580  Biso   1.000  H
  C265     1.0000 0.76090  0.76090  0.05530  Biso   1.000  C
  H181     1.0000 0.77730  0.77730  0.09140  Biso   1.000  H
  N3       1.0000 0.78870  0.78870  0.91550  Biso   1.000  N
  H182     1.0000 0.78940  0.78940  0.85440  Biso   1.000  H
  H183     1.0000 0.80440  0.80440  0.94800  Biso   1.000  H
  C266     1.0000 0.60140  0.60140  0.41810  Biso   1.000  C
  H184     1.0000 0.61130  0.61130  0.36160  Biso   1.000  H
  C267     1.0000 0.57280  0.57280  0.41810  Biso   1.000  C
  H185     1.0000 0.56290  0.56290  0.36160  Biso   1.000  H
  C268     1.0000 0.51370  0.51370  0.41710  Biso   1.000  C
  C269     1.0000 0.48510  0.48510  0.41490  Biso   1.000  C
  O95      1.0000 0.52880  0.52880  0.33370  Biso   1.000  O
  C270     1.0000 0.50950  0.50950  0.26020  Biso   1.000  C
  H186     1.0000 0.51925  0.51925  0.20350  Biso   1.000  H
  H187     1.0000 0.47480  0.47480  0.35930  Biso   1.000  H
  Zr7      1.0000 0.22600  0.22600  0.61980  Biso   1.000  Zr
  Zr8      1.0000 0.29780  0.29780  0.38080  Biso   1.000  Zr
  O96      1.0000 0.34360  0.34360  0.41900  Biso   1.000  O
  O97      1.0000 0.28580  0.28580  0.76490  Biso   1.000  O
  O98      1.0000 0.23720  0.23720  0.76330  Biso   1.000  O
  O99      1.0000 0.17950  0.17950  0.59250  Biso   1.000  O
  H188     1.0000 0.17670  0.17670  0.53620  Biso   1.000  H
  C271     1.0000 0.26140  0.26140  0.80600  Biso   1.000  C
  C272     1.0000 0.23730  0.23730  0.96100  Biso   1.000  C
  C273     1.0000 0.26110  0.26110  0.90850  Biso   1.000  C
  C274     1.0000 0.28680  0.28680  0.95030  Biso   1.000  C
  H189     1.0000 0.30350  0.30350  0.91580  Biso   1.000  H
  C275     1.0000 0.23910  0.23910  0.05530  Biso   1.000  C
  H190     1.0000 0.22270  0.22270  0.09140  Biso   1.000  H
  N4       1.0000 0.21130  0.21130  0.91550  Biso   1.000  N
  H191     1.0000 0.21060  0.21060  0.85440  Biso   1.000  H
  H192     1.0000 0.19560  0.19560  0.94800  Biso   1.000  H
  C276     1.0000 0.39860  0.39860  0.41810  Biso   1.000  C
  H193     1.0000 0.38870  0.38870  0.36160  Biso   1.000  H
  C277     1.0000 0.42720  0.42720  0.41810  Biso   1.000  C
  H194     1.0000 0.43710  0.43710  0.36160  Biso   1.000  H
  C278     1.0000 0.48630  0.48630  0.41710  Biso   1.000  C
  C279     1.0000 0.51490  0.51490  0.41490  Biso   1.000  C
  O100     1.0000 0.47120  0.47120  0.33370  Biso   1.000  O
  C280     1.0000 0.49050  0.49050  0.26020  Biso   1.000  C
  H195     1.0000 0.48075  0.48075  0.20350  Biso   1.000  H
  H196     1.0000 0.52520  0.52520  0.35930  Biso   1.000  H
  Zr9      1.0000 0.22600  0.22600  0.38020  Biso   1.000  Zr
  Zr10     1.0000 0.29780  0.29780  0.61920  Biso   1.000  Zr
  O101     1.0000 0.34360  0.34360  0.58100  Biso   1.000  O
  O102     1.0000 0.28580  0.28580  0.23510  Biso   1.000  O
  O103     1.0000 0.23720  0.23720  0.23670  Biso   1.000  O
  O104     1.0000 0.17950  0.17950  0.40750  Biso   1.000  O
  H197     1.0000 0.17670  0.17670  0.46380  Biso   1.000  H
  C281     1.0000 0.26140  0.26140  0.19400  Biso   1.000  C
  C282     1.0000 0.23730  0.23730  0.03900  Biso   1.000  C
  C283     1.0000 0.26110  0.26110  0.09150  Biso   1.000  C
  C284     1.0000 0.28680  0.28680  0.04970  Biso   1.000  C
  H198     1.0000 0.30350  0.30350  0.08420  Biso   1.000  H
  C285     1.0000 0.23910  0.23910  0.94470  Biso   1.000  C
  H199     1.0000 0.22270  0.22270  0.90860  Biso   1.000  H
  N5       1.0000 0.21130  0.21130  0.08450  Biso   1.000  N
  H200     1.0000 0.21060  0.21060  0.14560  Biso   1.000  H
  H201     1.0000 0.19560  0.19560  0.05200  Biso   1.000  H
  C286     1.0000 0.39860  0.39860  0.58190  Biso   1.000  C
  H202     1.0000 0.38870  0.38870  0.63840  Biso   1.000  H
  C287     1.0000 0.42720  0.42720  0.58190  Biso   1.000  C
  H203     1.0000 0.43710  0.43710  0.63840  Biso   1.000  H
  C288     1.0000 0.48630  0.48630  0.58290  Biso   1.000  C
  C289     1.0000 0.51490  0.51490  0.58510  Biso   1.000  C
  O105     1.0000 0.47120  0.47120  0.66630  Biso   1.000  O
  C290     1.0000 0.49050  0.49050  0.73980  Biso   1.000  C
  H204     1.0000 0.48075  0.48075  0.79650  Biso   1.000  H
  H205     1.0000 0.52520  0.52520  0.64070  Biso   1.000  H
  Zr11     1.0000 0.77400  0.77400  0.38020  Biso   1.000  Zr
  Zr12     1.0000 0.70220  0.70220  0.61920  Biso   1.000  Zr
  O106     1.0000 0.65640  0.65640  0.58100  Biso   1.000  O
  O107     1.0000 0.71420  0.71420  0.23510  Biso   1.000  O
  O108     1.0000 0.76280  0.76280  0.23670  Biso   1.000  O
  O109     1.0000 0.82050  0.82050  0.40750  Biso   1.000  O
  H206     1.0000 0.82330  0.82330  0.46380  Biso   1.000  H
  C291     1.0000 0.73860  0.73860  0.19400  Biso   1.000  C
  C292     1.0000 0.76270  0.76270  0.03900  Biso   1.000  C
  C293     1.0000 0.73890  0.73890  0.09150  Biso   1.000  C
  C294     1.0000 0.71320  0.71320  0.04970  Biso   1.000  C
  H207     1.0000 0.69650  0.69650  0.08420  Biso   1.000  H
  C295     1.0000 0.76090  0.76090  0.94470  Biso   1.000  C
  H208     1.0000 0.77730  0.77730  0.90860  Biso   1.000  H
  N6       1.0000 0.78870  0.78870  0.08450  Biso   1.000  N
  H209     1.0000 0.78940  0.78940  0.14560  Biso   1.000  H
  H210     1.0000 0.80440  0.80440  0.05200  Biso   1.000  H
  C296     1.0000 0.60140  0.60140  0.58190  Biso   1.000  C
  H211     1.0000 0.61130  0.61130  0.63840  Biso   1.000  H
  C297     1.0000 0.57280  0.57280  0.58190  Biso   1.000  C
  H212     1.0000 0.56290  0.56290  0.63840  Biso   1.000  H
  C298     1.0000 0.51370  0.51370  0.58290  Biso   1.000  C
  C299     1.0000 0.48510  0.48510  0.58510  Biso   1.000  C
  O110     1.0000 0.52880  0.52880  0.66630  Biso   1.000  O
  C300     1.0000 0.50950  0.50950  0.73980  Biso   1.000  C
  H213     1.0000 0.51925  0.51925  0.79650  Biso   1.000  H
  H214     1.0000 0.47480  0.47480  0.64070  Biso   1.000  H
  Zr13     1.0000 0.72600  0.27400  0.88020  Biso   1.000  Zr
  Zr14     1.0000 0.79780  0.20220  0.11920  Biso   1.000  Zr
  O111     1.0000 0.84360  0.15640  0.08100  Biso   1.000  O
  O112     1.0000 0.78580  0.21420  0.73510  Biso   1.000  O
  O113     1.0000 0.73720  0.26280  0.73670  Biso   1.000  O
  O114     1.0000 0.67950  0.32050  0.90750  Biso   1.000  O
  H215     1.0000 0.67670  0.32330  0.96380  Biso   1.000  H
  C301     1.0000 0.76140  0.23860  0.69400  Biso   1.000  C
  C302     1.0000 0.73730  0.26270  0.53900  Biso   1.000  C
  C303     1.0000 0.76110  0.23890  0.59150  Biso   1.000  C
  C304     1.0000 0.78680  0.21320  0.54970  Biso   1.000  C
  H216     1.0000 0.80350  0.19650  0.58420  Biso   1.000  H
  C305     1.0000 0.73910  0.26090  0.44470  Biso   1.000  C
  H217     1.0000 0.72270  0.27730  0.40860  Biso   1.000  H
  N7       1.0000 0.71130  0.28870  0.58450  Biso   1.000  N
  H218     1.0000 0.71060  0.28940  0.64560  Biso   1.000  H
  H219     1.0000 0.69560  0.30440  0.55200  Biso   1.000  H
  C306     1.0000 0.89860  0.10140  0.08190  Biso   1.000  C
  H220     1.0000 0.88870  0.11130  0.13840  Biso   1.000  H
  C307     1.0000 0.92720  0.07280  0.08190  Biso   1.000  C
  H221     1.0000 0.93710  0.06290  0.13840  Biso   1.000  H
  C308     1.0000 0.98630  0.01370  0.08290  Biso   1.000  C
  C309     1.0000 0.01490  0.98510  0.08510  Biso   1.000  C
  O115     1.0000 0.97120  0.02880  0.16630  Biso   1.000  O
  C310     1.0000 0.99050  0.00950  0.23980  Biso   1.000  C
  H222     1.0000 0.98075  0.01925  0.29650  Biso   1.000  H
  H223     1.0000 0.02520  0.97480  0.14070  Biso   1.000  H
  Zr15     1.0000 0.27400  0.72600  0.88020  Biso   1.000  Zr
  Zr16     1.0000 0.20220  0.79780  0.11920  Biso   1.000  Zr
  O116     1.0000 0.15640  0.84360  0.08100  Biso   1.000  O
  O117     1.0000 0.21420  0.78580  0.73510  Biso   1.000  O
  O118     1.0000 0.26280  0.73720  0.73670  Biso   1.000  O
  O119     1.0000 0.32050  0.67950  0.90750  Biso   1.000  O
  H224     1.0000 0.32330  0.67670  0.96380  Biso   1.000  H
  C311     1.0000 0.23860  0.76140  0.69400  Biso   1.000  C
  C312     1.0000 0.26270  0.73730  0.53900  Biso   1.000  C
  C313     1.0000 0.23890  0.76110  0.59150  Biso   1.000  C
  C314     1.0000 0.21320  0.78680  0.54970  Biso   1.000  C
  H225     1.0000 0.19650  0.80350  0.58420  Biso   1.000  H
  C315     1.0000 0.26090  0.73910  0.44470  Biso   1.000  C
  H226     1.0000 0.27730  0.72270  0.40860  Biso   1.000  H
  N8       1.0000 0.28870  0.71130  0.58450  Biso   1.000  N
  H227     1.0000 0.28940  0.71060  0.64560  Biso   1.000  H
  H228     1.0000 0.30440  0.69560  0.55200  Biso   1.000  H
  C316     1.0000 0.10140  0.89860  0.08190  Biso   1.000  C
  H229     1.0000 0.11130  0.88870  0.13840  Biso   1.000  H
  C317     1.0000 0.07280  0.92720  0.08190  Biso   1.000  C
  H230     1.0000 0.06290  0.93710  0.13840  Biso   1.000  H
  C318     1.0000 0.01370  0.98630  0.08290  Biso   1.000  C
  C319     1.0000 0.98510  0.01490  0.08510  Biso   1.000  C
  O120     1.0000 0.02880  0.97120  0.16630  Biso   1.000  O
  C320     1.0000 0.00950  0.99050  0.23980  Biso   1.000  C
  H231     1.0000 0.01925  0.98075  0.29650  Biso   1.000  H
  H232     1.0000 0.97480  0.02520  0.14070  Biso   1.000  H
  Zr17     1.0000 0.18790  0.71060  0.00000  Biso   1.000  Zr
  O121     1.0000 0.29840  0.74940  0.00000  Biso   1.000  O
  H233     1.0000 0.32440  0.73780  0.00000  Biso   1.000  H
  O122     1.0000 0.17760  0.77100  0.00000  Biso   1.000  O
  H234     1.0000 0.15000  0.77440  0.00000  Biso   1.000  H
  Zr18     1.0000 0.81210  0.28940  0.00000  Biso   1.000  Zr
  O123     1.0000 0.70160  0.25060  0.00000  Biso   1.000  O
  H235     1.0000 0.67560  0.26220  0.00000  Biso   1.000  H
  O124     1.0000 0.82240  0.22900  0.00000  Biso   1.000  O
  H236     1.0000 0.85000  0.22560  0.00000  Biso   1.000  H
  Zr19     1.0000 0.78940  0.68790  0.50000  Biso   1.000  Zr
  O125     1.0000 0.75060  0.79840  0.50000  Biso   1.000  O
  H237     1.0000 0.76220  0.82440  0.50000  Biso   1.000  H
  O126     1.0000 0.72900  0.67760  0.50000  Biso   1.000  O
  H238     1.0000 0.72560  0.65000  0.50000  Biso   1.000  H
  Zr20     1.0000 0.21060  0.31210  0.50000  Biso   1.000  Zr
  O127     1.0000 0.24940  0.20160  0.50000  Biso   1.000  O
  H239     1.0000 0.23780  0.17560  0.50000  Biso   1.000  H
  O128     1.0000 0.27100  0.32240  0.50000  Biso   1.000  O
  H240     1.0000 0.27440  0.35000  0.50000  Biso   1.000  H
  Zr21     1.0000 0.31210  0.21060  0.50000  Biso   1.000  Zr
  O129     1.0000 0.20160  0.24940  0.50000  Biso   1.000  O
  H241     1.0000 0.17560  0.23780  0.50000  Biso   1.000  H
  O130     1.0000 0.32240  0.27100  0.50000  Biso   1.000  O
  H242     1.0000 0.35000  0.27440  0.50000  Biso   1.000  H
  Zr22     1.0000 0.68790  0.78940  0.50000  Biso   1.000  Zr
  O131     1.0000 0.79840  0.75060  0.50000  Biso   1.000  O
  H243     1.0000 0.82440  0.76220  0.50000  Biso   1.000  H
  O132     1.0000 0.67760  0.72900  0.50000  Biso   1.000  O
  H244     1.0000 0.65000  0.72560  0.50000  Biso   1.000  H
  Zr23     1.0000 0.71060  0.18790  0.00000  Biso   1.000  Zr
  O133     1.0000 0.74940  0.29840  0.00000  Biso   1.000  O
  H245     1.0000 0.73780  0.32440  0.00000  Biso   1.000  H
  O134     1.0000 0.77100  0.17760  0.00000  Biso   1.000  O
  H246     1.0000 0.77440  0.15000  0.00000  Biso   1.000  H
  Zr24     1.0000 0.28940  0.81210  0.00000  Biso   1.000  Zr
  O135     1.0000 0.25060  0.70160  0.00000  Biso   1.000  O
  H247     1.0000 0.26220  0.67560  0.00000  Biso   1.000  H
  O136     1.0000 0.22900  0.82240  0.00000  Biso   1.000  O
  H248     1.0000 0.22560  0.85000  0.00000  Biso   1.000  H
  C321     1.0000 0.14670  0.85330  0.00000  Biso   1.000  C
  C322     1.0000 0.11570  0.88430  0.00000  Biso   1.000  C
  C323     1.0000 0.05845  0.94155  0.00000  Biso   1.000  C
  C324     1.0000 0.02740  0.97260  0.00000  Biso   1.000  C
  C325     1.0000 0.85330  0.14670  0.00000  Biso   1.000  C
  C326     1.0000 0.88430  0.11570  0.00000  Biso   1.000  C
  C327     1.0000 0.94155  0.05845  0.00000  Biso   1.000  C
  C328     1.0000 0.97260  0.02740  0.00000  Biso   1.000  C
  C329     1.0000 0.64670  0.64670  0.50000  Biso   1.000  C
  C330     1.0000 0.61570  0.61570  0.50000  Biso   1.000  C
  C331     1.0000 0.55845  0.55845  0.50000  Biso   1.000  C
  C332     1.0000 0.52740  0.52740  0.50000  Biso   1.000  C
  C333     1.0000 0.35330  0.35330  0.50000  Biso   1.000  C
  C334     1.0000 0.38430  0.38430  0.50000  Biso   1.000  C
  C335     1.0000 0.44155  0.44155  0.50000  Biso   1.000  C
  C336     1.0000 0.47260  0.47260  0.50000  Biso   1.000  C
  H249     1.0000 0.98200  0.98200  0.76400  Biso   1.000  H
  H250     1.0000 0.01430  0.01430  0.76400  Biso   1.000  H
  H251     1.0000 0.01800  0.01800  0.76400  Biso   1.000  H
  H252     1.0000 0.98570  0.98570  0.76400  Biso   1.000  H
  H253     1.0000 0.51800  0.48200  0.26400  Biso   1.000  H
  H254     1.0000 0.48570  0.51430  0.26400  Biso   1.000  H
  H255     1.0000 0.48200  0.51800  0.26400  Biso   1.000  H
  H256     1.0000 0.51430  0.48570  0.26400  Biso   1.000  H
  H257     1.0000 0.51800  0.48200  0.73600  Biso   1.000  H
  H258     1.0000 0.48570  0.51430  0.73600  Biso   1.000  H
  H259     1.0000 0.48200  0.51800  0.73600  Biso   1.000  H
  H260     1.0000 0.51430  0.48570  0.73600  Biso   1.000  H
  H261     1.0000 0.98200  0.98200  0.23600  Biso   1.000  H
  H262     1.0000 0.01430  0.01430  0.23600  Biso   1.000  H
  H263     1.0000 0.01800  0.01800  0.23600  Biso   1.000  H
  H264     1.0000 0.98570  0.98570  0.23600  Biso   1.000  H
