data_image0
_cell_length_a       54.076
_cell_length_b       15.3088
_cell_length_c       16.0309
_cell_angle_alpha    90
_cell_angle_beta     90
_cell_angle_gamma    90

_symmetry_space_group_name_H-M    "P 1"
_symmetry_int_tables_number       1

loop_
  _symmetry_equiv_pos_as_xyz
  'x, y, z'

loop_
  _atom_site_label
  _atom_site_occupancy
  _atom_site_fract_x
  _atom_site_fract_y
  _atom_site_fract_z
  _atom_site_thermal_displace_type
  _atom_site_B_iso_or_equiv
  _atom_site_type_symbol
  Zn1      1.0000 0.25296  0.93899  0.54909  Biso   1.000  Zn
  Zn2      1.0000 0.20057  0.94878  0.65008  Biso   1.000  Zn
  Zn3      1.0000 0.09555  0.67407  0.29350  Biso   1.000  Zn
  Zn4      1.0000 0.07028  0.84885  0.33811  Biso   1.000  Zn
  O1       1.0000 0.10090  0.77870  0.36190  Biso   1.000  O
  O2       1.0000 0.16430  0.91850  0.16180  Biso   1.000  O
  O3       1.0000 0.18410  0.00660  0.24640  Biso   1.000  O
  O4       1.0000 0.15900  0.85120  0.59700  Biso   1.000  O
  O5       1.0000 0.18693  0.93330  0.53900  Biso   1.000  O
  O6       1.0000 0.22972  0.01780  0.61540  Biso   1.000  O
  O7       1.0000 0.24330  0.04390  0.92970  Biso   1.000  O
  O8       1.0000 0.27230  0.14500  0.93860  Biso   1.000  O
  O9       1.0000 0.07210  0.85520  0.21730  Biso   1.000  O
  O10      1.0000 0.07530  0.03380  0.86520  Biso   1.000  O
  O11      1.0000 0.13490  0.65060  0.24600  Biso   1.000  O
  O12      1.0000 0.08290  0.71810  0.18270  Biso   1.000  O
  O13      1.0000 0.06510  0.63390  0.35030  Biso   1.000  O
  O14      1.0000 0.04490  0.76310  0.36430  Biso   1.000  O
  O15      1.0000 0.10720  0.55120  0.27220  Biso   1.000  O
  O16      1.0000 0.21400  0.44620  0.03690  Biso   1.000  O
  O17      1.0000 0.21648  0.56090  0.11830  Biso   1.000  O
  O18      1.0000 0.28490  0.34210  0.70010  Biso   1.000  O
  O19      1.0000 0.26200  0.32280  0.58450  Biso   1.000  O
  O20      1.0000 0.14800  0.26780  0.20470  Biso   1.000  O
  O21      1.0000 0.07180  0.07740  0.99050  Biso   1.000  O
  C1       1.0000 0.12340  0.82330  0.36810  Biso   1.000  C
  C2       1.0000 0.13440  0.85710  0.29860  Biso   1.000  C
  H1       1.0000 0.12730  0.84810  0.24650  Biso   1.000  H
  C3       1.0000 0.13310  0.83200  0.44520  Biso   1.000  C
  H2       1.0000 0.12510  0.80880  0.49160  Biso   1.000  H
  C4       1.0000 0.15620  0.90530  0.30530  Biso   1.000  C
  C5       1.0000 0.15560  0.87730  0.45350  Biso   1.000  C
  C6       1.0000 0.16620  0.91440  0.38620  Biso   1.000  C
  H3       1.0000 0.18060  0.94700  0.39330  Biso   1.000  H
  C7       1.0000 0.16820  0.94350  0.23020  Biso   1.000  C
  C8       1.0000 0.16830  0.88620  0.53560  Biso   1.000  C
  C9       1.0000 0.24010  0.07810  0.67090  Biso   1.000  C
  C10      1.0000 0.24860  0.15550  0.63600  Biso   1.000  C
  H4       1.0000 0.24650  0.16750  0.57960  Biso   1.000  H
  C11      1.0000 0.24230  0.05990  0.75160  Biso   1.000  C
  H5       1.0000 0.23520  0.00880  0.77220  Biso   1.000  H
  C12      1.0000 0.26000  0.21280  0.68740  Biso   1.000  C
  C13      1.0000 0.25470  0.11480  0.80590  Biso   1.000  C
  C14      1.0000 0.26520  0.19420  0.77230  Biso   1.000  C
  H6       1.0000 0.27480  0.23140  0.80480  Biso   1.000  H
  C15      1.0000 0.25710  0.10110  0.89570  Biso   1.000  C
  C16      1.0000 0.20600  0.48970  0.09370  Biso   1.000  C
  C17      1.0000 0.18280  0.46780  0.13820  Biso   1.000  C
  C18      1.0000 0.04610  0.68310  0.36230  Biso   1.000  C
  C19      1.0000 0.27010  0.30130  0.65300  Biso   1.000  C
  C20      1.0000 0.17570  0.37750  0.14480  Biso   1.000  C
  H7       1.0000 0.18540  0.33510  0.11930  Biso   1.000  H
  C21      1.0000 0.07830  0.79560  0.16350  Biso   1.000  C
  C22      1.0000 0.16750  0.52870  0.17100  Biso   1.000  C
  H8       1.0000 0.17170  0.58740  0.16600  Biso   1.000  H
  C23      1.0000 0.15490  0.35250  0.18790  Biso   1.000  C
  C24      1.0000 0.12710  0.57340  0.24430  Biso   1.000  C
  C25      1.0000 0.14580  0.50610  0.21200  Biso   1.000  C
  C26      1.0000 0.13830  0.41870  0.21800  Biso   1.000  C
  H9       1.0000 0.12300  0.40400  0.24080  Biso   1.000  H
  C27      1.0000 0.08270  0.82000  0.07620  Biso   1.000  C
  C28      1.0000 0.07600  0.90420  0.04950  Biso   1.000  C
  H10      1.0000 0.06850  0.94250  0.08670  Biso   1.000  H
  C29      1.0000 0.09080  0.76150  0.01850  Biso   1.000  C
  H11      1.0000 0.09600  0.70650  0.03590  Biso   1.000  H
  C30      1.0000 0.07500  0.02320  0.94260  Biso   1.000  C
  C31      1.0000 0.09170  0.78210  0.93500  Biso   1.000  C
  C32      1.0000 0.08050  0.92970  0.97100  Biso   1.000  C
  O22      1.0000 0.10170  0.72630  0.87200  Biso   1.000  O
  C33      1.0000 0.08980  0.87040  0.91400  Biso   1.000  C
  H12      1.0000 0.09480  0.88950  0.86160  Biso   1.000  H
  C34      1.0000 0.01950  0.54600  0.37400  Biso   1.000  C
  H13      1.0000 0.03370  0.51800  0.35610  Biso   1.000  H
  C35      1.0000 0.02170  0.63900  0.38800  Biso   1.000  C
  C36      1.0000 0.02270  0.54500  0.40400  Biso   1.000  C
  H14      1.0000 0.03770  0.51640  0.41310  Biso   1.000  H
  C37      1.0000 0.02040  0.63300  0.37100  Biso   1.000  C
  Zn5      1.0000 0.75296  0.43899  0.54909  Biso   1.000  Zn
  Zn6      1.0000 0.70057  0.44878  0.65008  Biso   1.000  Zn
  Zn7      1.0000 0.59555  0.17407  0.29350  Biso   1.000  Zn
  Zn8      1.0000 0.57028  0.34885  0.33811  Biso   1.000  Zn
  O23      1.0000 0.60090  0.27870  0.36190  Biso   1.000  O
  O24      1.0000 0.66430  0.41850  0.16180  Biso   1.000  O
  O25      1.0000 0.68410  0.50660  0.24640  Biso   1.000  O
  O26      1.0000 0.65900  0.35120  0.59700  Biso   1.000  O
  O27      1.0000 0.68693  0.43330  0.53900  Biso   1.000  O
  O28      1.0000 0.72972  0.51780  0.61540  Biso   1.000  O
  O29      1.0000 0.74330  0.54390  0.92970  Biso   1.000  O
  O30      1.0000 0.77230  0.64500  0.93860  Biso   1.000  O
  O31      1.0000 0.57210  0.35520  0.21730  Biso   1.000  O
  O32      1.0000 0.57530  0.53380  0.86520  Biso   1.000  O
  O33      1.0000 0.63490  0.15060  0.24600  Biso   1.000  O
  O34      1.0000 0.58290  0.21810  0.18270  Biso   1.000  O
  O35      1.0000 0.56510  0.13390  0.35030  Biso   1.000  O
  O36      1.0000 0.54490  0.26310  0.36430  Biso   1.000  O
  O37      1.0000 0.60720  0.05120  0.27220  Biso   1.000  O
  O38      1.0000 0.71400  0.94620  0.03690  Biso   1.000  O
  O39      1.0000 0.71648  0.06090  0.11830  Biso   1.000  O
  O40      1.0000 0.78490  0.84210  0.70010  Biso   1.000  O
  O41      1.0000 0.76200  0.82280  0.58450  Biso   1.000  O
  O42      1.0000 0.64800  0.76780  0.20470  Biso   1.000  O
  O43      1.0000 0.57180  0.57740  0.99050  Biso   1.000  O
  C38      1.0000 0.62340  0.32330  0.36810  Biso   1.000  C
  C39      1.0000 0.63440  0.35710  0.29860  Biso   1.000  C
  H15      1.0000 0.62730  0.34810  0.24650  Biso   1.000  H
  C40      1.0000 0.63310  0.33200  0.44520  Biso   1.000  C
  H16      1.0000 0.62510  0.30880  0.49160  Biso   1.000  H
  C41      1.0000 0.65620  0.40530  0.30530  Biso   1.000  C
  C42      1.0000 0.65560  0.37730  0.45350  Biso   1.000  C
  C43      1.0000 0.66620  0.41440  0.38620  Biso   1.000  C
  H17      1.0000 0.68060  0.44700  0.39330  Biso   1.000  H
  C44      1.0000 0.66820  0.44350  0.23020  Biso   1.000  C
  C45      1.0000 0.66830  0.38620  0.53560  Biso   1.000  C
  C46      1.0000 0.74010  0.57810  0.67090  Biso   1.000  C
  C47      1.0000 0.74860  0.65550  0.63600  Biso   1.000  C
  H18      1.0000 0.74650  0.66750  0.57960  Biso   1.000  H
  C48      1.0000 0.74230  0.55990  0.75160  Biso   1.000  C
  H19      1.0000 0.73520  0.50880  0.77220  Biso   1.000  H
  C49      1.0000 0.76000  0.71280  0.68740  Biso   1.000  C
  C50      1.0000 0.75470  0.61480  0.80590  Biso   1.000  C
  C51      1.0000 0.76520  0.69420  0.77230  Biso   1.000  C
  H20      1.0000 0.77480  0.73140  0.80480  Biso   1.000  H
  C52      1.0000 0.75710  0.60110  0.89570  Biso   1.000  C
  C53      1.0000 0.70600  0.98970  0.09370  Biso   1.000  C
  C54      1.0000 0.68280  0.96780  0.13820  Biso   1.000  C
  C55      1.0000 0.54610  0.18310  0.36230  Biso   1.000  C
  C56      1.0000 0.77010  0.80130  0.65300  Biso   1.000  C
  C57      1.0000 0.67570  0.87750  0.14480  Biso   1.000  C
  H21      1.0000 0.68540  0.83510  0.11930  Biso   1.000  H
  C58      1.0000 0.57830  0.29560  0.16350  Biso   1.000  C
  C59      1.0000 0.66750  0.02870  0.17100  Biso   1.000  C
  H22      1.0000 0.67170  0.08740  0.16600  Biso   1.000  H
  C60      1.0000 0.65490  0.85250  0.18790  Biso   1.000  C
  C61      1.0000 0.62710  0.07340  0.24430  Biso   1.000  C
  C62      1.0000 0.64580  0.00610  0.21200  Biso   1.000  C
  C63      1.0000 0.63830  0.91870  0.21800  Biso   1.000  C
  H23      1.0000 0.62300  0.90400  0.24080  Biso   1.000  H
  C64      1.0000 0.58270  0.32000  0.07620  Biso   1.000  C
  C65      1.0000 0.57600  0.40420  0.04950  Biso   1.000  C
  H24      1.0000 0.56850  0.44250  0.08670  Biso   1.000  H
  C66      1.0000 0.59080  0.26150  0.01850  Biso   1.000  C
  H25      1.0000 0.59600  0.20650  0.03590  Biso   1.000  H
  C67      1.0000 0.57500  0.52320  0.94260  Biso   1.000  C
  C68      1.0000 0.59170  0.28210  0.93500  Biso   1.000  C
  C69      1.0000 0.58050  0.42970  0.97100  Biso   1.000  C
  O44      1.0000 0.60170  0.22630  0.87200  Biso   1.000  O
  C70      1.0000 0.58980  0.37040  0.91400  Biso   1.000  C
  H26      1.0000 0.59480  0.38950  0.86160  Biso   1.000  H
  C71      1.0000 0.51950  0.04600  0.37400  Biso   1.000  C
  H27      1.0000 0.53370  0.01800  0.35610  Biso   1.000  H
  C72      1.0000 0.52170  0.13900  0.38800  Biso   1.000  C
  C73      1.0000 0.52270  0.04500  0.40400  Biso   1.000  C
  H28      1.0000 0.53770  0.01640  0.41310  Biso   1.000  H
  C74      1.0000 0.52040  0.13300  0.37100  Biso   1.000  C
  Zn9      1.0000 0.74704  0.06101  0.04909  Biso   1.000  Zn
  Zn10     1.0000 0.79943  0.05122  0.15008  Biso   1.000  Zn
  Zn11     1.0000 0.90445  0.32593  0.79350  Biso   1.000  Zn
  Zn12     1.0000 0.92972  0.15115  0.83811  Biso   1.000  Zn
  O45      1.0000 0.89910  0.22130  0.86190  Biso   1.000  O
  O46      1.0000 0.83570  0.08150  0.66180  Biso   1.000  O
  O47      1.0000 0.81590  0.99340  0.74640  Biso   1.000  O
  O48      1.0000 0.84100  0.14880  0.09700  Biso   1.000  O
  O49      1.0000 0.81307  0.06670  0.03900  Biso   1.000  O
  O50      1.0000 0.77028  0.98220  0.11540  Biso   1.000  O
  O51      1.0000 0.75670  0.95610  0.42970  Biso   1.000  O
  O52      1.0000 0.72770  0.85500  0.43860  Biso   1.000  O
  O53      1.0000 0.92790  0.14480  0.71730  Biso   1.000  O
  O54      1.0000 0.92470  0.96620  0.36520  Biso   1.000  O
  O55      1.0000 0.86510  0.34940  0.74600  Biso   1.000  O
  O56      1.0000 0.91710  0.28190  0.68270  Biso   1.000  O
  O57      1.0000 0.93490  0.36610  0.85030  Biso   1.000  O
  O58      1.0000 0.95510  0.23690  0.86430  Biso   1.000  O
  O59      1.0000 0.89280  0.44880  0.77220  Biso   1.000  O
  O60      1.0000 0.78600  0.55380  0.53690  Biso   1.000  O
  O61      1.0000 0.78352  0.43910  0.61830  Biso   1.000  O
  O62      1.0000 0.71510  0.65790  0.20010  Biso   1.000  O
  O63      1.0000 0.73800  0.67720  0.08450  Biso   1.000  O
  O64      1.0000 0.85200  0.73220  0.70470  Biso   1.000  O
  O65      1.0000 0.92820  0.92260  0.49050  Biso   1.000  O
  C75      1.0000 0.87660  0.17670  0.86810  Biso   1.000  C
  C76      1.0000 0.86560  0.14290  0.79860  Biso   1.000  C
  H29      1.0000 0.87270  0.15190  0.74650  Biso   1.000  H
  C77      1.0000 0.86690  0.16800  0.94520  Biso   1.000  C
  H30      1.0000 0.87490  0.19120  0.99160  Biso   1.000  H
  C78      1.0000 0.84380  0.09470  0.80530  Biso   1.000  C
  C79      1.0000 0.84440  0.12270  0.95350  Biso   1.000  C
  C80      1.0000 0.83380  0.08560  0.88620  Biso   1.000  C
  H31      1.0000 0.81940  0.05300  0.89330  Biso   1.000  H
  C81      1.0000 0.83180  0.05650  0.73020  Biso   1.000  C
  C82      1.0000 0.83170  0.11380  0.03560  Biso   1.000  C
  C83      1.0000 0.75990  0.92190  0.17090  Biso   1.000  C
  C84      1.0000 0.75140  0.84450  0.13600  Biso   1.000  C
  H32      1.0000 0.75350  0.83250  0.07960  Biso   1.000  H
  C85      1.0000 0.75770  0.94010  0.25160  Biso   1.000  C
  H33      1.0000 0.76480  0.99120  0.27220  Biso   1.000  H
  C86      1.0000 0.74000  0.78720  0.18740  Biso   1.000  C
  C87      1.0000 0.74530  0.88520  0.30590  Biso   1.000  C
  C88      1.0000 0.73480  0.80580  0.27230  Biso   1.000  C
  H34      1.0000 0.72520  0.76860  0.30480  Biso   1.000  H
  C89      1.0000 0.74290  0.89890  0.39570  Biso   1.000  C
  C90      1.0000 0.79400  0.51030  0.59370  Biso   1.000  C
  C91      1.0000 0.81720  0.53220  0.63820  Biso   1.000  C
  C92      1.0000 0.95390  0.31690  0.86230  Biso   1.000  C
  C93      1.0000 0.72990  0.69870  0.15300  Biso   1.000  C
  C94      1.0000 0.82430  0.62250  0.64480  Biso   1.000  C
  H35      1.0000 0.81460  0.66490  0.61930  Biso   1.000  H
  C95      1.0000 0.92170  0.20440  0.66350  Biso   1.000  C
  C96      1.0000 0.83250  0.47130  0.67100  Biso   1.000  C
  H36      1.0000 0.82830  0.41260  0.66600  Biso   1.000  H
  C97      1.0000 0.84510  0.64750  0.68790  Biso   1.000  C
  C98      1.0000 0.87290  0.42660  0.74430  Biso   1.000  C
  C99      1.0000 0.85420  0.49390  0.71200  Biso   1.000  C
  C100     1.0000 0.86170  0.58130  0.71800  Biso   1.000  C
  H37      1.0000 0.87700  0.59600  0.74080  Biso   1.000  H
  C101     1.0000 0.91730  0.18000  0.57620  Biso   1.000  C
  C102     1.0000 0.92400  0.09580  0.54950  Biso   1.000  C
  H38      1.0000 0.93150  0.05750  0.58670  Biso   1.000  H
  C103     1.0000 0.90920  0.23850  0.51850  Biso   1.000  C
  H39      1.0000 0.90400  0.29350  0.53590  Biso   1.000  H
  C104     1.0000 0.92500  0.97680  0.44260  Biso   1.000  C
  C105     1.0000 0.90830  0.21790  0.43500  Biso   1.000  C
  C106     1.0000 0.91950  0.07030  0.47100  Biso   1.000  C
  O66      1.0000 0.89830  0.27370  0.37200  Biso   1.000  O
  C107     1.0000 0.91020  0.12960  0.41400  Biso   1.000  C
  H40      1.0000 0.90520  0.11050  0.36160  Biso   1.000  H
  C108     1.0000 0.98050  0.45400  0.87400  Biso   1.000  C
  H41      1.0000 0.96630  0.48200  0.85610  Biso   1.000  H
  C109     1.0000 0.97830  0.36100  0.88800  Biso   1.000  C
  C110     1.0000 0.97730  0.45500  0.90400  Biso   1.000  C
  H42      1.0000 0.96230  0.48360  0.91310  Biso   1.000  H
  C111     1.0000 0.97960  0.36700  0.87100  Biso   1.000  C
  Zn13     1.0000 0.24704  0.56101  0.04909  Biso   1.000  Zn
  Zn14     1.0000 0.29943  0.55122  0.15008  Biso   1.000  Zn
  Zn15     1.0000 0.40445  0.82593  0.79350  Biso   1.000  Zn
  Zn16     1.0000 0.42972  0.65115  0.83811  Biso   1.000  Zn
  O67      1.0000 0.39910  0.72130  0.86190  Biso   1.000  O
  O68      1.0000 0.33570  0.58150  0.66180  Biso   1.000  O
  O69      1.0000 0.31590  0.49340  0.74640  Biso   1.000  O
  O70      1.0000 0.34100  0.64880  0.09700  Biso   1.000  O
  O71      1.0000 0.31307  0.56670  0.03900  Biso   1.000  O
  O72      1.0000 0.27028  0.48220  0.11540  Biso   1.000  O
  O73      1.0000 0.25670  0.45610  0.42970  Biso   1.000  O
  O74      1.0000 0.22770  0.35500  0.43860  Biso   1.000  O
  O75      1.0000 0.42790  0.64480  0.71730  Biso   1.000  O
  O76      1.0000 0.42470  0.46620  0.36520  Biso   1.000  O
  O77      1.0000 0.36510  0.84940  0.74600  Biso   1.000  O
  O78      1.0000 0.41710  0.78190  0.68270  Biso   1.000  O
  O79      1.0000 0.43490  0.86610  0.85030  Biso   1.000  O
  O80      1.0000 0.45510  0.73690  0.86430  Biso   1.000  O
  O81      1.0000 0.39280  0.94880  0.77220  Biso   1.000  O
  O82      1.0000 0.28600  0.05380  0.53690  Biso   1.000  O
  O83      1.0000 0.28352  0.93910  0.61830  Biso   1.000  O
  O84      1.0000 0.21510  0.15790  0.20010  Biso   1.000  O
  O85      1.0000 0.23800  0.17720  0.08450  Biso   1.000  O
  O86      1.0000 0.35200  0.23220  0.70470  Biso   1.000  O
  O87      1.0000 0.42820  0.42260  0.49050  Biso   1.000  O
  C112     1.0000 0.37660  0.67670  0.86810  Biso   1.000  C
  C113     1.0000 0.36560  0.64290  0.79860  Biso   1.000  C
  H43      1.0000 0.37270  0.65190  0.74650  Biso   1.000  H
  C114     1.0000 0.36690  0.66800  0.94520  Biso   1.000  C
  H44      1.0000 0.37490  0.69120  0.99160  Biso   1.000  H
  C115     1.0000 0.34380  0.59470  0.80530  Biso   1.000  C
  C116     1.0000 0.34440  0.62270  0.95350  Biso   1.000  C
  C117     1.0000 0.33380  0.58560  0.88620  Biso   1.000  C
  H45      1.0000 0.31940  0.55300  0.89330  Biso   1.000  H
  C118     1.0000 0.33180  0.55650  0.73020  Biso   1.000  C
  C119     1.0000 0.33170  0.61380  0.03560  Biso   1.000  C
  C120     1.0000 0.25990  0.42190  0.17090  Biso   1.000  C
  C121     1.0000 0.25140  0.34450  0.13600  Biso   1.000  C
  H46      1.0000 0.25350  0.33250  0.07960  Biso   1.000  H
  C122     1.0000 0.25770  0.44010  0.25160  Biso   1.000  C
  H47      1.0000 0.26480  0.49120  0.27220  Biso   1.000  H
  C123     1.0000 0.24000  0.28720  0.18740  Biso   1.000  C
  C124     1.0000 0.24530  0.38520  0.30590  Biso   1.000  C
  C125     1.0000 0.23480  0.30580  0.27230  Biso   1.000  C
  H48      1.0000 0.22520  0.26860  0.30480  Biso   1.000  H
  C126     1.0000 0.24290  0.39890  0.39570  Biso   1.000  C
  C127     1.0000 0.29400  0.01030  0.59370  Biso   1.000  C
  C128     1.0000 0.31720  0.03220  0.63820  Biso   1.000  C
  C129     1.0000 0.45390  0.81690  0.86230  Biso   1.000  C
  C130     1.0000 0.22990  0.19870  0.15300  Biso   1.000  C
  C131     1.0000 0.32430  0.12250  0.64480  Biso   1.000  C
  H49      1.0000 0.31460  0.16490  0.61930  Biso   1.000  H
  C132     1.0000 0.42170  0.70440  0.66350  Biso   1.000  C
  C133     1.0000 0.33250  0.97130  0.67100  Biso   1.000  C
  H50      1.0000 0.32830  0.91260  0.66600  Biso   1.000  H
  C134     1.0000 0.34510  0.14750  0.68790  Biso   1.000  C
  C135     1.0000 0.37290  0.92660  0.74430  Biso   1.000  C
  C136     1.0000 0.35420  0.99390  0.71200  Biso   1.000  C
  C137     1.0000 0.36170  0.08130  0.71800  Biso   1.000  C
  H51      1.0000 0.37700  0.09600  0.74080  Biso   1.000  H
  C138     1.0000 0.41730  0.68000  0.57620  Biso   1.000  C
  C139     1.0000 0.42400  0.59580  0.54950  Biso   1.000  C
  H52      1.0000 0.43150  0.55750  0.58670  Biso   1.000  H
  C140     1.0000 0.40920  0.73850  0.51850  Biso   1.000  C
  H53      1.0000 0.40400  0.79350  0.53590  Biso   1.000  H
  C141     1.0000 0.42500  0.47680  0.44260  Biso   1.000  C
  C142     1.0000 0.40830  0.71790  0.43500  Biso   1.000  C
  C143     1.0000 0.41950  0.57030  0.47100  Biso   1.000  C
  O88      1.0000 0.39830  0.77370  0.37200  Biso   1.000  O
  C144     1.0000 0.41020  0.62960  0.41400  Biso   1.000  C
  H54      1.0000 0.40520  0.61050  0.36160  Biso   1.000  H
  C145     1.0000 0.48050  0.95400  0.87400  Biso   1.000  C
  H55      1.0000 0.46630  0.98200  0.85610  Biso   1.000  H
  C146     1.0000 0.47830  0.86100  0.88800  Biso   1.000  C
  C147     1.0000 0.47730  0.95500  0.90400  Biso   1.000  C
  H56      1.0000 0.46230  0.98360  0.91310  Biso   1.000  H
  C148     1.0000 0.47960  0.86700  0.87100  Biso   1.000  C
  Zn17     1.0000 0.25296  0.06101  0.04909  Biso   1.000  Zn
  Zn18     1.0000 0.20057  0.05122  0.15008  Biso   1.000  Zn
  Zn19     1.0000 0.09555  0.32593  0.79350  Biso   1.000  Zn
  Zn20     1.0000 0.07028  0.15115  0.83811  Biso   1.000  Zn
  O89      1.0000 0.10090  0.22130  0.86190  Biso   1.000  O
  O90      1.0000 0.16430  0.08150  0.66180  Biso   1.000  O
  O91      1.0000 0.18410  0.99340  0.74640  Biso   1.000  O
  O92      1.0000 0.15900  0.14880  0.09700  Biso   1.000  O
  O93      1.0000 0.18693  0.06670  0.03900  Biso   1.000  O
  O94      1.0000 0.22972  0.98220  0.11540  Biso   1.000  O
  O95      1.0000 0.24330  0.95610  0.42970  Biso   1.000  O
  O96      1.0000 0.27230  0.85500  0.43860  Biso   1.000  O
  O97      1.0000 0.07210  0.14480  0.71730  Biso   1.000  O
  O98      1.0000 0.07530  0.96620  0.36520  Biso   1.000  O
  O99      1.0000 0.13490  0.34940  0.74600  Biso   1.000  O
  O100     1.0000 0.08290  0.28190  0.68270  Biso   1.000  O
  O101     1.0000 0.06510  0.36610  0.85030  Biso   1.000  O
  O102     1.0000 0.04490  0.23690  0.86430  Biso   1.000  O
  O103     1.0000 0.10720  0.44880  0.77220  Biso   1.000  O
  O104     1.0000 0.21400  0.55380  0.53690  Biso   1.000  O
  O105     1.0000 0.21648  0.43910  0.61830  Biso   1.000  O
  O106     1.0000 0.28490  0.65790  0.20010  Biso   1.000  O
  O107     1.0000 0.26200  0.67720  0.08450  Biso   1.000  O
  O108     1.0000 0.14800  0.73220  0.70470  Biso   1.000  O
  O109     1.0000 0.07180  0.92260  0.49050  Biso   1.000  O
  C149     1.0000 0.12340  0.17670  0.86810  Biso   1.000  C
  C150     1.0000 0.13440  0.14290  0.79860  Biso   1.000  C
  H57      1.0000 0.12730  0.15190  0.74650  Biso   1.000  H
  C151     1.0000 0.13310  0.16800  0.94520  Biso   1.000  C
  H58      1.0000 0.12510  0.19120  0.99160  Biso   1.000  H
  C152     1.0000 0.15620  0.09470  0.80530  Biso   1.000  C
  C153     1.0000 0.15560  0.12270  0.95350  Biso   1.000  C
  C154     1.0000 0.16620  0.08560  0.88620  Biso   1.000  C
  H59      1.0000 0.18060  0.05300  0.89330  Biso   1.000  H
  C155     1.0000 0.16820  0.05650  0.73020  Biso   1.000  C
  C156     1.0000 0.16830  0.11380  0.03560  Biso   1.000  C
  C157     1.0000 0.24010  0.92190  0.17090  Biso   1.000  C
  C158     1.0000 0.24860  0.84450  0.13600  Biso   1.000  C
  H60      1.0000 0.24650  0.83250  0.07960  Biso   1.000  H
  C159     1.0000 0.24230  0.94010  0.25160  Biso   1.000  C
  H61      1.0000 0.23520  0.99120  0.27220  Biso   1.000  H
  C160     1.0000 0.26000  0.78720  0.18740  Biso   1.000  C
  C161     1.0000 0.25470  0.88520  0.30590  Biso   1.000  C
  C162     1.0000 0.26520  0.80580  0.27230  Biso   1.000  C
  H62      1.0000 0.27480  0.76860  0.30480  Biso   1.000  H
  C163     1.0000 0.25710  0.89890  0.39570  Biso   1.000  C
  C164     1.0000 0.20600  0.51030  0.59370  Biso   1.000  C
  C165     1.0000 0.18280  0.53220  0.63820  Biso   1.000  C
  C166     1.0000 0.04610  0.31690  0.86230  Biso   1.000  C
  C167     1.0000 0.27010  0.69870  0.15300  Biso   1.000  C
  C168     1.0000 0.17570  0.62250  0.64480  Biso   1.000  C
  H63      1.0000 0.18540  0.66490  0.61930  Biso   1.000  H
  C169     1.0000 0.07830  0.20440  0.66350  Biso   1.000  C
  C170     1.0000 0.16750  0.47130  0.67100  Biso   1.000  C
  H64      1.0000 0.17170  0.41260  0.66600  Biso   1.000  H
  C171     1.0000 0.15490  0.64750  0.68790  Biso   1.000  C
  C172     1.0000 0.12710  0.42660  0.74430  Biso   1.000  C
  C173     1.0000 0.14580  0.49390  0.71200  Biso   1.000  C
  C174     1.0000 0.13830  0.58130  0.71800  Biso   1.000  C
  H65      1.0000 0.12300  0.59600  0.74080  Biso   1.000  H
  C175     1.0000 0.08270  0.18000  0.57620  Biso   1.000  C
  C176     1.0000 0.07600  0.09580  0.54950  Biso   1.000  C
  H66      1.0000 0.06850  0.05750  0.58670  Biso   1.000  H
  C177     1.0000 0.09080  0.23850  0.51850  Biso   1.000  C
  H67      1.0000 0.09600  0.29350  0.53590  Biso   1.000  H
  C178     1.0000 0.07500  0.97680  0.44260  Biso   1.000  C
  C179     1.0000 0.09170  0.21790  0.43500  Biso   1.000  C
  C180     1.0000 0.08050  0.07030  0.47100  Biso   1.000  C
  O110     1.0000 0.10170  0.27370  0.37200  Biso   1.000  O
  C181     1.0000 0.08980  0.12960  0.41400  Biso   1.000  C
  H68      1.0000 0.09480  0.11050  0.36160  Biso   1.000  H
  C182     1.0000 0.01950  0.45400  0.87400  Biso   1.000  C
  H69      1.0000 0.03370  0.48200  0.85610  Biso   1.000  H
  C183     1.0000 0.02170  0.36100  0.88800  Biso   1.000  C
  C184     1.0000 0.02270  0.45500  0.90400  Biso   1.000  C
  H70      1.0000 0.03770  0.48360  0.91310  Biso   1.000  H
  C185     1.0000 0.02040  0.36700  0.87100  Biso   1.000  C
  Zn21     1.0000 0.75296  0.56101  0.04909  Biso   1.000  Zn
  Zn22     1.0000 0.70057  0.55122  0.15008  Biso   1.000  Zn
  Zn23     1.0000 0.59555  0.82593  0.79350  Biso   1.000  Zn
  Zn24     1.0000 0.57028  0.65115  0.83811  Biso   1.000  Zn
  O111     1.0000 0.60090  0.72130  0.86190  Biso   1.000  O
  O112     1.0000 0.66430  0.58150  0.66180  Biso   1.000  O
  O113     1.0000 0.68410  0.49340  0.74640  Biso   1.000  O
  O114     1.0000 0.65900  0.64880  0.09700  Biso   1.000  O
  O115     1.0000 0.68693  0.56670  0.03900  Biso   1.000  O
  O116     1.0000 0.72972  0.48220  0.11540  Biso   1.000  O
  O117     1.0000 0.74330  0.45610  0.42970  Biso   1.000  O
  O118     1.0000 0.77230  0.35500  0.43860  Biso   1.000  O
  O119     1.0000 0.57210  0.64480  0.71730  Biso   1.000  O
  O120     1.0000 0.57530  0.46620  0.36520  Biso   1.000  O
  O121     1.0000 0.63490  0.84940  0.74600  Biso   1.000  O
  O122     1.0000 0.58290  0.78190  0.68270  Biso   1.000  O
  O123     1.0000 0.56510  0.86610  0.85030  Biso   1.000  O
  O124     1.0000 0.54490  0.73690  0.86430  Biso   1.000  O
  O125     1.0000 0.60720  0.94880  0.77220  Biso   1.000  O
  O126     1.0000 0.71400  0.05380  0.53690  Biso   1.000  O
  O127     1.0000 0.71648  0.93910  0.61830  Biso   1.000  O
  O128     1.0000 0.78490  0.15790  0.20010  Biso   1.000  O
  O129     1.0000 0.76200  0.17720  0.08450  Biso   1.000  O
  O130     1.0000 0.64800  0.23220  0.70470  Biso   1.000  O
  O131     1.0000 0.57180  0.42260  0.49050  Biso   1.000  O
  C186     1.0000 0.62340  0.67670  0.86810  Biso   1.000  C
  C187     1.0000 0.63440  0.64290  0.79860  Biso   1.000  C
  H71      1.0000 0.62730  0.65190  0.74650  Biso   1.000  H
  C188     1.0000 0.63310  0.66800  0.94520  Biso   1.000  C
  H72      1.0000 0.62510  0.69120  0.99160  Biso   1.000  H
  C189     1.0000 0.65620  0.59470  0.80530  Biso   1.000  C
  C190     1.0000 0.65560  0.62270  0.95350  Biso   1.000  C
  C191     1.0000 0.66620  0.58560  0.88620  Biso   1.000  C
  H73      1.0000 0.68060  0.55300  0.89330  Biso   1.000  H
  C192     1.0000 0.66820  0.55650  0.73020  Biso   1.000  C
  C193     1.0000 0.66830  0.61380  0.03560  Biso   1.000  C
  C194     1.0000 0.74010  0.42190  0.17090  Biso   1.000  C
  C195     1.0000 0.74860  0.34450  0.13600  Biso   1.000  C
  H74      1.0000 0.74650  0.33250  0.07960  Biso   1.000  H
  C196     1.0000 0.74230  0.44010  0.25160  Biso   1.000  C
  H75      1.0000 0.73520  0.49120  0.27220  Biso   1.000  H
  C197     1.0000 0.76000  0.28720  0.18740  Biso   1.000  C
  C198     1.0000 0.75470  0.38520  0.30590  Biso   1.000  C
  C199     1.0000 0.76520  0.30580  0.27230  Biso   1.000  C
  H76      1.0000 0.77480  0.26860  0.30480  Biso   1.000  H
  C200     1.0000 0.75710  0.39890  0.39570  Biso   1.000  C
  C201     1.0000 0.70600  0.01030  0.59370  Biso   1.000  C
  C202     1.0000 0.68280  0.03220  0.63820  Biso   1.000  C
  C203     1.0000 0.54610  0.81690  0.86230  Biso   1.000  C
  C204     1.0000 0.77010  0.19870  0.15300  Biso   1.000  C
  C205     1.0000 0.67570  0.12250  0.64480  Biso   1.000  C
  H77      1.0000 0.68540  0.16490  0.61930  Biso   1.000  H
  C206     1.0000 0.57830  0.70440  0.66350  Biso   1.000  C
  C207     1.0000 0.66750  0.97130  0.67100  Biso   1.000  C
  H78      1.0000 0.67170  0.91260  0.66600  Biso   1.000  H
  C208     1.0000 0.65490  0.14750  0.68790  Biso   1.000  C
  C209     1.0000 0.62710  0.92660  0.74430  Biso   1.000  C
  C210     1.0000 0.64580  0.99390  0.71200  Biso   1.000  C
  C211     1.0000 0.63830  0.08130  0.71800  Biso   1.000  C
  H79      1.0000 0.62300  0.09600  0.74080  Biso   1.000  H
  C212     1.0000 0.58270  0.68000  0.57620  Biso   1.000  C
  C213     1.0000 0.57600  0.59580  0.54950  Biso   1.000  C
  H80      1.0000 0.56850  0.55750  0.58670  Biso   1.000  H
  C214     1.0000 0.59080  0.73850  0.51850  Biso   1.000  C
  H81      1.0000 0.59600  0.79350  0.53590  Biso   1.000  H
  C215     1.0000 0.57500  0.47680  0.44260  Biso   1.000  C
  C216     1.0000 0.59170  0.71790  0.43500  Biso   1.000  C
  C217     1.0000 0.58050  0.57030  0.47100  Biso   1.000  C
  O132     1.0000 0.60170  0.77370  0.37200  Biso   1.000  O
  C218     1.0000 0.58980  0.62960  0.41400  Biso   1.000  C
  H82      1.0000 0.59480  0.61050  0.36160  Biso   1.000  H
  C219     1.0000 0.51950  0.95400  0.87400  Biso   1.000  C
  H83      1.0000 0.53370  0.98200  0.85610  Biso   1.000  H
  C220     1.0000 0.52170  0.86100  0.88800  Biso   1.000  C
  C221     1.0000 0.52270  0.95500  0.90400  Biso   1.000  C
  H84      1.0000 0.53770  0.98360  0.91310  Biso   1.000  H
  C222     1.0000 0.52040  0.86700  0.87100  Biso   1.000  C
  Zn25     1.0000 0.74704  0.93899  0.54909  Biso   1.000  Zn
  Zn26     1.0000 0.79943  0.94878  0.65008  Biso   1.000  Zn
  Zn27     1.0000 0.90445  0.67407  0.29350  Biso   1.000  Zn
  Zn28     1.0000 0.92972  0.84885  0.33811  Biso   1.000  Zn
  O133     1.0000 0.89910  0.77870  0.36190  Biso   1.000  O
  O134     1.0000 0.83570  0.91850  0.16180  Biso   1.000  O
  O135     1.0000 0.81590  0.00660  0.24640  Biso   1.000  O
  O136     1.0000 0.84100  0.85120  0.59700  Biso   1.000  O
  O137     1.0000 0.81307  0.93330  0.53900  Biso   1.000  O
  O138     1.0000 0.77028  0.01780  0.61540  Biso   1.000  O
  O139     1.0000 0.75670  0.04390  0.92970  Biso   1.000  O
  O140     1.0000 0.72770  0.14500  0.93860  Biso   1.000  O
  O141     1.0000 0.92790  0.85520  0.21730  Biso   1.000  O
  O142     1.0000 0.92470  0.03380  0.86520  Biso   1.000  O
  O143     1.0000 0.86510  0.65060  0.24600  Biso   1.000  O
  O144     1.0000 0.91710  0.71810  0.18270  Biso   1.000  O
  O145     1.0000 0.93490  0.63390  0.35030  Biso   1.000  O
  O146     1.0000 0.95510  0.76310  0.36430  Biso   1.000  O
  O147     1.0000 0.89280  0.55120  0.27220  Biso   1.000  O
  O148     1.0000 0.78600  0.44620  0.03690  Biso   1.000  O
  O149     1.0000 0.78352  0.56090  0.11830  Biso   1.000  O
  O150     1.0000 0.71510  0.34210  0.70010  Biso   1.000  O
  O151     1.0000 0.73800  0.32280  0.58450  Biso   1.000  O
  O152     1.0000 0.85200  0.26780  0.20470  Biso   1.000  O
  O153     1.0000 0.92820  0.07740  0.99050  Biso   1.000  O
  C223     1.0000 0.87660  0.82330  0.36810  Biso   1.000  C
  C224     1.0000 0.86560  0.85710  0.29860  Biso   1.000  C
  H85      1.0000 0.87270  0.84810  0.24650  Biso   1.000  H
  C225     1.0000 0.86690  0.83200  0.44520  Biso   1.000  C
  H86      1.0000 0.87490  0.80880  0.49160  Biso   1.000  H
  C226     1.0000 0.84380  0.90530  0.30530  Biso   1.000  C
  C227     1.0000 0.84440  0.87730  0.45350  Biso   1.000  C
  C228     1.0000 0.83380  0.91440  0.38620  Biso   1.000  C
  H87      1.0000 0.81940  0.94700  0.39330  Biso   1.000  H
  C229     1.0000 0.83180  0.94350  0.23020  Biso   1.000  C
  C230     1.0000 0.83170  0.88620  0.53560  Biso   1.000  C
  C231     1.0000 0.75990  0.07810  0.67090  Biso   1.000  C
  C232     1.0000 0.75140  0.15550  0.63600  Biso   1.000  C
  H88      1.0000 0.75350  0.16750  0.57960  Biso   1.000  H
  C233     1.0000 0.75770  0.05990  0.75160  Biso   1.000  C
  H89      1.0000 0.76480  0.00880  0.77220  Biso   1.000  H
  C234     1.0000 0.74000  0.21280  0.68740  Biso   1.000  C
  C235     1.0000 0.74530  0.11480  0.80590  Biso   1.000  C
  C236     1.0000 0.73480  0.19420  0.77230  Biso   1.000  C
  H90      1.0000 0.72520  0.23140  0.80480  Biso   1.000  H
  C237     1.0000 0.74290  0.10110  0.89570  Biso   1.000  C
  C238     1.0000 0.79400  0.48970  0.09370  Biso   1.000  C
  C239     1.0000 0.81720  0.46780  0.13820  Biso   1.000  C
  C240     1.0000 0.95390  0.68310  0.36230  Biso   1.000  C
  C241     1.0000 0.72990  0.30130  0.65300  Biso   1.000  C
  C242     1.0000 0.82430  0.37750  0.14480  Biso   1.000  C
  H91      1.0000 0.81460  0.33510  0.11930  Biso   1.000  H
  C243     1.0000 0.92170  0.79560  0.16350  Biso   1.000  C
  C244     1.0000 0.83250  0.52870  0.17100  Biso   1.000  C
  H92      1.0000 0.82830  0.58740  0.16600  Biso   1.000  H
  C245     1.0000 0.84510  0.35250  0.18790  Biso   1.000  C
  C246     1.0000 0.87290  0.57340  0.24430  Biso   1.000  C
  C247     1.0000 0.85420  0.50610  0.21200  Biso   1.000  C
  C248     1.0000 0.86170  0.41870  0.21800  Biso   1.000  C
  H93      1.0000 0.87700  0.40400  0.24080  Biso   1.000  H
  C249     1.0000 0.91730  0.82000  0.07620  Biso   1.000  C
  C250     1.0000 0.92400  0.90420  0.04950  Biso   1.000  C
  H94      1.0000 0.93150  0.94250  0.08670  Biso   1.000  H
  C251     1.0000 0.90920  0.76150  0.01850  Biso   1.000  C
  H95      1.0000 0.90400  0.70650  0.03590  Biso   1.000  H
  C252     1.0000 0.92500  0.02320  0.94260  Biso   1.000  C
  C253     1.0000 0.90830  0.78210  0.93500  Biso   1.000  C
  C254     1.0000 0.91950  0.92970  0.97100  Biso   1.000  C
  O154     1.0000 0.89830  0.72630  0.87200  Biso   1.000  O
  C255     1.0000 0.91020  0.87040  0.91400  Biso   1.000  C
  H96      1.0000 0.90520  0.88950  0.86160  Biso   1.000  H
  C256     1.0000 0.98050  0.54600  0.37400  Biso   1.000  C
  H97      1.0000 0.96630  0.51800  0.35610  Biso   1.000  H
  C257     1.0000 0.97830  0.63900  0.38800  Biso   1.000  C
  C258     1.0000 0.97730  0.54500  0.40400  Biso   1.000  C
  H98      1.0000 0.96230  0.51640  0.41310  Biso   1.000  H
  C259     1.0000 0.97960  0.63300  0.37100  Biso   1.000  C
  Zn29     1.0000 0.24704  0.43899  0.54909  Biso   1.000  Zn
  Zn30     1.0000 0.29943  0.44878  0.65008  Biso   1.000  Zn
  Zn31     1.0000 0.40445  0.17407  0.29350  Biso   1.000  Zn
  Zn32     1.0000 0.42972  0.34885  0.33811  Biso   1.000  Zn
  O155     1.0000 0.39910  0.27870  0.36190  Biso   1.000  O
  O156     1.0000 0.33570  0.41850  0.16180  Biso   1.000  O
  O157     1.0000 0.31590  0.50660  0.24640  Biso   1.000  O
  O158     1.0000 0.34100  0.35120  0.59700  Biso   1.000  O
  O159     1.0000 0.31307  0.43330  0.53900  Biso   1.000  O
  O160     1.0000 0.27028  0.51780  0.61540  Biso   1.000  O
  O161     1.0000 0.25670  0.54390  0.92970  Biso   1.000  O
  O162     1.0000 0.22770  0.64500  0.93860  Biso   1.000  O
  O163     1.0000 0.42790  0.35520  0.21730  Biso   1.000  O
  O164     1.0000 0.42470  0.53380  0.86520  Biso   1.000  O
  O165     1.0000 0.36510  0.15060  0.24600  Biso   1.000  O
  O166     1.0000 0.41710  0.21810  0.18270  Biso   1.000  O
  O167     1.0000 0.43490  0.13390  0.35030  Biso   1.000  O
  O168     1.0000 0.45510  0.26310  0.36430  Biso   1.000  O
  O169     1.0000 0.39280  0.05120  0.27220  Biso   1.000  O
  O170     1.0000 0.28600  0.94620  0.03690  Biso   1.000  O
  O171     1.0000 0.28352  0.06090  0.11830  Biso   1.000  O
  O172     1.0000 0.21510  0.84210  0.70010  Biso   1.000  O
  O173     1.0000 0.23800  0.82280  0.58450  Biso   1.000  O
  O174     1.0000 0.35200  0.76780  0.20470  Biso   1.000  O
  O175     1.0000 0.42820  0.57740  0.99050  Biso   1.000  O
  C260     1.0000 0.37660  0.32330  0.36810  Biso   1.000  C
  C261     1.0000 0.36560  0.35710  0.29860  Biso   1.000  C
  H99      1.0000 0.37270  0.34810  0.24650  Biso   1.000  H
  C262     1.0000 0.36690  0.33200  0.44520  Biso   1.000  C
  H100     1.0000 0.37490  0.30880  0.49160  Biso   1.000  H
  C263     1.0000 0.34380  0.40530  0.30530  Biso   1.000  C
  C264     1.0000 0.34440  0.37730  0.45350  Biso   1.000  C
  C265     1.0000 0.33380  0.41440  0.38620  Biso   1.000  C
  H101     1.0000 0.31940  0.44700  0.39330  Biso   1.000  H
  C266     1.0000 0.33180  0.44350  0.23020  Biso   1.000  C
  C267     1.0000 0.33170  0.38620  0.53560  Biso   1.000  C
  C268     1.0000 0.25990  0.57810  0.67090  Biso   1.000  C
  C269     1.0000 0.25140  0.65550  0.63600  Biso   1.000  C
  H102     1.0000 0.25350  0.66750  0.57960  Biso   1.000  H
  C270     1.0000 0.25770  0.55990  0.75160  Biso   1.000  C
  H103     1.0000 0.26480  0.50880  0.77220  Biso   1.000  H
  C271     1.0000 0.24000  0.71280  0.68740  Biso   1.000  C
  C272     1.0000 0.24530  0.61480  0.80590  Biso   1.000  C
  C273     1.0000 0.23480  0.69420  0.77230  Biso   1.000  C
  H104     1.0000 0.22520  0.73140  0.80480  Biso   1.000  H
  C274     1.0000 0.24290  0.60110  0.89570  Biso   1.000  C
  C275     1.0000 0.29400  0.98970  0.09370  Biso   1.000  C
  C276     1.0000 0.31720  0.96780  0.13820  Biso   1.000  C
  C277     1.0000 0.45390  0.18310  0.36230  Biso   1.000  C
  C278     1.0000 0.22990  0.80130  0.65300  Biso   1.000  C
  C279     1.0000 0.32430  0.87750  0.14480  Biso   1.000  C
  H105     1.0000 0.31460  0.83510  0.11930  Biso   1.000  H
  C280     1.0000 0.42170  0.29560  0.16350  Biso   1.000  C
  C281     1.0000 0.33250  0.02870  0.17100  Biso   1.000  C
  H106     1.0000 0.32830  0.08740  0.16600  Biso   1.000  H
  C282     1.0000 0.34510  0.85250  0.18790  Biso   1.000  C
  C283     1.0000 0.37290  0.07340  0.24430  Biso   1.000  C
  C284     1.0000 0.35420  0.00610  0.21200  Biso   1.000  C
  C285     1.0000 0.36170  0.91870  0.21800  Biso   1.000  C
  H107     1.0000 0.37700  0.90400  0.24080  Biso   1.000  H
  C286     1.0000 0.41730  0.32000  0.07620  Biso   1.000  C
  C287     1.0000 0.42400  0.40420  0.04950  Biso   1.000  C
  H108     1.0000 0.43150  0.44250  0.08670  Biso   1.000  H
  C288     1.0000 0.40920  0.26150  0.01850  Biso   1.000  C
  H109     1.0000 0.40400  0.20650  0.03590  Biso   1.000  H
  C289     1.0000 0.42500  0.52320  0.94260  Biso   1.000  C
  C290     1.0000 0.40830  0.28210  0.93500  Biso   1.000  C
  C291     1.0000 0.41950  0.42970  0.97100  Biso   1.000  C
  O176     1.0000 0.39830  0.22630  0.87200  Biso   1.000  O
  C292     1.0000 0.41020  0.37040  0.91400  Biso   1.000  C
  H110     1.0000 0.40520  0.38950  0.86160  Biso   1.000  H
  C293     1.0000 0.48050  0.04600  0.37400  Biso   1.000  C
  H111     1.0000 0.46630  0.01800  0.35610  Biso   1.000  H
  C294     1.0000 0.47830  0.13900  0.38800  Biso   1.000  C
  C295     1.0000 0.47730  0.04500  0.40400  Biso   1.000  C
  H112     1.0000 0.46230  0.01640  0.41310  Biso   1.000  H
  C296     1.0000 0.47960  0.13300  0.37100  Biso   1.000  C
  O177     1.0000 0.00000  0.40900  0.38600  Biso   1.000  O
  C297     1.0000 0.00000  0.49800  0.38300  Biso   1.000  C
  C298     1.0000 0.00000  0.67600  0.36900  Biso   1.000  C
  H113     1.0000 0.00000  0.72990  0.34160  Biso   1.000  H
  C299     1.0000 0.00000  0.50800  0.41900  Biso   1.000  C
  O178     1.0000 0.00000  0.41600  0.43600  Biso   1.000  O
  C300     1.0000 0.00000  0.67600  0.38200  Biso   1.000  C
  H114     1.0000 0.00000  0.73480  0.39680  Biso   1.000  H
  O179     1.0000 0.50000  0.90900  0.38600  Biso   1.000  O
  C301     1.0000 0.50000  0.99800  0.38300  Biso   1.000  C
  C302     1.0000 0.50000  0.17600  0.36900  Biso   1.000  C
  H115     1.0000 0.50000  0.22990  0.34160  Biso   1.000  H
  C303     1.0000 0.50000  0.00800  0.41900  Biso   1.000  C
  O180     1.0000 0.50000  0.91600  0.43600  Biso   1.000  O
  C304     1.0000 0.50000  0.17600  0.38200  Biso   1.000  C
  H116     1.0000 0.50000  0.23480  0.39680  Biso   1.000  H
  O181     1.0000 0.00000  0.59100  0.88600  Biso   1.000  O
  C305     1.0000 0.00000  0.50200  0.88300  Biso   1.000  C
  C306     1.0000 0.00000  0.32400  0.86900  Biso   1.000  C
  H117     1.0000 0.00000  0.27010  0.84160  Biso   1.000  H
  C307     1.0000 0.00000  0.49200  0.91900  Biso   1.000  C
  O182     1.0000 0.00000  0.58400  0.93600  Biso   1.000  O
  C308     1.0000 0.00000  0.32400  0.88200  Biso   1.000  C
  H118     1.0000 0.00000  0.26520  0.89680  Biso   1.000  H
  O183     1.0000 0.50000  0.09100  0.88600  Biso   1.000  O
  C309     1.0000 0.50000  0.00200  0.88300  Biso   1.000  C
  C310     1.0000 0.50000  0.82400  0.86900  Biso   1.000  C
  H119     1.0000 0.50000  0.77010  0.84160  Biso   1.000  H
  C311     1.0000 0.50000  0.99200  0.91900  Biso   1.000  C
  O184     1.0000 0.50000  0.08400  0.93600  Biso   1.000  O
  C312     1.0000 0.50000  0.82400  0.88200  Biso   1.000  C
  H120     1.0000 0.50000  0.76520  0.89680  Biso   1.000  H
