data_image0
_cell_length_a       25.92
_cell_length_b       28.56
_cell_length_c       40.27
_cell_angle_alpha    90
_cell_angle_beta     90
_cell_angle_gamma    90

_symmetry_space_group_name_H-M    "P 1"
_symmetry_int_tables_number       1

loop_
  _symmetry_equiv_pos_as_xyz
  'x, y, z'

loop_
  _atom_site_label
  _atom_site_occupancy
  _atom_site_fract_x
  _atom_site_fract_y
  _atom_site_fract_z
  _atom_site_thermal_displace_type
  _atom_site_B_iso_or_equiv
  _atom_site_type_symbol
  O1       1.0000 0.26206  0.45080  0.20720  Biso   1.000  O
  O2       1.0000 0.44563  0.26624  0.20993  Biso   1.000  O
  O3       1.0000 0.32044  0.44923  0.24777  Biso   1.000  O
  O4       1.0000 0.44461  0.31671  0.25153  Biso   1.000  O
  C1       1.0000 0.26560  0.26900  0.02997  Biso   1.000  C
  C2       1.0000 0.28340  0.29030  0.06250  Biso   1.000  C
  C3       1.0000 0.33550  0.28580  0.07261  Biso   1.000  C
  H1       1.0000 0.35940  0.27170  0.05860  Biso   1.000  H
  C4       1.0000 0.24970  0.31200  0.08395  Biso   1.000  C
  H2       1.0000 0.21520  0.31520  0.07800  Biso   1.000  H
  C5       1.0000 0.35090  0.30230  0.10335  Biso   1.000  C
  H3       1.0000 0.38510  0.29850  0.10990  Biso   1.000  H
  C6       1.0000 0.26630  0.32890  0.11389  Biso   1.000  C
  H4       1.0000 0.24300  0.34410  0.12770  Biso   1.000  H
  C7       1.0000 0.31760  0.32390  0.12416  Biso   1.000  C
  C8       1.0000 0.33440  0.34053  0.15802  Biso   1.000  C
  C9       1.0000 0.37370  0.31640  0.17531  Biso   1.000  C
  H5       1.0000 0.38940  0.29050  0.16550  Biso   1.000  H
  C10      1.0000 0.31080  0.37800  0.17342  Biso   1.000  C
  H6       1.0000 0.28370  0.39330  0.16290  Biso   1.000  H
  C11      1.0000 0.38920  0.33030  0.20623  Biso   1.000  C
  C12      1.0000 0.32730  0.39320  0.20491  Biso   1.000  C
  C13      1.0000 0.36650  0.36920  0.22096  Biso   1.000  C
  H7       1.0000 0.37760  0.37910  0.24170  Biso   1.000  H
  C14      1.0000 0.30180  0.43440  0.22106  Biso   1.000  C
  C15      1.0000 0.43000  0.30200  0.22397  Biso   1.000  C
  H8       1.0000 0.32170  0.34280  0.97750  Biso   1.000  H
  H9       1.0000 0.34520  0.32920  0.01210  Biso   1.000  H
  H10      1.0000 0.29430  0.35870  0.01040  Biso   1.000  H
  H11      1.0000 0.31910  0.34430  0.02250  Biso   1.000  H
  H12      1.0000 0.29560  0.35790  0.98790  Biso   1.000  H
  H13      1.0000 0.34650  0.32850  0.98960  Biso   1.000  H
  O5       1.0000 0.26206  0.95080  0.70720  Biso   1.000  O
  O6       1.0000 0.44563  0.76624  0.70993  Biso   1.000  O
  O7       1.0000 0.32044  0.94923  0.74777  Biso   1.000  O
  O8       1.0000 0.44461  0.81671  0.75153  Biso   1.000  O
  C16      1.0000 0.26560  0.76900  0.52997  Biso   1.000  C
  C17      1.0000 0.28340  0.79030  0.56250  Biso   1.000  C
  C18      1.0000 0.33550  0.78580  0.57261  Biso   1.000  C
  H14      1.0000 0.35940  0.77170  0.55860  Biso   1.000  H
  C19      1.0000 0.24970  0.81200  0.58395  Biso   1.000  C
  H15      1.0000 0.21520  0.81520  0.57800  Biso   1.000  H
  C20      1.0000 0.35090  0.80230  0.60335  Biso   1.000  C
  H16      1.0000 0.38510  0.79850  0.60990  Biso   1.000  H
  C21      1.0000 0.26630  0.82890  0.61389  Biso   1.000  C
  H17      1.0000 0.24300  0.84410  0.62770  Biso   1.000  H
  C22      1.0000 0.31760  0.82390  0.62416  Biso   1.000  C
  C23      1.0000 0.33440  0.84053  0.65802  Biso   1.000  C
  C24      1.0000 0.37370  0.81640  0.67531  Biso   1.000  C
  H18      1.0000 0.38940  0.79050  0.66550  Biso   1.000  H
  C25      1.0000 0.31080  0.87800  0.67342  Biso   1.000  C
  H19      1.0000 0.28370  0.89330  0.66290  Biso   1.000  H
  C26      1.0000 0.38920  0.83030  0.70623  Biso   1.000  C
  C27      1.0000 0.32730  0.89320  0.70491  Biso   1.000  C
  C28      1.0000 0.36650  0.86920  0.72096  Biso   1.000  C
  H20      1.0000 0.37760  0.87910  0.74170  Biso   1.000  H
  C29      1.0000 0.30180  0.93440  0.72106  Biso   1.000  C
  C30      1.0000 0.43000  0.80200  0.72397  Biso   1.000  C
  H21      1.0000 0.32170  0.84280  0.47750  Biso   1.000  H
  H22      1.0000 0.34520  0.82920  0.51210  Biso   1.000  H
  H23      1.0000 0.29430  0.85870  0.51040  Biso   1.000  H
  H24      1.0000 0.31910  0.84430  0.52250  Biso   1.000  H
  H25      1.0000 0.29560  0.85790  0.48790  Biso   1.000  H
  H26      1.0000 0.34650  0.82850  0.48960  Biso   1.000  H
  O9       1.0000 0.76206  0.45080  0.70720  Biso   1.000  O
  O10      1.0000 0.94563  0.26624  0.70993  Biso   1.000  O
  O11      1.0000 0.82044  0.44923  0.74777  Biso   1.000  O
  O12      1.0000 0.94461  0.31671  0.75153  Biso   1.000  O
  C31      1.0000 0.76560  0.26900  0.52997  Biso   1.000  C
  C32      1.0000 0.78340  0.29030  0.56250  Biso   1.000  C
  C33      1.0000 0.83550  0.28580  0.57261  Biso   1.000  C
  H27      1.0000 0.85940  0.27170  0.55860  Biso   1.000  H
  C34      1.0000 0.74970  0.31200  0.58395  Biso   1.000  C
  H28      1.0000 0.71520  0.31520  0.57800  Biso   1.000  H
  C35      1.0000 0.85090  0.30230  0.60335  Biso   1.000  C
  H29      1.0000 0.88510  0.29850  0.60990  Biso   1.000  H
  C36      1.0000 0.76630  0.32890  0.61389  Biso   1.000  C
  H30      1.0000 0.74300  0.34410  0.62770  Biso   1.000  H
  C37      1.0000 0.81760  0.32390  0.62416  Biso   1.000  C
  C38      1.0000 0.83440  0.34053  0.65802  Biso   1.000  C
  C39      1.0000 0.87370  0.31640  0.67531  Biso   1.000  C
  H31      1.0000 0.88940  0.29050  0.66550  Biso   1.000  H
  C40      1.0000 0.81080  0.37800  0.67342  Biso   1.000  C
  H32      1.0000 0.78370  0.39330  0.66290  Biso   1.000  H
  C41      1.0000 0.88920  0.33030  0.70623  Biso   1.000  C
  C42      1.0000 0.82730  0.39320  0.70491  Biso   1.000  C
  C43      1.0000 0.86650  0.36920  0.72096  Biso   1.000  C
  H33      1.0000 0.87760  0.37910  0.74170  Biso   1.000  H
  C44      1.0000 0.80180  0.43440  0.72106  Biso   1.000  C
  C45      1.0000 0.93000  0.30200  0.72397  Biso   1.000  C
  H34      1.0000 0.82170  0.34280  0.47750  Biso   1.000  H
  H35      1.0000 0.84520  0.32920  0.51210  Biso   1.000  H
  H36      1.0000 0.79430  0.35870  0.51040  Biso   1.000  H
  H37      1.0000 0.81910  0.34430  0.52250  Biso   1.000  H
  H38      1.0000 0.79560  0.35790  0.48790  Biso   1.000  H
  H39      1.0000 0.84650  0.32850  0.48960  Biso   1.000  H
  O13      1.0000 0.76206  0.95080  0.20720  Biso   1.000  O
  O14      1.0000 0.94563  0.76624  0.20993  Biso   1.000  O
  O15      1.0000 0.82044  0.94923  0.24777  Biso   1.000  O
  O16      1.0000 0.94461  0.81671  0.25153  Biso   1.000  O
  C46      1.0000 0.76560  0.76900  0.02997  Biso   1.000  C
  C47      1.0000 0.78340  0.79030  0.06250  Biso   1.000  C
  C48      1.0000 0.83550  0.78580  0.07261  Biso   1.000  C
  H40      1.0000 0.85940  0.77170  0.05860  Biso   1.000  H
  C49      1.0000 0.74970  0.81200  0.08395  Biso   1.000  C
  H41      1.0000 0.71520  0.81520  0.07800  Biso   1.000  H
  C50      1.0000 0.85090  0.80230  0.10335  Biso   1.000  C
  H42      1.0000 0.88510  0.79850  0.10990  Biso   1.000  H
  C51      1.0000 0.76630  0.82890  0.11389  Biso   1.000  C
  H43      1.0000 0.74300  0.84410  0.12770  Biso   1.000  H
  C52      1.0000 0.81760  0.82390  0.12416  Biso   1.000  C
  C53      1.0000 0.83440  0.84053  0.15802  Biso   1.000  C
  C54      1.0000 0.87370  0.81640  0.17531  Biso   1.000  C
  H44      1.0000 0.88940  0.79050  0.16550  Biso   1.000  H
  C55      1.0000 0.81080  0.87800  0.17342  Biso   1.000  C
  H45      1.0000 0.78370  0.89330  0.16290  Biso   1.000  H
  C56      1.0000 0.88920  0.83030  0.20623  Biso   1.000  C
  C57      1.0000 0.82730  0.89320  0.20491  Biso   1.000  C
  C58      1.0000 0.86650  0.86920  0.22096  Biso   1.000  C
  H46      1.0000 0.87760  0.87910  0.24170  Biso   1.000  H
  C59      1.0000 0.80180  0.93440  0.22106  Biso   1.000  C
  C60      1.0000 0.93000  0.80200  0.22397  Biso   1.000  C
  H47      1.0000 0.82170  0.84280  0.97750  Biso   1.000  H
  H48      1.0000 0.84520  0.82920  0.01210  Biso   1.000  H
  H49      1.0000 0.79430  0.85870  0.01040  Biso   1.000  H
  H50      1.0000 0.81910  0.84430  0.02250  Biso   1.000  H
  H51      1.0000 0.79560  0.85790  0.98790  Biso   1.000  H
  H52      1.0000 0.84650  0.82850  0.98960  Biso   1.000  H
  O17      1.0000 0.73794  0.54920  0.20720  Biso   1.000  O
  O18      1.0000 0.55437  0.73376  0.20993  Biso   1.000  O
  O19      1.0000 0.67956  0.55077  0.24777  Biso   1.000  O
  O20      1.0000 0.55539  0.68329  0.25153  Biso   1.000  O
  C61      1.0000 0.73440  0.73100  0.02997  Biso   1.000  C
  C62      1.0000 0.71660  0.70970  0.06250  Biso   1.000  C
  C63      1.0000 0.66450  0.71420  0.07261  Biso   1.000  C
  H53      1.0000 0.64060  0.72830  0.05860  Biso   1.000  H
  C64      1.0000 0.75030  0.68800  0.08395  Biso   1.000  C
  H54      1.0000 0.78480  0.68480  0.07800  Biso   1.000  H
  C65      1.0000 0.64910  0.69770  0.10335  Biso   1.000  C
  H55      1.0000 0.61490  0.70150  0.10990  Biso   1.000  H
  C66      1.0000 0.73370  0.67110  0.11389  Biso   1.000  C
  H56      1.0000 0.75700  0.65590  0.12770  Biso   1.000  H
  C67      1.0000 0.68240  0.67610  0.12416  Biso   1.000  C
  C68      1.0000 0.66560  0.65947  0.15802  Biso   1.000  C
  C69      1.0000 0.62630  0.68360  0.17531  Biso   1.000  C
  H57      1.0000 0.61060  0.70950  0.16550  Biso   1.000  H
  C70      1.0000 0.68920  0.62200  0.17342  Biso   1.000  C
  H58      1.0000 0.71630  0.60670  0.16290  Biso   1.000  H
  C71      1.0000 0.61080  0.66970  0.20623  Biso   1.000  C
  C72      1.0000 0.67270  0.60680  0.20491  Biso   1.000  C
  C73      1.0000 0.63350  0.63080  0.22096  Biso   1.000  C
  H59      1.0000 0.62240  0.62090  0.24170  Biso   1.000  H
  C74      1.0000 0.69820  0.56560  0.22106  Biso   1.000  C
  C75      1.0000 0.57000  0.69800  0.22397  Biso   1.000  C
  H60      1.0000 0.67830  0.65720  0.97750  Biso   1.000  H
  H61      1.0000 0.65480  0.67080  0.01210  Biso   1.000  H
  H62      1.0000 0.70570  0.64130  0.01040  Biso   1.000  H
  H63      1.0000 0.68090  0.65570  0.02250  Biso   1.000  H
  H64      1.0000 0.70440  0.64210  0.98790  Biso   1.000  H
  H65      1.0000 0.65350  0.67150  0.98960  Biso   1.000  H
  O21      1.0000 0.73794  0.04920  0.70720  Biso   1.000  O
  O22      1.0000 0.55437  0.23376  0.70993  Biso   1.000  O
  O23      1.0000 0.67956  0.05077  0.74777  Biso   1.000  O
  O24      1.0000 0.55539  0.18329  0.75153  Biso   1.000  O
  C76      1.0000 0.73440  0.23100  0.52997  Biso   1.000  C
  C77      1.0000 0.71660  0.20970  0.56250  Biso   1.000  C
  C78      1.0000 0.66450  0.21420  0.57261  Biso   1.000  C
  H66      1.0000 0.64060  0.22830  0.55860  Biso   1.000  H
  C79      1.0000 0.75030  0.18800  0.58395  Biso   1.000  C
  H67      1.0000 0.78480  0.18480  0.57800  Biso   1.000  H
  C80      1.0000 0.64910  0.19770  0.60335  Biso   1.000  C
  H68      1.0000 0.61490  0.20150  0.60990  Biso   1.000  H
  C81      1.0000 0.73370  0.17110  0.61389  Biso   1.000  C
  H69      1.0000 0.75700  0.15590  0.62770  Biso   1.000  H
  C82      1.0000 0.68240  0.17610  0.62416  Biso   1.000  C
  C83      1.0000 0.66560  0.15947  0.65802  Biso   1.000  C
  C84      1.0000 0.62630  0.18360  0.67531  Biso   1.000  C
  H70      1.0000 0.61060  0.20950  0.66550  Biso   1.000  H
  C85      1.0000 0.68920  0.12200  0.67342  Biso   1.000  C
  H71      1.0000 0.71630  0.10670  0.66290  Biso   1.000  H
  C86      1.0000 0.61080  0.16970  0.70623  Biso   1.000  C
  C87      1.0000 0.67270  0.10680  0.70491  Biso   1.000  C
  C88      1.0000 0.63350  0.13080  0.72096  Biso   1.000  C
  H72      1.0000 0.62240  0.12090  0.74170  Biso   1.000  H
  C89      1.0000 0.69820  0.06560  0.72106  Biso   1.000  C
  C90      1.0000 0.57000  0.19800  0.72397  Biso   1.000  C
  H73      1.0000 0.67830  0.15720  0.47750  Biso   1.000  H
  H74      1.0000 0.65480  0.17080  0.51210  Biso   1.000  H
  H75      1.0000 0.70570  0.14130  0.51040  Biso   1.000  H
  H76      1.0000 0.68090  0.15570  0.52250  Biso   1.000  H
  H77      1.0000 0.70440  0.14210  0.48790  Biso   1.000  H
  H78      1.0000 0.65350  0.17150  0.48960  Biso   1.000  H
  O25      1.0000 0.23794  0.54920  0.70720  Biso   1.000  O
  O26      1.0000 0.05437  0.73376  0.70993  Biso   1.000  O
  O27      1.0000 0.17956  0.55077  0.74777  Biso   1.000  O
  O28      1.0000 0.05539  0.68329  0.75153  Biso   1.000  O
  C91      1.0000 0.23440  0.73100  0.52997  Biso   1.000  C
  C92      1.0000 0.21660  0.70970  0.56250  Biso   1.000  C
  C93      1.0000 0.16450  0.71420  0.57261  Biso   1.000  C
  H79      1.0000 0.14060  0.72830  0.55860  Biso   1.000  H
  C94      1.0000 0.25030  0.68800  0.58395  Biso   1.000  C
  H80      1.0000 0.28480  0.68480  0.57800  Biso   1.000  H
  C95      1.0000 0.14910  0.69770  0.60335  Biso   1.000  C
  H81      1.0000 0.11490  0.70150  0.60990  Biso   1.000  H
  C96      1.0000 0.23370  0.67110  0.61389  Biso   1.000  C
  H82      1.0000 0.25700  0.65590  0.62770  Biso   1.000  H
  C97      1.0000 0.18240  0.67610  0.62416  Biso   1.000  C
  C98      1.0000 0.16560  0.65947  0.65802  Biso   1.000  C
  C99      1.0000 0.12630  0.68360  0.67531  Biso   1.000  C
  H83      1.0000 0.11060  0.70950  0.66550  Biso   1.000  H
  C100     1.0000 0.18920  0.62200  0.67342  Biso   1.000  C
  H84      1.0000 0.21630  0.60670  0.66290  Biso   1.000  H
  C101     1.0000 0.11080  0.66970  0.70623  Biso   1.000  C
  C102     1.0000 0.17270  0.60680  0.70491  Biso   1.000  C
  C103     1.0000 0.13350  0.63080  0.72096  Biso   1.000  C
  H85      1.0000 0.12240  0.62090  0.74170  Biso   1.000  H
  C104     1.0000 0.19820  0.56560  0.72106  Biso   1.000  C
  C105     1.0000 0.07000  0.69800  0.72397  Biso   1.000  C
  H86      1.0000 0.17830  0.65720  0.47750  Biso   1.000  H
  H87      1.0000 0.15480  0.67080  0.51210  Biso   1.000  H
  H88      1.0000 0.20570  0.64130  0.51040  Biso   1.000  H
  H89      1.0000 0.18090  0.65570  0.52250  Biso   1.000  H
  H90      1.0000 0.20440  0.64210  0.48790  Biso   1.000  H
  H91      1.0000 0.15350  0.67150  0.48960  Biso   1.000  H
  O29      1.0000 0.23794  0.04920  0.20720  Biso   1.000  O
  O30      1.0000 0.05437  0.23376  0.20993  Biso   1.000  O
  O31      1.0000 0.17956  0.05077  0.24777  Biso   1.000  O
  O32      1.0000 0.05539  0.18329  0.25153  Biso   1.000  O
  C106     1.0000 0.23440  0.23100  0.02997  Biso   1.000  C
  C107     1.0000 0.21660  0.20970  0.06250  Biso   1.000  C
  C108     1.0000 0.16450  0.21420  0.07261  Biso   1.000  C
  H92      1.0000 0.14060  0.22830  0.05860  Biso   1.000  H
  C109     1.0000 0.25030  0.18800  0.08395  Biso   1.000  C
  H93      1.0000 0.28480  0.18480  0.07800  Biso   1.000  H
  C110     1.0000 0.14910  0.19770  0.10335  Biso   1.000  C
  H94      1.0000 0.11490  0.20150  0.10990  Biso   1.000  H
  C111     1.0000 0.23370  0.17110  0.11389  Biso   1.000  C
  H95      1.0000 0.25700  0.15590  0.12770  Biso   1.000  H
  C112     1.0000 0.18240  0.17610  0.12416  Biso   1.000  C
  C113     1.0000 0.16560  0.15947  0.15802  Biso   1.000  C
  C114     1.0000 0.12630  0.18360  0.17531  Biso   1.000  C
  H96      1.0000 0.11060  0.20950  0.16550  Biso   1.000  H
  C115     1.0000 0.18920  0.12200  0.17342  Biso   1.000  C
  H97      1.0000 0.21630  0.10670  0.16290  Biso   1.000  H
  C116     1.0000 0.11080  0.16970  0.20623  Biso   1.000  C
  C117     1.0000 0.17270  0.10680  0.20491  Biso   1.000  C
  C118     1.0000 0.13350  0.13080  0.22096  Biso   1.000  C
  H98      1.0000 0.12240  0.12090  0.24170  Biso   1.000  H
  C119     1.0000 0.19820  0.06560  0.22106  Biso   1.000  C
  C120     1.0000 0.07000  0.19800  0.22397  Biso   1.000  C
  H99      1.0000 0.17830  0.15720  0.97750  Biso   1.000  H
  H100     1.0000 0.15480  0.17080  0.01210  Biso   1.000  H
  H101     1.0000 0.20570  0.14130  0.01040  Biso   1.000  H
  H102     1.0000 0.18090  0.15570  0.02250  Biso   1.000  H
  H103     1.0000 0.20440  0.14210  0.98790  Biso   1.000  H
  H104     1.0000 0.15350  0.17150  0.98960  Biso   1.000  H
  O33      1.0000 0.73794  0.45080  0.79280  Biso   1.000  O
  O34      1.0000 0.55437  0.26624  0.79007  Biso   1.000  O
  O35      1.0000 0.67956  0.44923  0.75223  Biso   1.000  O
  O36      1.0000 0.55539  0.31671  0.74847  Biso   1.000  O
  C121     1.0000 0.73440  0.26900  0.97003  Biso   1.000  C
  C122     1.0000 0.71660  0.29030  0.93750  Biso   1.000  C
  C123     1.0000 0.66450  0.28580  0.92739  Biso   1.000  C
  H105     1.0000 0.64060  0.27170  0.94140  Biso   1.000  H
  C124     1.0000 0.75030  0.31200  0.91605  Biso   1.000  C
  H106     1.0000 0.78480  0.31520  0.92200  Biso   1.000  H
  C125     1.0000 0.64910  0.30230  0.89665  Biso   1.000  C
  H107     1.0000 0.61490  0.29850  0.89010  Biso   1.000  H
  C126     1.0000 0.73370  0.32890  0.88611  Biso   1.000  C
  H108     1.0000 0.75700  0.34410  0.87230  Biso   1.000  H
  C127     1.0000 0.68240  0.32390  0.87584  Biso   1.000  C
  C128     1.0000 0.66560  0.34053  0.84198  Biso   1.000  C
  C129     1.0000 0.62630  0.31640  0.82469  Biso   1.000  C
  H109     1.0000 0.61060  0.29050  0.83450  Biso   1.000  H
  C130     1.0000 0.68920  0.37800  0.82658  Biso   1.000  C
  H110     1.0000 0.71630  0.39330  0.83710  Biso   1.000  H
  C131     1.0000 0.61080  0.33030  0.79377  Biso   1.000  C
  C132     1.0000 0.67270  0.39320  0.79509  Biso   1.000  C
  C133     1.0000 0.63350  0.36920  0.77904  Biso   1.000  C
  H111     1.0000 0.62240  0.37910  0.75830  Biso   1.000  H
  C134     1.0000 0.69820  0.43440  0.77894  Biso   1.000  C
  C135     1.0000 0.57000  0.30200  0.77603  Biso   1.000  C
  H112     1.0000 0.67830  0.34280  0.02250  Biso   1.000  H
  H113     1.0000 0.65480  0.32920  0.98790  Biso   1.000  H
  H114     1.0000 0.70570  0.35870  0.98960  Biso   1.000  H
  H115     1.0000 0.68090  0.34430  0.97750  Biso   1.000  H
  H116     1.0000 0.70440  0.35790  0.01210  Biso   1.000  H
  H117     1.0000 0.65350  0.32850  0.01040  Biso   1.000  H
  O37      1.0000 0.73794  0.95080  0.29280  Biso   1.000  O
  O38      1.0000 0.55437  0.76624  0.29007  Biso   1.000  O
  O39      1.0000 0.67956  0.94923  0.25223  Biso   1.000  O
  O40      1.0000 0.55539  0.81671  0.24847  Biso   1.000  O
  C136     1.0000 0.73440  0.76900  0.47003  Biso   1.000  C
  C137     1.0000 0.71660  0.79030  0.43750  Biso   1.000  C
  C138     1.0000 0.66450  0.78580  0.42739  Biso   1.000  C
  H118     1.0000 0.64060  0.77170  0.44140  Biso   1.000  H
  C139     1.0000 0.75030  0.81200  0.41605  Biso   1.000  C
  H119     1.0000 0.78480  0.81520  0.42200  Biso   1.000  H
  C140     1.0000 0.64910  0.80230  0.39665  Biso   1.000  C
  H120     1.0000 0.61490  0.79850  0.39010  Biso   1.000  H
  C141     1.0000 0.73370  0.82890  0.38611  Biso   1.000  C
  H121     1.0000 0.75700  0.84410  0.37230  Biso   1.000  H
  C142     1.0000 0.68240  0.82390  0.37584  Biso   1.000  C
  C143     1.0000 0.66560  0.84053  0.34198  Biso   1.000  C
  C144     1.0000 0.62630  0.81640  0.32469  Biso   1.000  C
  H122     1.0000 0.61060  0.79050  0.33450  Biso   1.000  H
  C145     1.0000 0.68920  0.87800  0.32658  Biso   1.000  C
  H123     1.0000 0.71630  0.89330  0.33710  Biso   1.000  H
  C146     1.0000 0.61080  0.83030  0.29377  Biso   1.000  C
  C147     1.0000 0.67270  0.89320  0.29509  Biso   1.000  C
  C148     1.0000 0.63350  0.86920  0.27904  Biso   1.000  C
  H124     1.0000 0.62240  0.87910  0.25830  Biso   1.000  H
  C149     1.0000 0.69820  0.93440  0.27894  Biso   1.000  C
  C150     1.0000 0.57000  0.80200  0.27603  Biso   1.000  C
  H125     1.0000 0.67830  0.84280  0.52250  Biso   1.000  H
  H126     1.0000 0.65480  0.82920  0.48790  Biso   1.000  H
  H127     1.0000 0.70570  0.85870  0.48960  Biso   1.000  H
  H128     1.0000 0.68090  0.84430  0.47750  Biso   1.000  H
  H129     1.0000 0.70440  0.85790  0.51210  Biso   1.000  H
  H130     1.0000 0.65350  0.82850  0.51040  Biso   1.000  H
  O41      1.0000 0.23794  0.45080  0.29280  Biso   1.000  O
  O42      1.0000 0.05437  0.26624  0.29007  Biso   1.000  O
  O43      1.0000 0.17956  0.44923  0.25223  Biso   1.000  O
  O44      1.0000 0.05539  0.31671  0.24847  Biso   1.000  O
  C151     1.0000 0.23440  0.26900  0.47003  Biso   1.000  C
  C152     1.0000 0.21660  0.29030  0.43750  Biso   1.000  C
  C153     1.0000 0.16450  0.28580  0.42739  Biso   1.000  C
  H131     1.0000 0.14060  0.27170  0.44140  Biso   1.000  H
  C154     1.0000 0.25030  0.31200  0.41605  Biso   1.000  C
  H132     1.0000 0.28480  0.31520  0.42200  Biso   1.000  H
  C155     1.0000 0.14910  0.30230  0.39665  Biso   1.000  C
  H133     1.0000 0.11490  0.29850  0.39010  Biso   1.000  H
  C156     1.0000 0.23370  0.32890  0.38611  Biso   1.000  C
  H134     1.0000 0.25700  0.34410  0.37230  Biso   1.000  H
  C157     1.0000 0.18240  0.32390  0.37584  Biso   1.000  C
  C158     1.0000 0.16560  0.34053  0.34198  Biso   1.000  C
  C159     1.0000 0.12630  0.31640  0.32469  Biso   1.000  C
  H135     1.0000 0.11060  0.29050  0.33450  Biso   1.000  H
  C160     1.0000 0.18920  0.37800  0.32658  Biso   1.000  C
  H136     1.0000 0.21630  0.39330  0.33710  Biso   1.000  H
  C161     1.0000 0.11080  0.33030  0.29377  Biso   1.000  C
  C162     1.0000 0.17270  0.39320  0.29509  Biso   1.000  C
  C163     1.0000 0.13350  0.36920  0.27904  Biso   1.000  C
  H137     1.0000 0.12240  0.37910  0.25830  Biso   1.000  H
  C164     1.0000 0.19820  0.43440  0.27894  Biso   1.000  C
  C165     1.0000 0.07000  0.30200  0.27603  Biso   1.000  C
  H138     1.0000 0.17830  0.34280  0.52250  Biso   1.000  H
  H139     1.0000 0.15480  0.32920  0.48790  Biso   1.000  H
  H140     1.0000 0.20570  0.35870  0.48960  Biso   1.000  H
  H141     1.0000 0.18090  0.34430  0.47750  Biso   1.000  H
  H142     1.0000 0.20440  0.35790  0.51210  Biso   1.000  H
  H143     1.0000 0.15350  0.32850  0.51040  Biso   1.000  H
  O45      1.0000 0.23794  0.95080  0.79280  Biso   1.000  O
  O46      1.0000 0.05437  0.76624  0.79007  Biso   1.000  O
  O47      1.0000 0.17956  0.94923  0.75223  Biso   1.000  O
  O48      1.0000 0.05539  0.81671  0.74847  Biso   1.000  O
  C166     1.0000 0.23440  0.76900  0.97003  Biso   1.000  C
  C167     1.0000 0.21660  0.79030  0.93750  Biso   1.000  C
  C168     1.0000 0.16450  0.78580  0.92739  Biso   1.000  C
  H144     1.0000 0.14060  0.77170  0.94140  Biso   1.000  H
  C169     1.0000 0.25030  0.81200  0.91605  Biso   1.000  C
  H145     1.0000 0.28480  0.81520  0.92200  Biso   1.000  H
  C170     1.0000 0.14910  0.80230  0.89665  Biso   1.000  C
  H146     1.0000 0.11490  0.79850  0.89010  Biso   1.000  H
  C171     1.0000 0.23370  0.82890  0.88611  Biso   1.000  C
  H147     1.0000 0.25700  0.84410  0.87230  Biso   1.000  H
  C172     1.0000 0.18240  0.82390  0.87584  Biso   1.000  C
  C173     1.0000 0.16560  0.84053  0.84198  Biso   1.000  C
  C174     1.0000 0.12630  0.81640  0.82469  Biso   1.000  C
  H148     1.0000 0.11060  0.79050  0.83450  Biso   1.000  H
  C175     1.0000 0.18920  0.87800  0.82658  Biso   1.000  C
  H149     1.0000 0.21630  0.89330  0.83710  Biso   1.000  H
  C176     1.0000 0.11080  0.83030  0.79377  Biso   1.000  C
  C177     1.0000 0.17270  0.89320  0.79509  Biso   1.000  C
  C178     1.0000 0.13350  0.86920  0.77904  Biso   1.000  C
  H150     1.0000 0.12240  0.87910  0.75830  Biso   1.000  H
  C179     1.0000 0.19820  0.93440  0.77894  Biso   1.000  C
  C180     1.0000 0.07000  0.80200  0.77603  Biso   1.000  C
  H151     1.0000 0.17830  0.84280  0.02250  Biso   1.000  H
  H152     1.0000 0.15480  0.82920  0.98790  Biso   1.000  H
  H153     1.0000 0.20570  0.85870  0.98960  Biso   1.000  H
  H154     1.0000 0.18090  0.84430  0.97750  Biso   1.000  H
  H155     1.0000 0.20440  0.85790  0.01210  Biso   1.000  H
  H156     1.0000 0.15350  0.82850  0.01040  Biso   1.000  H
  O49      1.0000 0.26206  0.54920  0.79280  Biso   1.000  O
  O50      1.0000 0.44563  0.73376  0.79007  Biso   1.000  O
  O51      1.0000 0.32044  0.55077  0.75223  Biso   1.000  O
  O52      1.0000 0.44461  0.68329  0.74847  Biso   1.000  O
  C181     1.0000 0.26560  0.73100  0.97003  Biso   1.000  C
  C182     1.0000 0.28340  0.70970  0.93750  Biso   1.000  C
  C183     1.0000 0.33550  0.71420  0.92739  Biso   1.000  C
  H157     1.0000 0.35940  0.72830  0.94140  Biso   1.000  H
  C184     1.0000 0.24970  0.68800  0.91605  Biso   1.000  C
  H158     1.0000 0.21520  0.68480  0.92200  Biso   1.000  H
  C185     1.0000 0.35090  0.69770  0.89665  Biso   1.000  C
  H159     1.0000 0.38510  0.70150  0.89010  Biso   1.000  H
  C186     1.0000 0.26630  0.67110  0.88611  Biso   1.000  C
  H160     1.0000 0.24300  0.65590  0.87230  Biso   1.000  H
  C187     1.0000 0.31760  0.67610  0.87584  Biso   1.000  C
  C188     1.0000 0.33440  0.65947  0.84198  Biso   1.000  C
  C189     1.0000 0.37370  0.68360  0.82469  Biso   1.000  C
  H161     1.0000 0.38940  0.70950  0.83450  Biso   1.000  H
  C190     1.0000 0.31080  0.62200  0.82658  Biso   1.000  C
  H162     1.0000 0.28370  0.60670  0.83710  Biso   1.000  H
  C191     1.0000 0.38920  0.66970  0.79377  Biso   1.000  C
  C192     1.0000 0.32730  0.60680  0.79509  Biso   1.000  C
  C193     1.0000 0.36650  0.63080  0.77904  Biso   1.000  C
  H163     1.0000 0.37760  0.62090  0.75830  Biso   1.000  H
  C194     1.0000 0.30180  0.56560  0.77894  Biso   1.000  C
  C195     1.0000 0.43000  0.69800  0.77603  Biso   1.000  C
  H164     1.0000 0.32170  0.65720  0.02250  Biso   1.000  H
  H165     1.0000 0.34520  0.67080  0.98790  Biso   1.000  H
  H166     1.0000 0.29430  0.64130  0.98960  Biso   1.000  H
  H167     1.0000 0.31910  0.65570  0.97750  Biso   1.000  H
  H168     1.0000 0.29560  0.64210  0.01210  Biso   1.000  H
  H169     1.0000 0.34650  0.67150  0.01040  Biso   1.000  H
  O53      1.0000 0.26206  0.04920  0.29280  Biso   1.000  O
  O54      1.0000 0.44563  0.23376  0.29007  Biso   1.000  O
  O55      1.0000 0.32044  0.05077  0.25223  Biso   1.000  O
  O56      1.0000 0.44461  0.18329  0.24847  Biso   1.000  O
  C196     1.0000 0.26560  0.23100  0.47003  Biso   1.000  C
  C197     1.0000 0.28340  0.20970  0.43750  Biso   1.000  C
  C198     1.0000 0.33550  0.21420  0.42739  Biso   1.000  C
  H170     1.0000 0.35940  0.22830  0.44140  Biso   1.000  H
  C199     1.0000 0.24970  0.18800  0.41605  Biso   1.000  C
  H171     1.0000 0.21520  0.18480  0.42200  Biso   1.000  H
  C200     1.0000 0.35090  0.19770  0.39665  Biso   1.000  C
  H172     1.0000 0.38510  0.20150  0.39010  Biso   1.000  H
  C201     1.0000 0.26630  0.17110  0.38611  Biso   1.000  C
  H173     1.0000 0.24300  0.15590  0.37230  Biso   1.000  H
  C202     1.0000 0.31760  0.17610  0.37584  Biso   1.000  C
  C203     1.0000 0.33440  0.15947  0.34198  Biso   1.000  C
  C204     1.0000 0.37370  0.18360  0.32469  Biso   1.000  C
  H174     1.0000 0.38940  0.20950  0.33450  Biso   1.000  H
  C205     1.0000 0.31080  0.12200  0.32658  Biso   1.000  C
  H175     1.0000 0.28370  0.10670  0.33710  Biso   1.000  H
  C206     1.0000 0.38920  0.16970  0.29377  Biso   1.000  C
  C207     1.0000 0.32730  0.10680  0.29509  Biso   1.000  C
  C208     1.0000 0.36650  0.13080  0.27904  Biso   1.000  C
  H176     1.0000 0.37760  0.12090  0.25830  Biso   1.000  H
  C209     1.0000 0.30180  0.06560  0.27894  Biso   1.000  C
  C210     1.0000 0.43000  0.19800  0.27603  Biso   1.000  C
  H177     1.0000 0.32170  0.15720  0.52250  Biso   1.000  H
  H178     1.0000 0.34520  0.17080  0.48790  Biso   1.000  H
  H179     1.0000 0.29430  0.14130  0.48960  Biso   1.000  H
  H180     1.0000 0.31910  0.15570  0.47750  Biso   1.000  H
  H181     1.0000 0.29560  0.14210  0.51210  Biso   1.000  H
  H182     1.0000 0.34650  0.17150  0.51040  Biso   1.000  H
  O57      1.0000 0.76206  0.54920  0.29280  Biso   1.000  O
  O58      1.0000 0.94563  0.73376  0.29007  Biso   1.000  O
  O59      1.0000 0.82044  0.55077  0.25223  Biso   1.000  O
  O60      1.0000 0.94461  0.68329  0.24847  Biso   1.000  O
  C211     1.0000 0.76560  0.73100  0.47003  Biso   1.000  C
  C212     1.0000 0.78340  0.70970  0.43750  Biso   1.000  C
  C213     1.0000 0.83550  0.71420  0.42739  Biso   1.000  C
  H183     1.0000 0.85940  0.72830  0.44140  Biso   1.000  H
  C214     1.0000 0.74970  0.68800  0.41605  Biso   1.000  C
  H184     1.0000 0.71520  0.68480  0.42200  Biso   1.000  H
  C215     1.0000 0.85090  0.69770  0.39665  Biso   1.000  C
  H185     1.0000 0.88510  0.70150  0.39010  Biso   1.000  H
  C216     1.0000 0.76630  0.67110  0.38611  Biso   1.000  C
  H186     1.0000 0.74300  0.65590  0.37230  Biso   1.000  H
  C217     1.0000 0.81760  0.67610  0.37584  Biso   1.000  C
  C218     1.0000 0.83440  0.65947  0.34198  Biso   1.000  C
  C219     1.0000 0.87370  0.68360  0.32469  Biso   1.000  C
  H187     1.0000 0.88940  0.70950  0.33450  Biso   1.000  H
  C220     1.0000 0.81080  0.62200  0.32658  Biso   1.000  C
  H188     1.0000 0.78370  0.60670  0.33710  Biso   1.000  H
  C221     1.0000 0.88920  0.66970  0.29377  Biso   1.000  C
  C222     1.0000 0.82730  0.60680  0.29509  Biso   1.000  C
  C223     1.0000 0.86650  0.63080  0.27904  Biso   1.000  C
  H189     1.0000 0.87760  0.62090  0.25830  Biso   1.000  H
  C224     1.0000 0.80180  0.56560  0.27894  Biso   1.000  C
  C225     1.0000 0.93000  0.69800  0.27603  Biso   1.000  C
  H190     1.0000 0.82170  0.65720  0.52250  Biso   1.000  H
  H191     1.0000 0.84520  0.67080  0.48790  Biso   1.000  H
  H192     1.0000 0.79430  0.64130  0.48960  Biso   1.000  H
  H193     1.0000 0.81910  0.65570  0.47750  Biso   1.000  H
  H194     1.0000 0.79560  0.64210  0.51210  Biso   1.000  H
  H195     1.0000 0.84650  0.67150  0.51040  Biso   1.000  H
  O61      1.0000 0.76206  0.04920  0.79280  Biso   1.000  O
  O62      1.0000 0.94563  0.23376  0.79007  Biso   1.000  O
  O63      1.0000 0.82044  0.05077  0.75223  Biso   1.000  O
  O64      1.0000 0.94461  0.18329  0.74847  Biso   1.000  O
  C226     1.0000 0.76560  0.23100  0.97003  Biso   1.000  C
  C227     1.0000 0.78340  0.20970  0.93750  Biso   1.000  C
  C228     1.0000 0.83550  0.21420  0.92739  Biso   1.000  C
  H196     1.0000 0.85940  0.22830  0.94140  Biso   1.000  H
  C229     1.0000 0.74970  0.18800  0.91605  Biso   1.000  C
  H197     1.0000 0.71520  0.18480  0.92200  Biso   1.000  H
  C230     1.0000 0.85090  0.19770  0.89665  Biso   1.000  C
  H198     1.0000 0.88510  0.20150  0.89010  Biso   1.000  H
  C231     1.0000 0.76630  0.17110  0.88611  Biso   1.000  C
  H199     1.0000 0.74300  0.15590  0.87230  Biso   1.000  H
  C232     1.0000 0.81760  0.17610  0.87584  Biso   1.000  C
  C233     1.0000 0.83440  0.15947  0.84198  Biso   1.000  C
  C234     1.0000 0.87370  0.18360  0.82469  Biso   1.000  C
  H200     1.0000 0.88940  0.20950  0.83450  Biso   1.000  H
  C235     1.0000 0.81080  0.12200  0.82658  Biso   1.000  C
  H201     1.0000 0.78370  0.10670  0.83710  Biso   1.000  H
  C236     1.0000 0.88920  0.16970  0.79377  Biso   1.000  C
  C237     1.0000 0.82730  0.10680  0.79509  Biso   1.000  C
  C238     1.0000 0.86650  0.13080  0.77904  Biso   1.000  C
  H202     1.0000 0.87760  0.12090  0.75830  Biso   1.000  H
  C239     1.0000 0.80180  0.06560  0.77894  Biso   1.000  C
  C240     1.0000 0.93000  0.19800  0.77603  Biso   1.000  C
  H203     1.0000 0.82170  0.15720  0.02250  Biso   1.000  H
  H204     1.0000 0.84520  0.17080  0.98790  Biso   1.000  H
  H205     1.0000 0.79430  0.14130  0.98960  Biso   1.000  H
  H206     1.0000 0.81910  0.15570  0.97750  Biso   1.000  H
  H207     1.0000 0.79560  0.14210  0.01210  Biso   1.000  H
  H208     1.0000 0.84650  0.17150  0.01040  Biso   1.000  H
  O65      1.0000 0.73794  0.54920  0.79280  Biso   1.000  O
  O66      1.0000 0.55437  0.73376  0.79007  Biso   1.000  O
  O67      1.0000 0.67956  0.55077  0.75223  Biso   1.000  O
  O68      1.0000 0.55539  0.68329  0.74847  Biso   1.000  O
  C241     1.0000 0.73440  0.73100  0.97003  Biso   1.000  C
  C242     1.0000 0.71660  0.70970  0.93750  Biso   1.000  C
  C243     1.0000 0.66450  0.71420  0.92739  Biso   1.000  C
  H209     1.0000 0.64060  0.72830  0.94140  Biso   1.000  H
  C244     1.0000 0.75030  0.68800  0.91605  Biso   1.000  C
  H210     1.0000 0.78480  0.68480  0.92200  Biso   1.000  H
  C245     1.0000 0.64910  0.69770  0.89665  Biso   1.000  C
  H211     1.0000 0.61490  0.70150  0.89010  Biso   1.000  H
  C246     1.0000 0.73370  0.67110  0.88611  Biso   1.000  C
  H212     1.0000 0.75700  0.65590  0.87230  Biso   1.000  H
  C247     1.0000 0.68240  0.67610  0.87584  Biso   1.000  C
  C248     1.0000 0.66560  0.65947  0.84198  Biso   1.000  C
  C249     1.0000 0.62630  0.68360  0.82469  Biso   1.000  C
  H213     1.0000 0.61060  0.70950  0.83450  Biso   1.000  H
  C250     1.0000 0.68920  0.62200  0.82658  Biso   1.000  C
  H214     1.0000 0.71630  0.60670  0.83710  Biso   1.000  H
  C251     1.0000 0.61080  0.66970  0.79377  Biso   1.000  C
  C252     1.0000 0.67270  0.60680  0.79509  Biso   1.000  C
  C253     1.0000 0.63350  0.63080  0.77904  Biso   1.000  C
  H215     1.0000 0.62240  0.62090  0.75830  Biso   1.000  H
  C254     1.0000 0.69820  0.56560  0.77894  Biso   1.000  C
  C255     1.0000 0.57000  0.69800  0.77603  Biso   1.000  C
  H216     1.0000 0.67830  0.65720  0.02250  Biso   1.000  H
  H217     1.0000 0.65480  0.67080  0.98790  Biso   1.000  H
  H218     1.0000 0.70570  0.64130  0.98960  Biso   1.000  H
  H219     1.0000 0.68090  0.65570  0.97750  Biso   1.000  H
  H220     1.0000 0.70440  0.64210  0.01210  Biso   1.000  H
  H221     1.0000 0.65350  0.67150  0.01040  Biso   1.000  H
  O69      1.0000 0.73794  0.04920  0.29280  Biso   1.000  O
  O70      1.0000 0.55437  0.23376  0.29007  Biso   1.000  O
  O71      1.0000 0.67956  0.05077  0.25223  Biso   1.000  O
  O72      1.0000 0.55539  0.18329  0.24847  Biso   1.000  O
  C256     1.0000 0.73440  0.23100  0.47003  Biso   1.000  C
  C257     1.0000 0.71660  0.20970  0.43750  Biso   1.000  C
  C258     1.0000 0.66450  0.21420  0.42739  Biso   1.000  C
  H222     1.0000 0.64060  0.22830  0.44140  Biso   1.000  H
  C259     1.0000 0.75030  0.18800  0.41605  Biso   1.000  C
  H223     1.0000 0.78480  0.18480  0.42200  Biso   1.000  H
  C260     1.0000 0.64910  0.19770  0.39665  Biso   1.000  C
  H224     1.0000 0.61490  0.20150  0.39010  Biso   1.000  H
  C261     1.0000 0.73370  0.17110  0.38611  Biso   1.000  C
  H225     1.0000 0.75700  0.15590  0.37230  Biso   1.000  H
  C262     1.0000 0.68240  0.17610  0.37584  Biso   1.000  C
  C263     1.0000 0.66560  0.15947  0.34198  Biso   1.000  C
  C264     1.0000 0.62630  0.18360  0.32469  Biso   1.000  C
  H226     1.0000 0.61060  0.20950  0.33450  Biso   1.000  H
  C265     1.0000 0.68920  0.12200  0.32658  Biso   1.000  C
  H227     1.0000 0.71630  0.10670  0.33710  Biso   1.000  H
  C266     1.0000 0.61080  0.16970  0.29377  Biso   1.000  C
  C267     1.0000 0.67270  0.10680  0.29509  Biso   1.000  C
  C268     1.0000 0.63350  0.13080  0.27904  Biso   1.000  C
  H228     1.0000 0.62240  0.12090  0.25830  Biso   1.000  H
  C269     1.0000 0.69820  0.06560  0.27894  Biso   1.000  C
  C270     1.0000 0.57000  0.19800  0.27603  Biso   1.000  C
  H229     1.0000 0.67830  0.15720  0.52250  Biso   1.000  H
  H230     1.0000 0.65480  0.17080  0.48790  Biso   1.000  H
  H231     1.0000 0.70570  0.14130  0.48960  Biso   1.000  H
  H232     1.0000 0.68090  0.15570  0.47750  Biso   1.000  H
  H233     1.0000 0.70440  0.14210  0.51210  Biso   1.000  H
  H234     1.0000 0.65350  0.17150  0.51040  Biso   1.000  H
  O73      1.0000 0.23794  0.54920  0.29280  Biso   1.000  O
  O74      1.0000 0.05437  0.73376  0.29007  Biso   1.000  O
  O75      1.0000 0.17956  0.55077  0.25223  Biso   1.000  O
  O76      1.0000 0.05539  0.68329  0.24847  Biso   1.000  O
  C271     1.0000 0.23440  0.73100  0.47003  Biso   1.000  C
  C272     1.0000 0.21660  0.70970  0.43750  Biso   1.000  C
  C273     1.0000 0.16450  0.71420  0.42739  Biso   1.000  C
  H235     1.0000 0.14060  0.72830  0.44140  Biso   1.000  H
  C274     1.0000 0.25030  0.68800  0.41605  Biso   1.000  C
  H236     1.0000 0.28480  0.68480  0.42200  Biso   1.000  H
  C275     1.0000 0.14910  0.69770  0.39665  Biso   1.000  C
  H237     1.0000 0.11490  0.70150  0.39010  Biso   1.000  H
  C276     1.0000 0.23370  0.67110  0.38611  Biso   1.000  C
  H238     1.0000 0.25700  0.65590  0.37230  Biso   1.000  H
  C277     1.0000 0.18240  0.67610  0.37584  Biso   1.000  C
  C278     1.0000 0.16560  0.65947  0.34198  Biso   1.000  C
  C279     1.0000 0.12630  0.68360  0.32469  Biso   1.000  C
  H239     1.0000 0.11060  0.70950  0.33450  Biso   1.000  H
  C280     1.0000 0.18920  0.62200  0.32658  Biso   1.000  C
  H240     1.0000 0.21630  0.60670  0.33710  Biso   1.000  H
  C281     1.0000 0.11080  0.66970  0.29377  Biso   1.000  C
  C282     1.0000 0.17270  0.60680  0.29509  Biso   1.000  C
  C283     1.0000 0.13350  0.63080  0.27904  Biso   1.000  C
  H241     1.0000 0.12240  0.62090  0.25830  Biso   1.000  H
  C284     1.0000 0.19820  0.56560  0.27894  Biso   1.000  C
  C285     1.0000 0.07000  0.69800  0.27603  Biso   1.000  C
  H242     1.0000 0.17830  0.65720  0.52250  Biso   1.000  H
  H243     1.0000 0.15480  0.67080  0.48790  Biso   1.000  H
  H244     1.0000 0.20570  0.64130  0.48960  Biso   1.000  H
  H245     1.0000 0.18090  0.65570  0.47750  Biso   1.000  H
  H246     1.0000 0.20440  0.64210  0.51210  Biso   1.000  H
  H247     1.0000 0.15350  0.67150  0.51040  Biso   1.000  H
  O77      1.0000 0.23794  0.04920  0.79280  Biso   1.000  O
  O78      1.0000 0.05437  0.23376  0.79007  Biso   1.000  O
  O79      1.0000 0.17956  0.05077  0.75223  Biso   1.000  O
  O80      1.0000 0.05539  0.18329  0.74847  Biso   1.000  O
  C286     1.0000 0.23440  0.23100  0.97003  Biso   1.000  C
  C287     1.0000 0.21660  0.20970  0.93750  Biso   1.000  C
  C288     1.0000 0.16450  0.21420  0.92739  Biso   1.000  C
  H248     1.0000 0.14060  0.22830  0.94140  Biso   1.000  H
  C289     1.0000 0.25030  0.18800  0.91605  Biso   1.000  C
  H249     1.0000 0.28480  0.18480  0.92200  Biso   1.000  H
  C290     1.0000 0.14910  0.19770  0.89665  Biso   1.000  C
  H250     1.0000 0.11490  0.20150  0.89010  Biso   1.000  H
  C291     1.0000 0.23370  0.17110  0.88611  Biso   1.000  C
  H251     1.0000 0.25700  0.15590  0.87230  Biso   1.000  H
  C292     1.0000 0.18240  0.17610  0.87584  Biso   1.000  C
  C293     1.0000 0.16560  0.15947  0.84198  Biso   1.000  C
  C294     1.0000 0.12630  0.18360  0.82469  Biso   1.000  C
  H252     1.0000 0.11060  0.20950  0.83450  Biso   1.000  H
  C295     1.0000 0.18920  0.12200  0.82658  Biso   1.000  C
  H253     1.0000 0.21630  0.10670  0.83710  Biso   1.000  H
  C296     1.0000 0.11080  0.16970  0.79377  Biso   1.000  C
  C297     1.0000 0.17270  0.10680  0.79509  Biso   1.000  C
  C298     1.0000 0.13350  0.13080  0.77904  Biso   1.000  C
  H254     1.0000 0.12240  0.12090  0.75830  Biso   1.000  H
  C299     1.0000 0.19820  0.06560  0.77894  Biso   1.000  C
  C300     1.0000 0.07000  0.19800  0.77603  Biso   1.000  C
  H255     1.0000 0.17830  0.15720  0.02250  Biso   1.000  H
  H256     1.0000 0.15480  0.17080  0.98790  Biso   1.000  H
  H257     1.0000 0.20570  0.14130  0.98960  Biso   1.000  H
  H258     1.0000 0.18090  0.15570  0.97750  Biso   1.000  H
  H259     1.0000 0.20440  0.14210  0.01210  Biso   1.000  H
  H260     1.0000 0.15350  0.17150  0.01040  Biso   1.000  H
  O81      1.0000 0.26206  0.45080  0.79280  Biso   1.000  O
  O82      1.0000 0.44563  0.26624  0.79007  Biso   1.000  O
  O83      1.0000 0.32044  0.44923  0.75223  Biso   1.000  O
  O84      1.0000 0.44461  0.31671  0.74847  Biso   1.000  O
  C301     1.0000 0.26560  0.26900  0.97003  Biso   1.000  C
  C302     1.0000 0.28340  0.29030  0.93750  Biso   1.000  C
  C303     1.0000 0.33550  0.28580  0.92739  Biso   1.000  C
  H261     1.0000 0.35940  0.27170  0.94140  Biso   1.000  H
  C304     1.0000 0.24970  0.31200  0.91605  Biso   1.000  C
  H262     1.0000 0.21520  0.31520  0.92200  Biso   1.000  H
  C305     1.0000 0.35090  0.30230  0.89665  Biso   1.000  C
  H263     1.0000 0.38510  0.29850  0.89010  Biso   1.000  H
  C306     1.0000 0.26630  0.32890  0.88611  Biso   1.000  C
  H264     1.0000 0.24300  0.34410  0.87230  Biso   1.000  H
  C307     1.0000 0.31760  0.32390  0.87584  Biso   1.000  C
  C308     1.0000 0.33440  0.34053  0.84198  Biso   1.000  C
  C309     1.0000 0.37370  0.31640  0.82469  Biso   1.000  C
  H265     1.0000 0.38940  0.29050  0.83450  Biso   1.000  H
  C310     1.0000 0.31080  0.37800  0.82658  Biso   1.000  C
  H266     1.0000 0.28370  0.39330  0.83710  Biso   1.000  H
  C311     1.0000 0.38920  0.33030  0.79377  Biso   1.000  C
  C312     1.0000 0.32730  0.39320  0.79509  Biso   1.000  C
  C313     1.0000 0.36650  0.36920  0.77904  Biso   1.000  C
  H267     1.0000 0.37760  0.37910  0.75830  Biso   1.000  H
  C314     1.0000 0.30180  0.43440  0.77894  Biso   1.000  C
  C315     1.0000 0.43000  0.30200  0.77603  Biso   1.000  C
  H268     1.0000 0.32170  0.34280  0.02250  Biso   1.000  H
  H269     1.0000 0.34520  0.32920  0.98790  Biso   1.000  H
  H270     1.0000 0.29430  0.35870  0.98960  Biso   1.000  H
  H271     1.0000 0.31910  0.34430  0.97750  Biso   1.000  H
  H272     1.0000 0.29560  0.35790  0.01210  Biso   1.000  H
  H273     1.0000 0.34650  0.32850  0.01040  Biso   1.000  H
  O85      1.0000 0.26206  0.95080  0.29280  Biso   1.000  O
  O86      1.0000 0.44563  0.76624  0.29007  Biso   1.000  O
  O87      1.0000 0.32044  0.94923  0.25223  Biso   1.000  O
  O88      1.0000 0.44461  0.81671  0.24847  Biso   1.000  O
  C316     1.0000 0.26560  0.76900  0.47003  Biso   1.000  C
  C317     1.0000 0.28340  0.79030  0.43750  Biso   1.000  C
  C318     1.0000 0.33550  0.78580  0.42739  Biso   1.000  C
  H274     1.0000 0.35940  0.77170  0.44140  Biso   1.000  H
  C319     1.0000 0.24970  0.81200  0.41605  Biso   1.000  C
  H275     1.0000 0.21520  0.81520  0.42200  Biso   1.000  H
  C320     1.0000 0.35090  0.80230  0.39665  Biso   1.000  C
  H276     1.0000 0.38510  0.79850  0.39010  Biso   1.000  H
  C321     1.0000 0.26630  0.82890  0.38611  Biso   1.000  C
  H277     1.0000 0.24300  0.84410  0.37230  Biso   1.000  H
  C322     1.0000 0.31760  0.82390  0.37584  Biso   1.000  C
  C323     1.0000 0.33440  0.84053  0.34198  Biso   1.000  C
  C324     1.0000 0.37370  0.81640  0.32469  Biso   1.000  C
  H278     1.0000 0.38940  0.79050  0.33450  Biso   1.000  H
  C325     1.0000 0.31080  0.87800  0.32658  Biso   1.000  C
  H279     1.0000 0.28370  0.89330  0.33710  Biso   1.000  H
  C326     1.0000 0.38920  0.83030  0.29377  Biso   1.000  C
  C327     1.0000 0.32730  0.89320  0.29509  Biso   1.000  C
  C328     1.0000 0.36650  0.86920  0.27904  Biso   1.000  C
  H280     1.0000 0.37760  0.87910  0.25830  Biso   1.000  H
  C329     1.0000 0.30180  0.93440  0.27894  Biso   1.000  C
  C330     1.0000 0.43000  0.80200  0.27603  Biso   1.000  C
  H281     1.0000 0.32170  0.84280  0.52250  Biso   1.000  H
  H282     1.0000 0.34520  0.82920  0.48790  Biso   1.000  H
  H283     1.0000 0.29430  0.85870  0.48960  Biso   1.000  H
  H284     1.0000 0.31910  0.84430  0.47750  Biso   1.000  H
  H285     1.0000 0.29560  0.85790  0.51210  Biso   1.000  H
  H286     1.0000 0.34650  0.82850  0.51040  Biso   1.000  H
  O89      1.0000 0.76206  0.45080  0.29280  Biso   1.000  O
  O90      1.0000 0.94563  0.26624  0.29007  Biso   1.000  O
  O91      1.0000 0.82044  0.44923  0.25223  Biso   1.000  O
  O92      1.0000 0.94461  0.31671  0.24847  Biso   1.000  O
  C331     1.0000 0.76560  0.26900  0.47003  Biso   1.000  C
  C332     1.0000 0.78340  0.29030  0.43750  Biso   1.000  C
  C333     1.0000 0.83550  0.28580  0.42739  Biso   1.000  C
  H287     1.0000 0.85940  0.27170  0.44140  Biso   1.000  H
  C334     1.0000 0.74970  0.31200  0.41605  Biso   1.000  C
  H288     1.0000 0.71520  0.31520  0.42200  Biso   1.000  H
  C335     1.0000 0.85090  0.30230  0.39665  Biso   1.000  C
  H289     1.0000 0.88510  0.29850  0.39010  Biso   1.000  H
  C336     1.0000 0.76630  0.32890  0.38611  Biso   1.000  C
  H290     1.0000 0.74300  0.34410  0.37230  Biso   1.000  H
  C337     1.0000 0.81760  0.32390  0.37584  Biso   1.000  C
  C338     1.0000 0.83440  0.34053  0.34198  Biso   1.000  C
  C339     1.0000 0.87370  0.31640  0.32469  Biso   1.000  C
  H291     1.0000 0.88940  0.29050  0.33450  Biso   1.000  H
  C340     1.0000 0.81080  0.37800  0.32658  Biso   1.000  C
  H292     1.0000 0.78370  0.39330  0.33710  Biso   1.000  H
  C341     1.0000 0.88920  0.33030  0.29377  Biso   1.000  C
  C342     1.0000 0.82730  0.39320  0.29509  Biso   1.000  C
  C343     1.0000 0.86650  0.36920  0.27904  Biso   1.000  C
  H293     1.0000 0.87760  0.37910  0.25830  Biso   1.000  H
  C344     1.0000 0.80180  0.43440  0.27894  Biso   1.000  C
  C345     1.0000 0.93000  0.30200  0.27603  Biso   1.000  C
  H294     1.0000 0.82170  0.34280  0.52250  Biso   1.000  H
  H295     1.0000 0.84520  0.32920  0.48790  Biso   1.000  H
  H296     1.0000 0.79430  0.35870  0.48960  Biso   1.000  H
  H297     1.0000 0.81910  0.34430  0.47750  Biso   1.000  H
  H298     1.0000 0.79560  0.35790  0.51210  Biso   1.000  H
  H299     1.0000 0.84650  0.32850  0.51040  Biso   1.000  H
  O93      1.0000 0.76206  0.95080  0.79280  Biso   1.000  O
  O94      1.0000 0.94563  0.76624  0.79007  Biso   1.000  O
  O95      1.0000 0.82044  0.94923  0.75223  Biso   1.000  O
  O96      1.0000 0.94461  0.81671  0.74847  Biso   1.000  O
  C346     1.0000 0.76560  0.76900  0.97003  Biso   1.000  C
  C347     1.0000 0.78340  0.79030  0.93750  Biso   1.000  C
  C348     1.0000 0.83550  0.78580  0.92739  Biso   1.000  C
  H300     1.0000 0.85940  0.77170  0.94140  Biso   1.000  H
  C349     1.0000 0.74970  0.81200  0.91605  Biso   1.000  C
  H301     1.0000 0.71520  0.81520  0.92200  Biso   1.000  H
  C350     1.0000 0.85090  0.80230  0.89665  Biso   1.000  C
  H302     1.0000 0.88510  0.79850  0.89010  Biso   1.000  H
  C351     1.0000 0.76630  0.82890  0.88611  Biso   1.000  C
  H303     1.0000 0.74300  0.84410  0.87230  Biso   1.000  H
  C352     1.0000 0.81760  0.82390  0.87584  Biso   1.000  C
  C353     1.0000 0.83440  0.84053  0.84198  Biso   1.000  C
  C354     1.0000 0.87370  0.81640  0.82469  Biso   1.000  C
  H304     1.0000 0.88940  0.79050  0.83450  Biso   1.000  H
  C355     1.0000 0.81080  0.87800  0.82658  Biso   1.000  C
  H305     1.0000 0.78370  0.89330  0.83710  Biso   1.000  H
  C356     1.0000 0.88920  0.83030  0.79377  Biso   1.000  C
  C357     1.0000 0.82730  0.89320  0.79509  Biso   1.000  C
  C358     1.0000 0.86650  0.86920  0.77904  Biso   1.000  C
  H306     1.0000 0.87760  0.87910  0.75830  Biso   1.000  H
  C359     1.0000 0.80180  0.93440  0.77894  Biso   1.000  C
  C360     1.0000 0.93000  0.80200  0.77603  Biso   1.000  C
  H307     1.0000 0.82170  0.84280  0.02250  Biso   1.000  H
  H308     1.0000 0.84520  0.82920  0.98790  Biso   1.000  H
  H309     1.0000 0.79430  0.85870  0.98960  Biso   1.000  H
  H310     1.0000 0.81910  0.84430  0.97750  Biso   1.000  H
  H311     1.0000 0.79560  0.85790  0.01210  Biso   1.000  H
  H312     1.0000 0.84650  0.82850  0.01040  Biso   1.000  H
  O97      1.0000 0.26206  0.54920  0.20720  Biso   1.000  O
  O98      1.0000 0.44563  0.73376  0.20993  Biso   1.000  O
  O99      1.0000 0.32044  0.55077  0.24777  Biso   1.000  O
  O100     1.0000 0.44461  0.68329  0.25153  Biso   1.000  O
  C361     1.0000 0.26560  0.73100  0.02997  Biso   1.000  C
  C362     1.0000 0.28340  0.70970  0.06250  Biso   1.000  C
  C363     1.0000 0.33550  0.71420  0.07261  Biso   1.000  C
  H313     1.0000 0.35940  0.72830  0.05860  Biso   1.000  H
  C364     1.0000 0.24970  0.68800  0.08395  Biso   1.000  C
  H314     1.0000 0.21520  0.68480  0.07800  Biso   1.000  H
  C365     1.0000 0.35090  0.69770  0.10335  Biso   1.000  C
  H315     1.0000 0.38510  0.70150  0.10990  Biso   1.000  H
  C366     1.0000 0.26630  0.67110  0.11389  Biso   1.000  C
  H316     1.0000 0.24300  0.65590  0.12770  Biso   1.000  H
  C367     1.0000 0.31760  0.67610  0.12416  Biso   1.000  C
  C368     1.0000 0.33440  0.65947  0.15802  Biso   1.000  C
  C369     1.0000 0.37370  0.68360  0.17531  Biso   1.000  C
  H317     1.0000 0.38940  0.70950  0.16550  Biso   1.000  H
  C370     1.0000 0.31080  0.62200  0.17342  Biso   1.000  C
  H318     1.0000 0.28370  0.60670  0.16290  Biso   1.000  H
  C371     1.0000 0.38920  0.66970  0.20623  Biso   1.000  C
  C372     1.0000 0.32730  0.60680  0.20491  Biso   1.000  C
  C373     1.0000 0.36650  0.63080  0.22096  Biso   1.000  C
  H319     1.0000 0.37760  0.62090  0.24170  Biso   1.000  H
  C374     1.0000 0.30180  0.56560  0.22106  Biso   1.000  C
  C375     1.0000 0.43000  0.69800  0.22397  Biso   1.000  C
  H320     1.0000 0.32170  0.65720  0.97750  Biso   1.000  H
  H321     1.0000 0.34520  0.67080  0.01210  Biso   1.000  H
  H322     1.0000 0.29430  0.64130  0.01040  Biso   1.000  H
  H323     1.0000 0.31910  0.65570  0.02250  Biso   1.000  H
  H324     1.0000 0.29560  0.64210  0.98790  Biso   1.000  H
  H325     1.0000 0.34650  0.67150  0.98960  Biso   1.000  H
  O101     1.0000 0.26206  0.04920  0.70720  Biso   1.000  O
  O102     1.0000 0.44563  0.23376  0.70993  Biso   1.000  O
  O103     1.0000 0.32044  0.05077  0.74777  Biso   1.000  O
  O104     1.0000 0.44461  0.18329  0.75153  Biso   1.000  O
  C376     1.0000 0.26560  0.23100  0.52997  Biso   1.000  C
  C377     1.0000 0.28340  0.20970  0.56250  Biso   1.000  C
  C378     1.0000 0.33550  0.21420  0.57261  Biso   1.000  C
  H326     1.0000 0.35940  0.22830  0.55860  Biso   1.000  H
  C379     1.0000 0.24970  0.18800  0.58395  Biso   1.000  C
  H327     1.0000 0.21520  0.18480  0.57800  Biso   1.000  H
  C380     1.0000 0.35090  0.19770  0.60335  Biso   1.000  C
  H328     1.0000 0.38510  0.20150  0.60990  Biso   1.000  H
  C381     1.0000 0.26630  0.17110  0.61389  Biso   1.000  C
  H329     1.0000 0.24300  0.15590  0.62770  Biso   1.000  H
  C382     1.0000 0.31760  0.17610  0.62416  Biso   1.000  C
  C383     1.0000 0.33440  0.15947  0.65802  Biso   1.000  C
  C384     1.0000 0.37370  0.18360  0.67531  Biso   1.000  C
  H330     1.0000 0.38940  0.20950  0.66550  Biso   1.000  H
  C385     1.0000 0.31080  0.12200  0.67342  Biso   1.000  C
  H331     1.0000 0.28370  0.10670  0.66290  Biso   1.000  H
  C386     1.0000 0.38920  0.16970  0.70623  Biso   1.000  C
  C387     1.0000 0.32730  0.10680  0.70491  Biso   1.000  C
  C388     1.0000 0.36650  0.13080  0.72096  Biso   1.000  C
  H332     1.0000 0.37760  0.12090  0.74170  Biso   1.000  H
  C389     1.0000 0.30180  0.06560  0.72106  Biso   1.000  C
  C390     1.0000 0.43000  0.19800  0.72397  Biso   1.000  C
  H333     1.0000 0.32170  0.15720  0.47750  Biso   1.000  H
  H334     1.0000 0.34520  0.17080  0.51210  Biso   1.000  H
  H335     1.0000 0.29430  0.14130  0.51040  Biso   1.000  H
  H336     1.0000 0.31910  0.15570  0.52250  Biso   1.000  H
  H337     1.0000 0.29560  0.14210  0.48790  Biso   1.000  H
  H338     1.0000 0.34650  0.17150  0.48960  Biso   1.000  H
  O105     1.0000 0.76206  0.54920  0.70720  Biso   1.000  O
  O106     1.0000 0.94563  0.73376  0.70993  Biso   1.000  O
  O107     1.0000 0.82044  0.55077  0.74777  Biso   1.000  O
  O108     1.0000 0.94461  0.68329  0.75153  Biso   1.000  O
  C391     1.0000 0.76560  0.73100  0.52997  Biso   1.000  C
  C392     1.0000 0.78340  0.70970  0.56250  Biso   1.000  C
  C393     1.0000 0.83550  0.71420  0.57261  Biso   1.000  C
  H339     1.0000 0.85940  0.72830  0.55860  Biso   1.000  H
  C394     1.0000 0.74970  0.68800  0.58395  Biso   1.000  C
  H340     1.0000 0.71520  0.68480  0.57800  Biso   1.000  H
  C395     1.0000 0.85090  0.69770  0.60335  Biso   1.000  C
  H341     1.0000 0.88510  0.70150  0.60990  Biso   1.000  H
  C396     1.0000 0.76630  0.67110  0.61389  Biso   1.000  C
  H342     1.0000 0.74300  0.65590  0.62770  Biso   1.000  H
  C397     1.0000 0.81760  0.67610  0.62416  Biso   1.000  C
  C398     1.0000 0.83440  0.65947  0.65802  Biso   1.000  C
  C399     1.0000 0.87370  0.68360  0.67531  Biso   1.000  C
  H343     1.0000 0.88940  0.70950  0.66550  Biso   1.000  H
  C400     1.0000 0.81080  0.62200  0.67342  Biso   1.000  C
  H344     1.0000 0.78370  0.60670  0.66290  Biso   1.000  H
  C401     1.0000 0.88920  0.66970  0.70623  Biso   1.000  C
  C402     1.0000 0.82730  0.60680  0.70491  Biso   1.000  C
  C403     1.0000 0.86650  0.63080  0.72096  Biso   1.000  C
  H345     1.0000 0.87760  0.62090  0.74170  Biso   1.000  H
  C404     1.0000 0.80180  0.56560  0.72106  Biso   1.000  C
  C405     1.0000 0.93000  0.69800  0.72397  Biso   1.000  C
  H346     1.0000 0.82170  0.65720  0.47750  Biso   1.000  H
  H347     1.0000 0.84520  0.67080  0.51210  Biso   1.000  H
  H348     1.0000 0.79430  0.64130  0.51040  Biso   1.000  H
  H349     1.0000 0.81910  0.65570  0.52250  Biso   1.000  H
  H350     1.0000 0.79560  0.64210  0.48790  Biso   1.000  H
  H351     1.0000 0.84650  0.67150  0.48960  Biso   1.000  H
  O109     1.0000 0.76206  0.04920  0.20720  Biso   1.000  O
  O110     1.0000 0.94563  0.23376  0.20993  Biso   1.000  O
  O111     1.0000 0.82044  0.05077  0.24777  Biso   1.000  O
  O112     1.0000 0.94461  0.18329  0.25153  Biso   1.000  O
  C406     1.0000 0.76560  0.23100  0.02997  Biso   1.000  C
  C407     1.0000 0.78340  0.20970  0.06250  Biso   1.000  C
  C408     1.0000 0.83550  0.21420  0.07261  Biso   1.000  C
  H352     1.0000 0.85940  0.22830  0.05860  Biso   1.000  H
  C409     1.0000 0.74970  0.18800  0.08395  Biso   1.000  C
  H353     1.0000 0.71520  0.18480  0.07800  Biso   1.000  H
  C410     1.0000 0.85090  0.19770  0.10335  Biso   1.000  C
  H354     1.0000 0.88510  0.20150  0.10990  Biso   1.000  H
  C411     1.0000 0.76630  0.17110  0.11389  Biso   1.000  C
  H355     1.0000 0.74300  0.15590  0.12770  Biso   1.000  H
  C412     1.0000 0.81760  0.17610  0.12416  Biso   1.000  C
  C413     1.0000 0.83440  0.15947  0.15802  Biso   1.000  C
  C414     1.0000 0.87370  0.18360  0.17531  Biso   1.000  C
  H356     1.0000 0.88940  0.20950  0.16550  Biso   1.000  H
  C415     1.0000 0.81080  0.12200  0.17342  Biso   1.000  C
  H357     1.0000 0.78370  0.10670  0.16290  Biso   1.000  H
  C416     1.0000 0.88920  0.16970  0.20623  Biso   1.000  C
  C417     1.0000 0.82730  0.10680  0.20491  Biso   1.000  C
  C418     1.0000 0.86650  0.13080  0.22096  Biso   1.000  C
  H358     1.0000 0.87760  0.12090  0.24170  Biso   1.000  H
  C419     1.0000 0.80180  0.06560  0.22106  Biso   1.000  C
  C420     1.0000 0.93000  0.19800  0.22397  Biso   1.000  C
  H359     1.0000 0.82170  0.15720  0.97750  Biso   1.000  H
  H360     1.0000 0.84520  0.17080  0.01210  Biso   1.000  H
  H361     1.0000 0.79430  0.14130  0.01040  Biso   1.000  H
  H362     1.0000 0.81910  0.15570  0.02250  Biso   1.000  H
  H363     1.0000 0.79560  0.14210  0.98790  Biso   1.000  H
  H364     1.0000 0.84650  0.17150  0.98960  Biso   1.000  H
  O113     1.0000 0.73794  0.45080  0.20720  Biso   1.000  O
  O114     1.0000 0.55437  0.26624  0.20993  Biso   1.000  O
  O115     1.0000 0.67956  0.44923  0.24777  Biso   1.000  O
  O116     1.0000 0.55539  0.31671  0.25153  Biso   1.000  O
  C421     1.0000 0.73440  0.26900  0.02997  Biso   1.000  C
  C422     1.0000 0.71660  0.29030  0.06250  Biso   1.000  C
  C423     1.0000 0.66450  0.28580  0.07261  Biso   1.000  C
  H365     1.0000 0.64060  0.27170  0.05860  Biso   1.000  H
  C424     1.0000 0.75030  0.31200  0.08395  Biso   1.000  C
  H366     1.0000 0.78480  0.31520  0.07800  Biso   1.000  H
  C425     1.0000 0.64910  0.30230  0.10335  Biso   1.000  C
  H367     1.0000 0.61490  0.29850  0.10990  Biso   1.000  H
  C426     1.0000 0.73370  0.32890  0.11389  Biso   1.000  C
  H368     1.0000 0.75700  0.34410  0.12770  Biso   1.000  H
  C427     1.0000 0.68240  0.32390  0.12416  Biso   1.000  C
  C428     1.0000 0.66560  0.34053  0.15802  Biso   1.000  C
  C429     1.0000 0.62630  0.31640  0.17531  Biso   1.000  C
  H369     1.0000 0.61060  0.29050  0.16550  Biso   1.000  H
  C430     1.0000 0.68920  0.37800  0.17342  Biso   1.000  C
  H370     1.0000 0.71630  0.39330  0.16290  Biso   1.000  H
  C431     1.0000 0.61080  0.33030  0.20623  Biso   1.000  C
  C432     1.0000 0.67270  0.39320  0.20491  Biso   1.000  C
  C433     1.0000 0.63350  0.36920  0.22096  Biso   1.000  C
  H371     1.0000 0.62240  0.37910  0.24170  Biso   1.000  H
  C434     1.0000 0.69820  0.43440  0.22106  Biso   1.000  C
  C435     1.0000 0.57000  0.30200  0.22397  Biso   1.000  C
  H372     1.0000 0.67830  0.34280  0.97750  Biso   1.000  H
  H373     1.0000 0.65480  0.32920  0.01210  Biso   1.000  H
  H374     1.0000 0.70570  0.35870  0.01040  Biso   1.000  H
  H375     1.0000 0.68090  0.34430  0.02250  Biso   1.000  H
  H376     1.0000 0.70440  0.35790  0.98790  Biso   1.000  H
  H377     1.0000 0.65350  0.32850  0.98960  Biso   1.000  H
  O117     1.0000 0.73794  0.95080  0.70720  Biso   1.000  O
  O118     1.0000 0.55437  0.76624  0.70993  Biso   1.000  O
  O119     1.0000 0.67956  0.94923  0.74777  Biso   1.000  O
  O120     1.0000 0.55539  0.81671  0.75153  Biso   1.000  O
  C436     1.0000 0.73440  0.76900  0.52997  Biso   1.000  C
  C437     1.0000 0.71660  0.79030  0.56250  Biso   1.000  C
  C438     1.0000 0.66450  0.78580  0.57261  Biso   1.000  C
  H378     1.0000 0.64060  0.77170  0.55860  Biso   1.000  H
  C439     1.0000 0.75030  0.81200  0.58395  Biso   1.000  C
  H379     1.0000 0.78480  0.81520  0.57800  Biso   1.000  H
  C440     1.0000 0.64910  0.80230  0.60335  Biso   1.000  C
  H380     1.0000 0.61490  0.79850  0.60990  Biso   1.000  H
  C441     1.0000 0.73370  0.82890  0.61389  Biso   1.000  C
  H381     1.0000 0.75700  0.84410  0.62770  Biso   1.000  H
  C442     1.0000 0.68240  0.82390  0.62416  Biso   1.000  C
  C443     1.0000 0.66560  0.84053  0.65802  Biso   1.000  C
  C444     1.0000 0.62630  0.81640  0.67531  Biso   1.000  C
  H382     1.0000 0.61060  0.79050  0.66550  Biso   1.000  H
  C445     1.0000 0.68920  0.87800  0.67342  Biso   1.000  C
  H383     1.0000 0.71630  0.89330  0.66290  Biso   1.000  H
  C446     1.0000 0.61080  0.83030  0.70623  Biso   1.000  C
  C447     1.0000 0.67270  0.89320  0.70491  Biso   1.000  C
  C448     1.0000 0.63350  0.86920  0.72096  Biso   1.000  C
  H384     1.0000 0.62240  0.87910  0.74170  Biso   1.000  H
  C449     1.0000 0.69820  0.93440  0.72106  Biso   1.000  C
  C450     1.0000 0.57000  0.80200  0.72397  Biso   1.000  C
  H385     1.0000 0.67830  0.84280  0.47750  Biso   1.000  H
  H386     1.0000 0.65480  0.82920  0.51210  Biso   1.000  H
  H387     1.0000 0.70570  0.85870  0.51040  Biso   1.000  H
  H388     1.0000 0.68090  0.84430  0.52250  Biso   1.000  H
  H389     1.0000 0.70440  0.85790  0.48790  Biso   1.000  H
  H390     1.0000 0.65350  0.82850  0.48960  Biso   1.000  H
  O121     1.0000 0.23794  0.45080  0.70720  Biso   1.000  O
  O122     1.0000 0.05437  0.26624  0.70993  Biso   1.000  O
  O123     1.0000 0.17956  0.44923  0.74777  Biso   1.000  O
  O124     1.0000 0.05539  0.31671  0.75153  Biso   1.000  O
  C451     1.0000 0.23440  0.26900  0.52997  Biso   1.000  C
  C452     1.0000 0.21660  0.29030  0.56250  Biso   1.000  C
  C453     1.0000 0.16450  0.28580  0.57261  Biso   1.000  C
  H391     1.0000 0.14060  0.27170  0.55860  Biso   1.000  H
  C454     1.0000 0.25030  0.31200  0.58395  Biso   1.000  C
  H392     1.0000 0.28480  0.31520  0.57800  Biso   1.000  H
  C455     1.0000 0.14910  0.30230  0.60335  Biso   1.000  C
  H393     1.0000 0.11490  0.29850  0.60990  Biso   1.000  H
  C456     1.0000 0.23370  0.32890  0.61389  Biso   1.000  C
  H394     1.0000 0.25700  0.34410  0.62770  Biso   1.000  H
  C457     1.0000 0.18240  0.32390  0.62416  Biso   1.000  C
  C458     1.0000 0.16560  0.34053  0.65802  Biso   1.000  C
  C459     1.0000 0.12630  0.31640  0.67531  Biso   1.000  C
  H395     1.0000 0.11060  0.29050  0.66550  Biso   1.000  H
  C460     1.0000 0.18920  0.37800  0.67342  Biso   1.000  C
  H396     1.0000 0.21630  0.39330  0.66290  Biso   1.000  H
  C461     1.0000 0.11080  0.33030  0.70623  Biso   1.000  C
  C462     1.0000 0.17270  0.39320  0.70491  Biso   1.000  C
  C463     1.0000 0.13350  0.36920  0.72096  Biso   1.000  C
  H397     1.0000 0.12240  0.37910  0.74170  Biso   1.000  H
  C464     1.0000 0.19820  0.43440  0.72106  Biso   1.000  C
  C465     1.0000 0.07000  0.30200  0.72397  Biso   1.000  C
  H398     1.0000 0.17830  0.34280  0.47750  Biso   1.000  H
  H399     1.0000 0.15480  0.32920  0.51210  Biso   1.000  H
  H400     1.0000 0.20570  0.35870  0.51040  Biso   1.000  H
  H401     1.0000 0.18090  0.34430  0.52250  Biso   1.000  H
  H402     1.0000 0.20440  0.35790  0.48790  Biso   1.000  H
  H403     1.0000 0.15350  0.32850  0.48960  Biso   1.000  H
  O125     1.0000 0.23794  0.95080  0.20720  Biso   1.000  O
  O126     1.0000 0.05437  0.76624  0.20993  Biso   1.000  O
  O127     1.0000 0.17956  0.94923  0.24777  Biso   1.000  O
  O128     1.0000 0.05539  0.81671  0.25153  Biso   1.000  O
  C466     1.0000 0.23440  0.76900  0.02997  Biso   1.000  C
  C467     1.0000 0.21660  0.79030  0.06250  Biso   1.000  C
  C468     1.0000 0.16450  0.78580  0.07261  Biso   1.000  C
  H404     1.0000 0.14060  0.77170  0.05860  Biso   1.000  H
  C469     1.0000 0.25030  0.81200  0.08395  Biso   1.000  C
  H405     1.0000 0.28480  0.81520  0.07800  Biso   1.000  H
  C470     1.0000 0.14910  0.80230  0.10335  Biso   1.000  C
  H406     1.0000 0.11490  0.79850  0.10990  Biso   1.000  H
  C471     1.0000 0.23370  0.82890  0.11389  Biso   1.000  C
  H407     1.0000 0.25700  0.84410  0.12770  Biso   1.000  H
  C472     1.0000 0.18240  0.82390  0.12416  Biso   1.000  C
  C473     1.0000 0.16560  0.84053  0.15802  Biso   1.000  C
  C474     1.0000 0.12630  0.81640  0.17531  Biso   1.000  C
  H408     1.0000 0.11060  0.79050  0.16550  Biso   1.000  H
  C475     1.0000 0.18920  0.87800  0.17342  Biso   1.000  C
  H409     1.0000 0.21630  0.89330  0.16290  Biso   1.000  H
  C476     1.0000 0.11080  0.83030  0.20623  Biso   1.000  C
  C477     1.0000 0.17270  0.89320  0.20491  Biso   1.000  C
  C478     1.0000 0.13350  0.86920  0.22096  Biso   1.000  C
  H410     1.0000 0.12240  0.87910  0.24170  Biso   1.000  H
  C479     1.0000 0.19820  0.93440  0.22106  Biso   1.000  C
  C480     1.0000 0.07000  0.80200  0.22397  Biso   1.000  C
  H411     1.0000 0.17830  0.84280  0.97750  Biso   1.000  H
  H412     1.0000 0.15480  0.82920  0.01210  Biso   1.000  H
  H413     1.0000 0.20570  0.85870  0.01040  Biso   1.000  H
  H414     1.0000 0.18090  0.84430  0.02250  Biso   1.000  H
  H415     1.0000 0.20440  0.85790  0.98790  Biso   1.000  H
  H416     1.0000 0.15350  0.82850  0.98960  Biso   1.000  H
  Zn1      1.0000 0.50000  0.21686  0.22177  Biso   1.000  Zn
  Zn2      1.0000 0.50000  0.71686  0.72177  Biso   1.000  Zn
  Zn3      1.0000 0.00000  0.21686  0.72177  Biso   1.000  Zn
  Zn4      1.0000 0.00000  0.71686  0.22177  Biso   1.000  Zn
  Zn5      1.0000 0.50000  0.78314  0.22177  Biso   1.000  Zn
  Zn6      1.0000 0.50000  0.28314  0.72177  Biso   1.000  Zn
  Zn7      1.0000 0.00000  0.78314  0.72177  Biso   1.000  Zn
  Zn8      1.0000 0.00000  0.28314  0.22177  Biso   1.000  Zn
  Zn9      1.0000 0.50000  0.21686  0.77823  Biso   1.000  Zn
  Zn10     1.0000 0.50000  0.71686  0.27823  Biso   1.000  Zn
  Zn11     1.0000 0.00000  0.21686  0.27823  Biso   1.000  Zn
  Zn12     1.0000 0.00000  0.71686  0.77823  Biso   1.000  Zn
  Zn13     1.0000 0.50000  0.78314  0.77823  Biso   1.000  Zn
  Zn14     1.0000 0.50000  0.28314  0.27823  Biso   1.000  Zn
  Zn15     1.0000 0.00000  0.78314  0.27823  Biso   1.000  Zn
  Zn16     1.0000 0.00000  0.28314  0.77823  Biso   1.000  Zn
  Zn17     1.0000 0.21112  0.50000  0.22284  Biso   1.000  Zn
  Zn18     1.0000 0.21112  0.00000  0.72284  Biso   1.000  Zn
  Zn19     1.0000 0.71112  0.50000  0.72284  Biso   1.000  Zn
  Zn20     1.0000 0.71112  0.00000  0.22284  Biso   1.000  Zn
  Zn21     1.0000 0.78888  0.50000  0.22284  Biso   1.000  Zn
  Zn22     1.0000 0.78888  0.00000  0.72284  Biso   1.000  Zn
  Zn23     1.0000 0.28888  0.50000  0.72284  Biso   1.000  Zn
  Zn24     1.0000 0.28888  0.00000  0.22284  Biso   1.000  Zn
  Zn25     1.0000 0.78888  0.50000  0.77716  Biso   1.000  Zn
  Zn26     1.0000 0.78888  0.00000  0.27716  Biso   1.000  Zn
  Zn27     1.0000 0.28888  0.50000  0.27716  Biso   1.000  Zn
  Zn28     1.0000 0.28888  0.00000  0.77716  Biso   1.000  Zn
  Zn29     1.0000 0.21112  0.50000  0.77716  Biso   1.000  Zn
  Zn30     1.0000 0.21112  0.00000  0.27716  Biso   1.000  Zn
  Zn31     1.0000 0.71112  0.50000  0.27716  Biso   1.000  Zn
  Zn32     1.0000 0.71112  0.00000  0.77716  Biso   1.000  Zn
  C481     1.0000 0.31380  0.33410  0.00000  Biso   1.000  C
  C482     1.0000 0.28230  0.28930  0.00000  Biso   1.000  C
  C483     1.0000 0.31380  0.83410  0.50000  Biso   1.000  C
  C484     1.0000 0.28230  0.78930  0.50000  Biso   1.000  C
  C485     1.0000 0.81380  0.33410  0.50000  Biso   1.000  C
  C486     1.0000 0.78230  0.28930  0.50000  Biso   1.000  C
  C487     1.0000 0.81380  0.83410  0.00000  Biso   1.000  C
  C488     1.0000 0.78230  0.78930  0.00000  Biso   1.000  C
  C489     1.0000 0.68620  0.66590  0.00000  Biso   1.000  C
  C490     1.0000 0.71770  0.71070  0.00000  Biso   1.000  C
  C491     1.0000 0.68620  0.16590  0.50000  Biso   1.000  C
  C492     1.0000 0.71770  0.21070  0.50000  Biso   1.000  C
  C493     1.0000 0.18620  0.66590  0.50000  Biso   1.000  C
  C494     1.0000 0.21770  0.71070  0.50000  Biso   1.000  C
  C495     1.0000 0.18620  0.16590  0.00000  Biso   1.000  C
  C496     1.0000 0.21770  0.21070  0.00000  Biso   1.000  C
  C497     1.0000 0.68620  0.33410  0.00000  Biso   1.000  C
  C498     1.0000 0.71770  0.28930  0.00000  Biso   1.000  C
  C499     1.0000 0.68620  0.83410  0.50000  Biso   1.000  C
  C500     1.0000 0.71770  0.78930  0.50000  Biso   1.000  C
  C501     1.0000 0.18620  0.33410  0.50000  Biso   1.000  C
  C502     1.0000 0.21770  0.28930  0.50000  Biso   1.000  C
  C503     1.0000 0.18620  0.83410  0.00000  Biso   1.000  C
  C504     1.0000 0.21770  0.78930  0.00000  Biso   1.000  C
  C505     1.0000 0.31380  0.66590  0.00000  Biso   1.000  C
  C506     1.0000 0.28230  0.71070  0.00000  Biso   1.000  C
  C507     1.0000 0.31380  0.16590  0.50000  Biso   1.000  C
  C508     1.0000 0.28230  0.21070  0.50000  Biso   1.000  C
  C509     1.0000 0.81380  0.66590  0.50000  Biso   1.000  C
  C510     1.0000 0.78230  0.71070  0.50000  Biso   1.000  C
  C511     1.0000 0.81380  0.16590  0.00000  Biso   1.000  C
  C512     1.0000 0.78230  0.21070  0.00000  Biso   1.000  C
