data_image0
_cell_length_a       26.1284
_cell_length_b       26.1284
_cell_length_c       34.1663
_cell_angle_alpha    90
_cell_angle_beta     90
_cell_angle_gamma    90

_symmetry_space_group_name_H-M    "P 1"
_symmetry_int_tables_number       1

loop_
  _symmetry_equiv_pos_as_xyz
  'x, y, z'

loop_
  _atom_site_label
  _atom_site_occupancy
  _atom_site_fract_x
  _atom_site_fract_y
  _atom_site_fract_z
  _atom_site_thermal_displace_type
  _atom_site_B_iso_or_equiv
  _atom_site_type_symbol
  Cu1      1.0000 0.59977  0.23092  0.78121  Biso   1.000  Cu
  O1       1.0000 0.75442  0.96367  0.74371  Biso   1.000  O
  O2       1.0000 0.65934  0.21854  0.81539  Biso   1.000  O
  Cu2      1.0000 0.57499  0.29635  0.83657  Biso   1.000  Cu
  O3       1.0000 0.86525  0.20993  0.74319  Biso   1.000  O
  C1       1.0000 0.78580  0.99310  0.72733  Biso   1.000  C
  C2       1.0000 0.66770  0.24290  0.84648  Biso   1.000  C
  O4       1.0000 0.80757  0.98600  0.69501  Biso   1.000  O
  O5       1.0000 0.63907  0.27691  0.86085  Biso   1.000  O
  C3       1.0000 0.80130  0.04080  0.74951  Biso   1.000  C
  C4       1.0000 0.71500  0.23060  0.86888  Biso   1.000  C
  C5       1.0000 0.78960  0.04620  0.78844  Biso   1.000  C
  C6       1.0000 0.82840  0.07930  0.72986  Biso   1.000  C
  C7       1.0000 0.74350  0.18700  0.86001  Biso   1.000  C
  C8       1.0000 0.73110  0.26320  0.89857  Biso   1.000  C
  C9       1.0000 0.80440  0.08870  0.80927  Biso   1.000  C
  H1       1.0000 0.77090  0.01990  0.80130  Biso   1.000  H
  H2       1.0000 0.83820  0.07500  0.70330  Biso   1.000  H
  C10      1.0000 0.84070  0.12370  0.74980  Biso   1.000  C
  H3       1.0000 0.73250  0.16460  0.83980  Biso   1.000  H
  C11      1.0000 0.78800  0.17630  0.88094  Biso   1.000  C
  C12      1.0000 0.77670  0.25420  0.91780  Biso   1.000  C
  H4       1.0000 0.71060  0.29170  0.90570  Biso   1.000  H
  N1       1.0000 0.79410  0.08970  0.85102  Biso   1.000  N
  C13      1.0000 0.82820  0.12820  0.78932  Biso   1.000  C
  C14      1.0000 0.86640  0.16620  0.72785  Biso   1.000  C
  C15      1.0000 0.80500  0.21050  0.90891  Biso   1.000  C
  C16      1.0000 0.81690  0.12970  0.87459  Biso   1.000  C
  C17      1.0000 0.79580  0.29050  0.94794  Biso   1.000  C
  H5       1.0000 0.77430  0.06640  0.86180  Biso   1.000  H
  H6       1.0000 0.83610  0.15900  0.80280  Biso   1.000  H
  O6       1.0000 0.88806  0.15438  0.69647  Biso   1.000  O
  H7       1.0000 0.83630  0.20420  0.92220  Biso   1.000  H
  H8       1.0000 0.84980  0.13930  0.86230  Biso   1.000  H
  H9       1.0000 0.82490  0.11490  0.90060  Biso   1.000  H
  O7       1.0000 0.76377  0.32415  0.95964  Biso   1.000  O
  O8       1.0000 0.84053  0.28570  0.96022  Biso   1.000  O
  O9       1.0000 0.56062  0.18027  0.81126  Biso   1.000  O
  O10      1.0000 0.41887  0.19235  0.95959  Biso   1.000  O
  O11      1.0000 0.38168  0.11453  0.95912  Biso   1.000  O
  C18      1.0000 0.41330  0.14710  0.94714  Biso   1.000  C
  C19      1.0000 0.44700  0.13140  0.91321  Biso   1.000  C
  C20      1.0000 0.44680  0.08110  0.90010  Biso   1.000  C
  C21      1.0000 0.47830  0.16720  0.89494  Biso   1.000  C
  H10      1.0000 0.42470  0.05690  0.91210  Biso   1.000  H
  C22      1.0000 0.47820  0.06580  0.87000  Biso   1.000  C
  C23      1.0000 0.50830  0.15270  0.86350  Biso   1.000  C
  H11      1.0000 0.47910  0.20160  0.90400  Biso   1.000  H
  C24      1.0000 0.50800  0.10260  0.85060  Biso   1.000  C
  N2       1.0000 0.47970  0.01160  0.86040  Biso   1.000  N
  C25      1.0000 0.53920  0.19300  0.84297  Biso   1.000  C
  H12      1.0000 0.52790  0.09300  0.82850  Biso   1.000  H
  O12      1.0000 0.54258  0.23575  0.85932  Biso   1.000  O
  O13      1.0000 0.70470  0.40770  0.01480  Biso   1.000  O
  H13      1.0000 0.70210  0.43680  0.00390  Biso   1.000  H
  Cu3      1.0000 0.09977  0.73092  0.28121  Biso   1.000  Cu
  O14      1.0000 0.25442  0.46367  0.24371  Biso   1.000  O
  O15      1.0000 0.15934  0.71854  0.31539  Biso   1.000  O
  Cu4      1.0000 0.07499  0.79635  0.33657  Biso   1.000  Cu
  O16      1.0000 0.36525  0.70993  0.24319  Biso   1.000  O
  C26      1.0000 0.28580  0.49310  0.22733  Biso   1.000  C
  C27      1.0000 0.16770  0.74290  0.34648  Biso   1.000  C
  O17      1.0000 0.30757  0.48600  0.19501  Biso   1.000  O
  O18      1.0000 0.13907  0.77691  0.36085  Biso   1.000  O
  C28      1.0000 0.30130  0.54080  0.24951  Biso   1.000  C
  C29      1.0000 0.21500  0.73060  0.36888  Biso   1.000  C
  C30      1.0000 0.28960  0.54620  0.28844  Biso   1.000  C
  C31      1.0000 0.32840  0.57930  0.22986  Biso   1.000  C
  C32      1.0000 0.24350  0.68700  0.36001  Biso   1.000  C
  C33      1.0000 0.23110  0.76320  0.39857  Biso   1.000  C
  C34      1.0000 0.30440  0.58870  0.30927  Biso   1.000  C
  H14      1.0000 0.27090  0.51990  0.30130  Biso   1.000  H
  H15      1.0000 0.33820  0.57500  0.20330  Biso   1.000  H
  C35      1.0000 0.34070  0.62370  0.24980  Biso   1.000  C
  H16      1.0000 0.23250  0.66460  0.33980  Biso   1.000  H
  C36      1.0000 0.28800  0.67630  0.38094  Biso   1.000  C
  C37      1.0000 0.27670  0.75420  0.41780  Biso   1.000  C
  H17      1.0000 0.21060  0.79170  0.40570  Biso   1.000  H
  N3       1.0000 0.29410  0.58970  0.35102  Biso   1.000  N
  C38      1.0000 0.32820  0.62820  0.28932  Biso   1.000  C
  C39      1.0000 0.36640  0.66620  0.22785  Biso   1.000  C
  C40      1.0000 0.30500  0.71050  0.40891  Biso   1.000  C
  C41      1.0000 0.31690  0.62970  0.37459  Biso   1.000  C
  C42      1.0000 0.29580  0.79050  0.44794  Biso   1.000  C
  H18      1.0000 0.27430  0.56640  0.36180  Biso   1.000  H
  H19      1.0000 0.33610  0.65900  0.30280  Biso   1.000  H
  O19      1.0000 0.38806  0.65438  0.19647  Biso   1.000  O
  H20      1.0000 0.33630  0.70420  0.42220  Biso   1.000  H
  H21      1.0000 0.34980  0.63930  0.36230  Biso   1.000  H
  H22      1.0000 0.32490  0.61490  0.40060  Biso   1.000  H
  O20      1.0000 0.26377  0.82415  0.45964  Biso   1.000  O
  O21      1.0000 0.34053  0.78570  0.46022  Biso   1.000  O
  O22      1.0000 0.06062  0.68027  0.31126  Biso   1.000  O
  O23      1.0000 0.91887  0.69235  0.45959  Biso   1.000  O
  O24      1.0000 0.88168  0.61453  0.45912  Biso   1.000  O
  C43      1.0000 0.91330  0.64710  0.44714  Biso   1.000  C
  C44      1.0000 0.94700  0.63140  0.41321  Biso   1.000  C
  C45      1.0000 0.94680  0.58110  0.40010  Biso   1.000  C
  C46      1.0000 0.97830  0.66720  0.39494  Biso   1.000  C
  H23      1.0000 0.92470  0.55690  0.41210  Biso   1.000  H
  C47      1.0000 0.97820  0.56580  0.37000  Biso   1.000  C
  C48      1.0000 0.00830  0.65270  0.36350  Biso   1.000  C
  H24      1.0000 0.97910  0.70160  0.40400  Biso   1.000  H
  C49      1.0000 0.00800  0.60260  0.35060  Biso   1.000  C
  N4       1.0000 0.97970  0.51160  0.36040  Biso   1.000  N
  C50      1.0000 0.03920  0.69300  0.34297  Biso   1.000  C
  H25      1.0000 0.02790  0.59300  0.32850  Biso   1.000  H
  O25      1.0000 0.04258  0.73575  0.35932  Biso   1.000  O
  O26      1.0000 0.20470  0.90770  0.51480  Biso   1.000  O
  H26      1.0000 0.20210  0.93680  0.50390  Biso   1.000  H
  Cu5      1.0000 0.40023  0.76908  0.78121  Biso   1.000  Cu
  O27      1.0000 0.24558  0.03633  0.74371  Biso   1.000  O
  O28      1.0000 0.34066  0.78146  0.81539  Biso   1.000  O
  Cu6      1.0000 0.42501  0.70365  0.83657  Biso   1.000  Cu
  O29      1.0000 0.13475  0.79007  0.74319  Biso   1.000  O
  C51      1.0000 0.21420  0.00690  0.72733  Biso   1.000  C
  C52      1.0000 0.33230  0.75710  0.84648  Biso   1.000  C
  O30      1.0000 0.19243  0.01400  0.69501  Biso   1.000  O
  O31      1.0000 0.36093  0.72309  0.86085  Biso   1.000  O
  C53      1.0000 0.19870  0.95920  0.74951  Biso   1.000  C
  C54      1.0000 0.28500  0.76940  0.86888  Biso   1.000  C
  C55      1.0000 0.21040  0.95380  0.78844  Biso   1.000  C
  C56      1.0000 0.17160  0.92070  0.72986  Biso   1.000  C
  C57      1.0000 0.25650  0.81300  0.86001  Biso   1.000  C
  C58      1.0000 0.26890  0.73680  0.89857  Biso   1.000  C
  C59      1.0000 0.19560  0.91130  0.80927  Biso   1.000  C
  H27      1.0000 0.22910  0.98010  0.80130  Biso   1.000  H
  H28      1.0000 0.16180  0.92500  0.70330  Biso   1.000  H
  C60      1.0000 0.15930  0.87630  0.74980  Biso   1.000  C
  H29      1.0000 0.26750  0.83540  0.83980  Biso   1.000  H
  C61      1.0000 0.21200  0.82370  0.88094  Biso   1.000  C
  C62      1.0000 0.22330  0.74580  0.91780  Biso   1.000  C
  H30      1.0000 0.28940  0.70830  0.90570  Biso   1.000  H
  N5       1.0000 0.20590  0.91030  0.85102  Biso   1.000  N
  C63      1.0000 0.17180  0.87180  0.78932  Biso   1.000  C
  C64      1.0000 0.13360  0.83380  0.72785  Biso   1.000  C
  C65      1.0000 0.19500  0.78950  0.90891  Biso   1.000  C
  C66      1.0000 0.18310  0.87030  0.87459  Biso   1.000  C
  C67      1.0000 0.20420  0.70950  0.94794  Biso   1.000  C
  H31      1.0000 0.22570  0.93360  0.86180  Biso   1.000  H
  H32      1.0000 0.16390  0.84100  0.80280  Biso   1.000  H
  O32      1.0000 0.11194  0.84562  0.69647  Biso   1.000  O
  H33      1.0000 0.16370  0.79580  0.92220  Biso   1.000  H
  H34      1.0000 0.15020  0.86070  0.86230  Biso   1.000  H
  H35      1.0000 0.17510  0.88510  0.90060  Biso   1.000  H
  O33      1.0000 0.23623  0.67585  0.95964  Biso   1.000  O
  O34      1.0000 0.15947  0.71430  0.96022  Biso   1.000  O
  O35      1.0000 0.43938  0.81973  0.81126  Biso   1.000  O
  O36      1.0000 0.58113  0.80765  0.95959  Biso   1.000  O
  O37      1.0000 0.61832  0.88547  0.95912  Biso   1.000  O
  C68      1.0000 0.58670  0.85290  0.94714  Biso   1.000  C
  C69      1.0000 0.55300  0.86860  0.91321  Biso   1.000  C
  C70      1.0000 0.55320  0.91890  0.90010  Biso   1.000  C
  C71      1.0000 0.52170  0.83280  0.89494  Biso   1.000  C
  H36      1.0000 0.57530  0.94310  0.91210  Biso   1.000  H
  C72      1.0000 0.52180  0.93420  0.87000  Biso   1.000  C
  C73      1.0000 0.49170  0.84730  0.86350  Biso   1.000  C
  H37      1.0000 0.52090  0.79840  0.90400  Biso   1.000  H
  C74      1.0000 0.49200  0.89740  0.85060  Biso   1.000  C
  N6       1.0000 0.52030  0.98840  0.86040  Biso   1.000  N
  C75      1.0000 0.46080  0.80700  0.84297  Biso   1.000  C
  H38      1.0000 0.47210  0.90700  0.82850  Biso   1.000  H
  O38      1.0000 0.45742  0.76425  0.85932  Biso   1.000  O
  O39      1.0000 0.29530  0.59230  0.01480  Biso   1.000  O
  H39      1.0000 0.29790  0.56320  0.00390  Biso   1.000  H
  Cu7      1.0000 0.90023  0.26908  0.28121  Biso   1.000  Cu
  O40      1.0000 0.74558  0.53633  0.24371  Biso   1.000  O
  O41      1.0000 0.84066  0.28146  0.31539  Biso   1.000  O
  Cu8      1.0000 0.92501  0.20365  0.33657  Biso   1.000  Cu
  O42      1.0000 0.63475  0.29007  0.24319  Biso   1.000  O
  C76      1.0000 0.71420  0.50690  0.22733  Biso   1.000  C
  C77      1.0000 0.83230  0.25710  0.34648  Biso   1.000  C
  O43      1.0000 0.69243  0.51400  0.19501  Biso   1.000  O
  O44      1.0000 0.86093  0.22309  0.36085  Biso   1.000  O
  C78      1.0000 0.69870  0.45920  0.24951  Biso   1.000  C
  C79      1.0000 0.78500  0.26940  0.36888  Biso   1.000  C
  C80      1.0000 0.71040  0.45380  0.28844  Biso   1.000  C
  C81      1.0000 0.67160  0.42070  0.22986  Biso   1.000  C
  C82      1.0000 0.75650  0.31300  0.36001  Biso   1.000  C
  C83      1.0000 0.76890  0.23680  0.39857  Biso   1.000  C
  C84      1.0000 0.69560  0.41130  0.30927  Biso   1.000  C
  H40      1.0000 0.72910  0.48010  0.30130  Biso   1.000  H
  H41      1.0000 0.66180  0.42500  0.20330  Biso   1.000  H
  C85      1.0000 0.65930  0.37630  0.24980  Biso   1.000  C
  H42      1.0000 0.76750  0.33540  0.33980  Biso   1.000  H
  C86      1.0000 0.71200  0.32370  0.38094  Biso   1.000  C
  C87      1.0000 0.72330  0.24580  0.41780  Biso   1.000  C
  H43      1.0000 0.78940  0.20830  0.40570  Biso   1.000  H
  N7       1.0000 0.70590  0.41030  0.35102  Biso   1.000  N
  C88      1.0000 0.67180  0.37180  0.28932  Biso   1.000  C
  C89      1.0000 0.63360  0.33380  0.22785  Biso   1.000  C
  C90      1.0000 0.69500  0.28950  0.40891  Biso   1.000  C
  C91      1.0000 0.68310  0.37030  0.37459  Biso   1.000  C
  C92      1.0000 0.70420  0.20950  0.44794  Biso   1.000  C
  H44      1.0000 0.72570  0.43360  0.36180  Biso   1.000  H
  H45      1.0000 0.66390  0.34100  0.30280  Biso   1.000  H
  O45      1.0000 0.61194  0.34562  0.19647  Biso   1.000  O
  H46      1.0000 0.66370  0.29580  0.42220  Biso   1.000  H
  H47      1.0000 0.65020  0.36070  0.36230  Biso   1.000  H
  H48      1.0000 0.67510  0.38510  0.40060  Biso   1.000  H
  O46      1.0000 0.73623  0.17585  0.45964  Biso   1.000  O
  O47      1.0000 0.65947  0.21430  0.46022  Biso   1.000  O
  O48      1.0000 0.93938  0.31973  0.31126  Biso   1.000  O
  O49      1.0000 0.08113  0.30765  0.45959  Biso   1.000  O
  O50      1.0000 0.11832  0.38547  0.45912  Biso   1.000  O
  C93      1.0000 0.08670  0.35290  0.44714  Biso   1.000  C
  C94      1.0000 0.05300  0.36860  0.41321  Biso   1.000  C
  C95      1.0000 0.05320  0.41890  0.40010  Biso   1.000  C
  C96      1.0000 0.02170  0.33280  0.39494  Biso   1.000  C
  H49      1.0000 0.07530  0.44310  0.41210  Biso   1.000  H
  C97      1.0000 0.02180  0.43420  0.37000  Biso   1.000  C
  C98      1.0000 0.99170  0.34730  0.36350  Biso   1.000  C
  H50      1.0000 0.02090  0.29840  0.40400  Biso   1.000  H
  C99      1.0000 0.99200  0.39740  0.35060  Biso   1.000  C
  N8       1.0000 0.02030  0.48840  0.36040  Biso   1.000  N
  C100     1.0000 0.96080  0.30700  0.34297  Biso   1.000  C
  H51      1.0000 0.97210  0.40700  0.32850  Biso   1.000  H
  O51      1.0000 0.95742  0.26425  0.35932  Biso   1.000  O
  O52      1.0000 0.79530  0.09230  0.51480  Biso   1.000  O
  H52      1.0000 0.79790  0.06320  0.50390  Biso   1.000  H
  Cu9      1.0000 0.76908  0.59977  0.78121  Biso   1.000  Cu
  O53      1.0000 0.03633  0.75442  0.74371  Biso   1.000  O
  O54      1.0000 0.78146  0.65934  0.81539  Biso   1.000  O
  Cu10     1.0000 0.70365  0.57499  0.83657  Biso   1.000  Cu
  O55      1.0000 0.79007  0.86525  0.74319  Biso   1.000  O
  C101     1.0000 0.00690  0.78580  0.72733  Biso   1.000  C
  C102     1.0000 0.75710  0.66770  0.84648  Biso   1.000  C
  O56      1.0000 0.01400  0.80757  0.69501  Biso   1.000  O
  O57      1.0000 0.72309  0.63907  0.86085  Biso   1.000  O
  C103     1.0000 0.95920  0.80130  0.74951  Biso   1.000  C
  C104     1.0000 0.76940  0.71500  0.86888  Biso   1.000  C
  C105     1.0000 0.95380  0.78960  0.78844  Biso   1.000  C
  C106     1.0000 0.92070  0.82840  0.72986  Biso   1.000  C
  C107     1.0000 0.81300  0.74350  0.86001  Biso   1.000  C
  C108     1.0000 0.73680  0.73110  0.89857  Biso   1.000  C
  C109     1.0000 0.91130  0.80440  0.80927  Biso   1.000  C
  H53      1.0000 0.98010  0.77090  0.80130  Biso   1.000  H
  H54      1.0000 0.92500  0.83820  0.70330  Biso   1.000  H
  C110     1.0000 0.87630  0.84070  0.74980  Biso   1.000  C
  H55      1.0000 0.83540  0.73250  0.83980  Biso   1.000  H
  C111     1.0000 0.82370  0.78800  0.88094  Biso   1.000  C
  C112     1.0000 0.74580  0.77670  0.91780  Biso   1.000  C
  H56      1.0000 0.70830  0.71060  0.90570  Biso   1.000  H
  N9       1.0000 0.91030  0.79410  0.85102  Biso   1.000  N
  C113     1.0000 0.87180  0.82820  0.78932  Biso   1.000  C
  C114     1.0000 0.83380  0.86640  0.72785  Biso   1.000  C
  C115     1.0000 0.78950  0.80500  0.90891  Biso   1.000  C
  C116     1.0000 0.87030  0.81690  0.87459  Biso   1.000  C
  C117     1.0000 0.70950  0.79580  0.94794  Biso   1.000  C
  H57      1.0000 0.93360  0.77430  0.86180  Biso   1.000  H
  H58      1.0000 0.84100  0.83610  0.80280  Biso   1.000  H
  O58      1.0000 0.84562  0.88806  0.69647  Biso   1.000  O
  H59      1.0000 0.79580  0.83630  0.92220  Biso   1.000  H
  H60      1.0000 0.86070  0.84980  0.86230  Biso   1.000  H
  H61      1.0000 0.88510  0.82490  0.90060  Biso   1.000  H
  O59      1.0000 0.67585  0.76377  0.95964  Biso   1.000  O
  O60      1.0000 0.71430  0.84053  0.96022  Biso   1.000  O
  O61      1.0000 0.81973  0.56062  0.81126  Biso   1.000  O
  O62      1.0000 0.80765  0.41887  0.95959  Biso   1.000  O
  O63      1.0000 0.88547  0.38168  0.95912  Biso   1.000  O
  C118     1.0000 0.85290  0.41330  0.94714  Biso   1.000  C
  C119     1.0000 0.86860  0.44700  0.91321  Biso   1.000  C
  C120     1.0000 0.91890  0.44680  0.90010  Biso   1.000  C
  C121     1.0000 0.83280  0.47830  0.89494  Biso   1.000  C
  H62      1.0000 0.94310  0.42470  0.91210  Biso   1.000  H
  C122     1.0000 0.93420  0.47820  0.87000  Biso   1.000  C
  C123     1.0000 0.84730  0.50830  0.86350  Biso   1.000  C
  H63      1.0000 0.79840  0.47910  0.90400  Biso   1.000  H
  C124     1.0000 0.89740  0.50800  0.85060  Biso   1.000  C
  N10      1.0000 0.98840  0.47970  0.86040  Biso   1.000  N
  C125     1.0000 0.80700  0.53920  0.84297  Biso   1.000  C
  H64      1.0000 0.90700  0.52790  0.82850  Biso   1.000  H
  O64      1.0000 0.76425  0.54258  0.85932  Biso   1.000  O
  O65      1.0000 0.59230  0.70470  0.01480  Biso   1.000  O
  H65      1.0000 0.56320  0.70210  0.00390  Biso   1.000  H
  Cu11     1.0000 0.26908  0.09977  0.28121  Biso   1.000  Cu
  O66      1.0000 0.53633  0.25442  0.24371  Biso   1.000  O
  O67      1.0000 0.28146  0.15934  0.31539  Biso   1.000  O
  Cu12     1.0000 0.20365  0.07499  0.33657  Biso   1.000  Cu
  O68      1.0000 0.29007  0.36525  0.24319  Biso   1.000  O
  C126     1.0000 0.50690  0.28580  0.22733  Biso   1.000  C
  C127     1.0000 0.25710  0.16770  0.34648  Biso   1.000  C
  O69      1.0000 0.51400  0.30757  0.19501  Biso   1.000  O
  O70      1.0000 0.22309  0.13907  0.36085  Biso   1.000  O
  C128     1.0000 0.45920  0.30130  0.24951  Biso   1.000  C
  C129     1.0000 0.26940  0.21500  0.36888  Biso   1.000  C
  C130     1.0000 0.45380  0.28960  0.28844  Biso   1.000  C
  C131     1.0000 0.42070  0.32840  0.22986  Biso   1.000  C
  C132     1.0000 0.31300  0.24350  0.36001  Biso   1.000  C
  C133     1.0000 0.23680  0.23110  0.39857  Biso   1.000  C
  C134     1.0000 0.41130  0.30440  0.30927  Biso   1.000  C
  H66      1.0000 0.48010  0.27090  0.30130  Biso   1.000  H
  H67      1.0000 0.42500  0.33820  0.20330  Biso   1.000  H
  C135     1.0000 0.37630  0.34070  0.24980  Biso   1.000  C
  H68      1.0000 0.33540  0.23250  0.33980  Biso   1.000  H
  C136     1.0000 0.32370  0.28800  0.38094  Biso   1.000  C
  C137     1.0000 0.24580  0.27670  0.41780  Biso   1.000  C
  H69      1.0000 0.20830  0.21060  0.40570  Biso   1.000  H
  N11      1.0000 0.41030  0.29410  0.35102  Biso   1.000  N
  C138     1.0000 0.37180  0.32820  0.28932  Biso   1.000  C
  C139     1.0000 0.33380  0.36640  0.22785  Biso   1.000  C
  C140     1.0000 0.28950  0.30500  0.40891  Biso   1.000  C
  C141     1.0000 0.37030  0.31690  0.37459  Biso   1.000  C
  C142     1.0000 0.20950  0.29580  0.44794  Biso   1.000  C
  H70      1.0000 0.43360  0.27430  0.36180  Biso   1.000  H
  H71      1.0000 0.34100  0.33610  0.30280  Biso   1.000  H
  O71      1.0000 0.34562  0.38806  0.19647  Biso   1.000  O
  H72      1.0000 0.29580  0.33630  0.42220  Biso   1.000  H
  H73      1.0000 0.36070  0.34980  0.36230  Biso   1.000  H
  H74      1.0000 0.38510  0.32490  0.40060  Biso   1.000  H
  O72      1.0000 0.17585  0.26377  0.45964  Biso   1.000  O
  O73      1.0000 0.21430  0.34053  0.46022  Biso   1.000  O
  O74      1.0000 0.31973  0.06062  0.31126  Biso   1.000  O
  O75      1.0000 0.30765  0.91887  0.45959  Biso   1.000  O
  O76      1.0000 0.38547  0.88168  0.45912  Biso   1.000  O
  C143     1.0000 0.35290  0.91330  0.44714  Biso   1.000  C
  C144     1.0000 0.36860  0.94700  0.41321  Biso   1.000  C
  C145     1.0000 0.41890  0.94680  0.40010  Biso   1.000  C
  C146     1.0000 0.33280  0.97830  0.39494  Biso   1.000  C
  H75      1.0000 0.44310  0.92470  0.41210  Biso   1.000  H
  C147     1.0000 0.43420  0.97820  0.37000  Biso   1.000  C
  C148     1.0000 0.34730  0.00830  0.36350  Biso   1.000  C
  H76      1.0000 0.29840  0.97910  0.40400  Biso   1.000  H
  C149     1.0000 0.39740  0.00800  0.35060  Biso   1.000  C
  N12      1.0000 0.48840  0.97970  0.36040  Biso   1.000  N
  C150     1.0000 0.30700  0.03920  0.34297  Biso   1.000  C
  H77      1.0000 0.40700  0.02790  0.32850  Biso   1.000  H
  O77      1.0000 0.26425  0.04258  0.35932  Biso   1.000  O
  O78      1.0000 0.09230  0.20470  0.51480  Biso   1.000  O
  H78      1.0000 0.06320  0.20210  0.50390  Biso   1.000  H
  Cu13     1.0000 0.23092  0.40023  0.78121  Biso   1.000  Cu
  O79      1.0000 0.96367  0.24558  0.74371  Biso   1.000  O
  O80      1.0000 0.21854  0.34066  0.81539  Biso   1.000  O
  Cu14     1.0000 0.29635  0.42501  0.83657  Biso   1.000  Cu
  O81      1.0000 0.20993  0.13475  0.74319  Biso   1.000  O
  C151     1.0000 0.99310  0.21420  0.72733  Biso   1.000  C
  C152     1.0000 0.24290  0.33230  0.84648  Biso   1.000  C
  O82      1.0000 0.98600  0.19243  0.69501  Biso   1.000  O
  O83      1.0000 0.27691  0.36093  0.86085  Biso   1.000  O
  C153     1.0000 0.04080  0.19870  0.74951  Biso   1.000  C
  C154     1.0000 0.23060  0.28500  0.86888  Biso   1.000  C
  C155     1.0000 0.04620  0.21040  0.78844  Biso   1.000  C
  C156     1.0000 0.07930  0.17160  0.72986  Biso   1.000  C
  C157     1.0000 0.18700  0.25650  0.86001  Biso   1.000  C
  C158     1.0000 0.26320  0.26890  0.89857  Biso   1.000  C
  C159     1.0000 0.08870  0.19560  0.80927  Biso   1.000  C
  H79      1.0000 0.01990  0.22910  0.80130  Biso   1.000  H
  H80      1.0000 0.07500  0.16180  0.70330  Biso   1.000  H
  C160     1.0000 0.12370  0.15930  0.74980  Biso   1.000  C
  H81      1.0000 0.16460  0.26750  0.83980  Biso   1.000  H
  C161     1.0000 0.17630  0.21200  0.88094  Biso   1.000  C
  C162     1.0000 0.25420  0.22330  0.91780  Biso   1.000  C
  H82      1.0000 0.29170  0.28940  0.90570  Biso   1.000  H
  N13      1.0000 0.08970  0.20590  0.85102  Biso   1.000  N
  C163     1.0000 0.12820  0.17180  0.78932  Biso   1.000  C
  C164     1.0000 0.16620  0.13360  0.72785  Biso   1.000  C
  C165     1.0000 0.21050  0.19500  0.90891  Biso   1.000  C
  C166     1.0000 0.12970  0.18310  0.87459  Biso   1.000  C
  C167     1.0000 0.29050  0.20420  0.94794  Biso   1.000  C
  H83      1.0000 0.06640  0.22570  0.86180  Biso   1.000  H
  H84      1.0000 0.15900  0.16390  0.80280  Biso   1.000  H
  O84      1.0000 0.15438  0.11194  0.69647  Biso   1.000  O
  H85      1.0000 0.20420  0.16370  0.92220  Biso   1.000  H
  H86      1.0000 0.13930  0.15020  0.86230  Biso   1.000  H
  H87      1.0000 0.11490  0.17510  0.90060  Biso   1.000  H
  O85      1.0000 0.32415  0.23623  0.95964  Biso   1.000  O
  O86      1.0000 0.28570  0.15947  0.96022  Biso   1.000  O
  O87      1.0000 0.18027  0.43938  0.81126  Biso   1.000  O
  O88      1.0000 0.19235  0.58113  0.95959  Biso   1.000  O
  O89      1.0000 0.11453  0.61832  0.95912  Biso   1.000  O
  C168     1.0000 0.14710  0.58670  0.94714  Biso   1.000  C
  C169     1.0000 0.13140  0.55300  0.91321  Biso   1.000  C
  C170     1.0000 0.08110  0.55320  0.90010  Biso   1.000  C
  C171     1.0000 0.16720  0.52170  0.89494  Biso   1.000  C
  H88      1.0000 0.05690  0.57530  0.91210  Biso   1.000  H
  C172     1.0000 0.06580  0.52180  0.87000  Biso   1.000  C
  C173     1.0000 0.15270  0.49170  0.86350  Biso   1.000  C
  H89      1.0000 0.20160  0.52090  0.90400  Biso   1.000  H
  C174     1.0000 0.10260  0.49200  0.85060  Biso   1.000  C
  N14      1.0000 0.01160  0.52030  0.86040  Biso   1.000  N
  C175     1.0000 0.19300  0.46080  0.84297  Biso   1.000  C
  H90      1.0000 0.09300  0.47210  0.82850  Biso   1.000  H
  O90      1.0000 0.23575  0.45742  0.85932  Biso   1.000  O
  O91      1.0000 0.40770  0.29530  0.01480  Biso   1.000  O
  H91      1.0000 0.43680  0.29790  0.00390  Biso   1.000  H
  Cu15     1.0000 0.73092  0.90023  0.28121  Biso   1.000  Cu
  O92      1.0000 0.46367  0.74558  0.24371  Biso   1.000  O
  O93      1.0000 0.71854  0.84066  0.31539  Biso   1.000  O
  Cu16     1.0000 0.79635  0.92501  0.33657  Biso   1.000  Cu
  O94      1.0000 0.70993  0.63475  0.24319  Biso   1.000  O
  C176     1.0000 0.49310  0.71420  0.22733  Biso   1.000  C
  C177     1.0000 0.74290  0.83230  0.34648  Biso   1.000  C
  O95      1.0000 0.48600  0.69243  0.19501  Biso   1.000  O
  O96      1.0000 0.77691  0.86093  0.36085  Biso   1.000  O
  C178     1.0000 0.54080  0.69870  0.24951  Biso   1.000  C
  C179     1.0000 0.73060  0.78500  0.36888  Biso   1.000  C
  C180     1.0000 0.54620  0.71040  0.28844  Biso   1.000  C
  C181     1.0000 0.57930  0.67160  0.22986  Biso   1.000  C
  C182     1.0000 0.68700  0.75650  0.36001  Biso   1.000  C
  C183     1.0000 0.76320  0.76890  0.39857  Biso   1.000  C
  C184     1.0000 0.58870  0.69560  0.30927  Biso   1.000  C
  H92      1.0000 0.51990  0.72910  0.30130  Biso   1.000  H
  H93      1.0000 0.57500  0.66180  0.20330  Biso   1.000  H
  C185     1.0000 0.62370  0.65930  0.24980  Biso   1.000  C
  H94      1.0000 0.66460  0.76750  0.33980  Biso   1.000  H
  C186     1.0000 0.67630  0.71200  0.38094  Biso   1.000  C
  C187     1.0000 0.75420  0.72330  0.41780  Biso   1.000  C
  H95      1.0000 0.79170  0.78940  0.40570  Biso   1.000  H
  N15      1.0000 0.58970  0.70590  0.35102  Biso   1.000  N
  C188     1.0000 0.62820  0.67180  0.28932  Biso   1.000  C
  C189     1.0000 0.66620  0.63360  0.22785  Biso   1.000  C
  C190     1.0000 0.71050  0.69500  0.40891  Biso   1.000  C
  C191     1.0000 0.62970  0.68310  0.37459  Biso   1.000  C
  C192     1.0000 0.79050  0.70420  0.44794  Biso   1.000  C
  H96      1.0000 0.56640  0.72570  0.36180  Biso   1.000  H
  H97      1.0000 0.65900  0.66390  0.30280  Biso   1.000  H
  O97      1.0000 0.65438  0.61194  0.19647  Biso   1.000  O
  H98      1.0000 0.70420  0.66370  0.42220  Biso   1.000  H
  H99      1.0000 0.63930  0.65020  0.36230  Biso   1.000  H
  H100     1.0000 0.61490  0.67510  0.40060  Biso   1.000  H
  O98      1.0000 0.82415  0.73623  0.45964  Biso   1.000  O
  O99      1.0000 0.78570  0.65947  0.46022  Biso   1.000  O
  O100     1.0000 0.68027  0.93938  0.31126  Biso   1.000  O
  O101     1.0000 0.69235  0.08113  0.45959  Biso   1.000  O
  O102     1.0000 0.61453  0.11832  0.45912  Biso   1.000  O
  C193     1.0000 0.64710  0.08670  0.44714  Biso   1.000  C
  C194     1.0000 0.63140  0.05300  0.41321  Biso   1.000  C
  C195     1.0000 0.58110  0.05320  0.40010  Biso   1.000  C
  C196     1.0000 0.66720  0.02170  0.39494  Biso   1.000  C
  H101     1.0000 0.55690  0.07530  0.41210  Biso   1.000  H
  C197     1.0000 0.56580  0.02180  0.37000  Biso   1.000  C
  C198     1.0000 0.65270  0.99170  0.36350  Biso   1.000  C
  H102     1.0000 0.70160  0.02090  0.40400  Biso   1.000  H
  C199     1.0000 0.60260  0.99200  0.35060  Biso   1.000  C
  N16      1.0000 0.51160  0.02030  0.36040  Biso   1.000  N
  C200     1.0000 0.69300  0.96080  0.34297  Biso   1.000  C
  H103     1.0000 0.59300  0.97210  0.32850  Biso   1.000  H
  O103     1.0000 0.73575  0.95742  0.35932  Biso   1.000  O
  O104     1.0000 0.90770  0.79530  0.51480  Biso   1.000  O
  H104     1.0000 0.93680  0.79790  0.50390  Biso   1.000  H
  Cu17     1.0000 0.40023  0.76908  0.21879  Biso   1.000  Cu
  O105     1.0000 0.24558  0.03633  0.25629  Biso   1.000  O
  O106     1.0000 0.34066  0.78146  0.18461  Biso   1.000  O
  Cu18     1.0000 0.42501  0.70365  0.16343  Biso   1.000  Cu
  O107     1.0000 0.13475  0.79007  0.25681  Biso   1.000  O
  C201     1.0000 0.21420  0.00690  0.27267  Biso   1.000  C
  C202     1.0000 0.33230  0.75710  0.15352  Biso   1.000  C
  O108     1.0000 0.19243  0.01400  0.30499  Biso   1.000  O
  O109     1.0000 0.36093  0.72309  0.13915  Biso   1.000  O
  C203     1.0000 0.19870  0.95920  0.25049  Biso   1.000  C
  C204     1.0000 0.28500  0.76940  0.13112  Biso   1.000  C
  C205     1.0000 0.21040  0.95380  0.21156  Biso   1.000  C
  C206     1.0000 0.17160  0.92070  0.27014  Biso   1.000  C
  C207     1.0000 0.25650  0.81300  0.13999  Biso   1.000  C
  C208     1.0000 0.26890  0.73680  0.10143  Biso   1.000  C
  C209     1.0000 0.19560  0.91130  0.19073  Biso   1.000  C
  H105     1.0000 0.22910  0.98010  0.19870  Biso   1.000  H
  H106     1.0000 0.16180  0.92500  0.29670  Biso   1.000  H
  C210     1.0000 0.15930  0.87630  0.25020  Biso   1.000  C
  H107     1.0000 0.26750  0.83540  0.16020  Biso   1.000  H
  C211     1.0000 0.21200  0.82370  0.11906  Biso   1.000  C
  C212     1.0000 0.22330  0.74580  0.08220  Biso   1.000  C
  H108     1.0000 0.28940  0.70830  0.09430  Biso   1.000  H
  N17      1.0000 0.20590  0.91030  0.14898  Biso   1.000  N
  C213     1.0000 0.17180  0.87180  0.21068  Biso   1.000  C
  C214     1.0000 0.13360  0.83380  0.27215  Biso   1.000  C
  C215     1.0000 0.19500  0.78950  0.09109  Biso   1.000  C
  C216     1.0000 0.18310  0.87030  0.12541  Biso   1.000  C
  C217     1.0000 0.20420  0.70950  0.05206  Biso   1.000  C
  H109     1.0000 0.22570  0.93360  0.13820  Biso   1.000  H
  H110     1.0000 0.16390  0.84100  0.19720  Biso   1.000  H
  O110     1.0000 0.11194  0.84562  0.30353  Biso   1.000  O
  H111     1.0000 0.16370  0.79580  0.07780  Biso   1.000  H
  H112     1.0000 0.15020  0.86070  0.13770  Biso   1.000  H
  H113     1.0000 0.17510  0.88510  0.09940  Biso   1.000  H
  O111     1.0000 0.23623  0.67585  0.04036  Biso   1.000  O
  O112     1.0000 0.15947  0.71430  0.03978  Biso   1.000  O
  O113     1.0000 0.43938  0.81973  0.18874  Biso   1.000  O
  O114     1.0000 0.58113  0.80765  0.04041  Biso   1.000  O
  O115     1.0000 0.61832  0.88547  0.04088  Biso   1.000  O
  C218     1.0000 0.58670  0.85290  0.05286  Biso   1.000  C
  C219     1.0000 0.55300  0.86860  0.08679  Biso   1.000  C
  C220     1.0000 0.55320  0.91890  0.09990  Biso   1.000  C
  C221     1.0000 0.52170  0.83280  0.10506  Biso   1.000  C
  H114     1.0000 0.57530  0.94310  0.08790  Biso   1.000  H
  C222     1.0000 0.52180  0.93420  0.13000  Biso   1.000  C
  C223     1.0000 0.49170  0.84730  0.13650  Biso   1.000  C
  H115     1.0000 0.52090  0.79840  0.09600  Biso   1.000  H
  C224     1.0000 0.49200  0.89740  0.14940  Biso   1.000  C
  N18      1.0000 0.52030  0.98840  0.13960  Biso   1.000  N
  C225     1.0000 0.46080  0.80700  0.15703  Biso   1.000  C
  H116     1.0000 0.47210  0.90700  0.17150  Biso   1.000  H
  O116     1.0000 0.45742  0.76425  0.14068  Biso   1.000  O
  O117     1.0000 0.29530  0.59230  0.98520  Biso   1.000  O
  H117     1.0000 0.29790  0.56320  0.99610  Biso   1.000  H
  Cu19     1.0000 0.90023  0.26908  0.71879  Biso   1.000  Cu
  O118     1.0000 0.74558  0.53633  0.75629  Biso   1.000  O
  O119     1.0000 0.84066  0.28146  0.68461  Biso   1.000  O
  Cu20     1.0000 0.92501  0.20365  0.66343  Biso   1.000  Cu
  O120     1.0000 0.63475  0.29007  0.75681  Biso   1.000  O
  C226     1.0000 0.71420  0.50690  0.77267  Biso   1.000  C
  C227     1.0000 0.83230  0.25710  0.65352  Biso   1.000  C
  O121     1.0000 0.69243  0.51400  0.80499  Biso   1.000  O
  O122     1.0000 0.86093  0.22309  0.63915  Biso   1.000  O
  C228     1.0000 0.69870  0.45920  0.75049  Biso   1.000  C
  C229     1.0000 0.78500  0.26940  0.63112  Biso   1.000  C
  C230     1.0000 0.71040  0.45380  0.71156  Biso   1.000  C
  C231     1.0000 0.67160  0.42070  0.77014  Biso   1.000  C
  C232     1.0000 0.75650  0.31300  0.63999  Biso   1.000  C
  C233     1.0000 0.76890  0.23680  0.60143  Biso   1.000  C
  C234     1.0000 0.69560  0.41130  0.69073  Biso   1.000  C
  H118     1.0000 0.72910  0.48010  0.69870  Biso   1.000  H
  H119     1.0000 0.66180  0.42500  0.79670  Biso   1.000  H
  C235     1.0000 0.65930  0.37630  0.75020  Biso   1.000  C
  H120     1.0000 0.76750  0.33540  0.66020  Biso   1.000  H
  C236     1.0000 0.71200  0.32370  0.61906  Biso   1.000  C
  C237     1.0000 0.72330  0.24580  0.58220  Biso   1.000  C
  H121     1.0000 0.78940  0.20830  0.59430  Biso   1.000  H
  N19      1.0000 0.70590  0.41030  0.64898  Biso   1.000  N
  C238     1.0000 0.67180  0.37180  0.71068  Biso   1.000  C
  C239     1.0000 0.63360  0.33380  0.77215  Biso   1.000  C
  C240     1.0000 0.69500  0.28950  0.59109  Biso   1.000  C
  C241     1.0000 0.68310  0.37030  0.62541  Biso   1.000  C
  C242     1.0000 0.70420  0.20950  0.55206  Biso   1.000  C
  H122     1.0000 0.72570  0.43360  0.63820  Biso   1.000  H
  H123     1.0000 0.66390  0.34100  0.69720  Biso   1.000  H
  O123     1.0000 0.61194  0.34562  0.80353  Biso   1.000  O
  H124     1.0000 0.66370  0.29580  0.57780  Biso   1.000  H
  H125     1.0000 0.65020  0.36070  0.63770  Biso   1.000  H
  H126     1.0000 0.67510  0.38510  0.59940  Biso   1.000  H
  O124     1.0000 0.73623  0.17585  0.54036  Biso   1.000  O
  O125     1.0000 0.65947  0.21430  0.53978  Biso   1.000  O
  O126     1.0000 0.93938  0.31973  0.68874  Biso   1.000  O
  O127     1.0000 0.08113  0.30765  0.54041  Biso   1.000  O
  O128     1.0000 0.11832  0.38547  0.54088  Biso   1.000  O
  C243     1.0000 0.08670  0.35290  0.55286  Biso   1.000  C
  C244     1.0000 0.05300  0.36860  0.58679  Biso   1.000  C
  C245     1.0000 0.05320  0.41890  0.59990  Biso   1.000  C
  C246     1.0000 0.02170  0.33280  0.60506  Biso   1.000  C
  H127     1.0000 0.07530  0.44310  0.58790  Biso   1.000  H
  C247     1.0000 0.02180  0.43420  0.63000  Biso   1.000  C
  C248     1.0000 0.99170  0.34730  0.63650  Biso   1.000  C
  H128     1.0000 0.02090  0.29840  0.59600  Biso   1.000  H
  C249     1.0000 0.99200  0.39740  0.64940  Biso   1.000  C
  N20      1.0000 0.02030  0.48840  0.63960  Biso   1.000  N
  C250     1.0000 0.96080  0.30700  0.65703  Biso   1.000  C
  H129     1.0000 0.97210  0.40700  0.67150  Biso   1.000  H
  O129     1.0000 0.95742  0.26425  0.64068  Biso   1.000  O
  O130     1.0000 0.79530  0.09230  0.48520  Biso   1.000  O
  H130     1.0000 0.79790  0.06320  0.49610  Biso   1.000  H
  Cu21     1.0000 0.59977  0.23092  0.21879  Biso   1.000  Cu
  O131     1.0000 0.75442  0.96367  0.25629  Biso   1.000  O
  O132     1.0000 0.65934  0.21854  0.18461  Biso   1.000  O
  Cu22     1.0000 0.57499  0.29635  0.16343  Biso   1.000  Cu
  O133     1.0000 0.86525  0.20993  0.25681  Biso   1.000  O
  C251     1.0000 0.78580  0.99310  0.27267  Biso   1.000  C
  C252     1.0000 0.66770  0.24290  0.15352  Biso   1.000  C
  O134     1.0000 0.80757  0.98600  0.30499  Biso   1.000  O
  O135     1.0000 0.63907  0.27691  0.13915  Biso   1.000  O
  C253     1.0000 0.80130  0.04080  0.25049  Biso   1.000  C
  C254     1.0000 0.71500  0.23060  0.13112  Biso   1.000  C
  C255     1.0000 0.78960  0.04620  0.21156  Biso   1.000  C
  C256     1.0000 0.82840  0.07930  0.27014  Biso   1.000  C
  C257     1.0000 0.74350  0.18700  0.13999  Biso   1.000  C
  C258     1.0000 0.73110  0.26320  0.10143  Biso   1.000  C
  C259     1.0000 0.80440  0.08870  0.19073  Biso   1.000  C
  H131     1.0000 0.77090  0.01990  0.19870  Biso   1.000  H
  H132     1.0000 0.83820  0.07500  0.29670  Biso   1.000  H
  C260     1.0000 0.84070  0.12370  0.25020  Biso   1.000  C
  H133     1.0000 0.73250  0.16460  0.16020  Biso   1.000  H
  C261     1.0000 0.78800  0.17630  0.11906  Biso   1.000  C
  C262     1.0000 0.77670  0.25420  0.08220  Biso   1.000  C
  H134     1.0000 0.71060  0.29170  0.09430  Biso   1.000  H
  N21      1.0000 0.79410  0.08970  0.14898  Biso   1.000  N
  C263     1.0000 0.82820  0.12820  0.21068  Biso   1.000  C
  C264     1.0000 0.86640  0.16620  0.27215  Biso   1.000  C
  C265     1.0000 0.80500  0.21050  0.09109  Biso   1.000  C
  C266     1.0000 0.81690  0.12970  0.12541  Biso   1.000  C
  C267     1.0000 0.79580  0.29050  0.05206  Biso   1.000  C
  H135     1.0000 0.77430  0.06640  0.13820  Biso   1.000  H
  H136     1.0000 0.83610  0.15900  0.19720  Biso   1.000  H
  O136     1.0000 0.88806  0.15438  0.30353  Biso   1.000  O
  H137     1.0000 0.83630  0.20420  0.07780  Biso   1.000  H
  H138     1.0000 0.84980  0.13930  0.13770  Biso   1.000  H
  H139     1.0000 0.82490  0.11490  0.09940  Biso   1.000  H
  O137     1.0000 0.76377  0.32415  0.04036  Biso   1.000  O
  O138     1.0000 0.84053  0.28570  0.03978  Biso   1.000  O
  O139     1.0000 0.56062  0.18027  0.18874  Biso   1.000  O
  O140     1.0000 0.41887  0.19235  0.04041  Biso   1.000  O
  O141     1.0000 0.38168  0.11453  0.04088  Biso   1.000  O
  C268     1.0000 0.41330  0.14710  0.05286  Biso   1.000  C
  C269     1.0000 0.44700  0.13140  0.08679  Biso   1.000  C
  C270     1.0000 0.44680  0.08110  0.09990  Biso   1.000  C
  C271     1.0000 0.47830  0.16720  0.10506  Biso   1.000  C
  H140     1.0000 0.42470  0.05690  0.08790  Biso   1.000  H
  C272     1.0000 0.47820  0.06580  0.13000  Biso   1.000  C
  C273     1.0000 0.50830  0.15270  0.13650  Biso   1.000  C
  H141     1.0000 0.47910  0.20160  0.09600  Biso   1.000  H
  C274     1.0000 0.50800  0.10260  0.14940  Biso   1.000  C
  N22      1.0000 0.47970  0.01160  0.13960  Biso   1.000  N
  C275     1.0000 0.53920  0.19300  0.15703  Biso   1.000  C
  H142     1.0000 0.52790  0.09300  0.17150  Biso   1.000  H
  O142     1.0000 0.54258  0.23575  0.14068  Biso   1.000  O
  O143     1.0000 0.70470  0.40770  0.98520  Biso   1.000  O
  H143     1.0000 0.70210  0.43680  0.99610  Biso   1.000  H
  Cu23     1.0000 0.09977  0.73092  0.71879  Biso   1.000  Cu
  O144     1.0000 0.25442  0.46367  0.75629  Biso   1.000  O
  O145     1.0000 0.15934  0.71854  0.68461  Biso   1.000  O
  Cu24     1.0000 0.07499  0.79635  0.66343  Biso   1.000  Cu
  O146     1.0000 0.36525  0.70993  0.75681  Biso   1.000  O
  C276     1.0000 0.28580  0.49310  0.77267  Biso   1.000  C
  C277     1.0000 0.16770  0.74290  0.65352  Biso   1.000  C
  O147     1.0000 0.30757  0.48600  0.80499  Biso   1.000  O
  O148     1.0000 0.13907  0.77691  0.63915  Biso   1.000  O
  C278     1.0000 0.30130  0.54080  0.75049  Biso   1.000  C
  C279     1.0000 0.21500  0.73060  0.63112  Biso   1.000  C
  C280     1.0000 0.28960  0.54620  0.71156  Biso   1.000  C
  C281     1.0000 0.32840  0.57930  0.77014  Biso   1.000  C
  C282     1.0000 0.24350  0.68700  0.63999  Biso   1.000  C
  C283     1.0000 0.23110  0.76320  0.60143  Biso   1.000  C
  C284     1.0000 0.30440  0.58870  0.69073  Biso   1.000  C
  H144     1.0000 0.27090  0.51990  0.69870  Biso   1.000  H
  H145     1.0000 0.33820  0.57500  0.79670  Biso   1.000  H
  C285     1.0000 0.34070  0.62370  0.75020  Biso   1.000  C
  H146     1.0000 0.23250  0.66460  0.66020  Biso   1.000  H
  C286     1.0000 0.28800  0.67630  0.61906  Biso   1.000  C
  C287     1.0000 0.27670  0.75420  0.58220  Biso   1.000  C
  H147     1.0000 0.21060  0.79170  0.59430  Biso   1.000  H
  N23      1.0000 0.29410  0.58970  0.64898  Biso   1.000  N
  C288     1.0000 0.32820  0.62820  0.71068  Biso   1.000  C
  C289     1.0000 0.36640  0.66620  0.77215  Biso   1.000  C
  C290     1.0000 0.30500  0.71050  0.59109  Biso   1.000  C
  C291     1.0000 0.31690  0.62970  0.62541  Biso   1.000  C
  C292     1.0000 0.29580  0.79050  0.55206  Biso   1.000  C
  H148     1.0000 0.27430  0.56640  0.63820  Biso   1.000  H
  H149     1.0000 0.33610  0.65900  0.69720  Biso   1.000  H
  O149     1.0000 0.38806  0.65438  0.80353  Biso   1.000  O
  H150     1.0000 0.33630  0.70420  0.57780  Biso   1.000  H
  H151     1.0000 0.34980  0.63930  0.63770  Biso   1.000  H
  H152     1.0000 0.32490  0.61490  0.59940  Biso   1.000  H
  O150     1.0000 0.26377  0.82415  0.54036  Biso   1.000  O
  O151     1.0000 0.34053  0.78570  0.53978  Biso   1.000  O
  O152     1.0000 0.06062  0.68027  0.68874  Biso   1.000  O
  O153     1.0000 0.91887  0.69235  0.54041  Biso   1.000  O
  O154     1.0000 0.88168  0.61453  0.54088  Biso   1.000  O
  C293     1.0000 0.91330  0.64710  0.55286  Biso   1.000  C
  C294     1.0000 0.94700  0.63140  0.58679  Biso   1.000  C
  C295     1.0000 0.94680  0.58110  0.59990  Biso   1.000  C
  C296     1.0000 0.97830  0.66720  0.60506  Biso   1.000  C
  H153     1.0000 0.92470  0.55690  0.58790  Biso   1.000  H
  C297     1.0000 0.97820  0.56580  0.63000  Biso   1.000  C
  C298     1.0000 0.00830  0.65270  0.63650  Biso   1.000  C
  H154     1.0000 0.97910  0.70160  0.59600  Biso   1.000  H
  C299     1.0000 0.00800  0.60260  0.64940  Biso   1.000  C
  N24      1.0000 0.97970  0.51160  0.63960  Biso   1.000  N
  C300     1.0000 0.03920  0.69300  0.65703  Biso   1.000  C
  H155     1.0000 0.02790  0.59300  0.67150  Biso   1.000  H
  O155     1.0000 0.04258  0.73575  0.64068  Biso   1.000  O
  O156     1.0000 0.20470  0.90770  0.48520  Biso   1.000  O
  H156     1.0000 0.20210  0.93680  0.49610  Biso   1.000  H
  Cu25     1.0000 0.23092  0.40023  0.21879  Biso   1.000  Cu
  O157     1.0000 0.96367  0.24558  0.25629  Biso   1.000  O
  O158     1.0000 0.21854  0.34066  0.18461  Biso   1.000  O
  Cu26     1.0000 0.29635  0.42501  0.16343  Biso   1.000  Cu
  O159     1.0000 0.20993  0.13475  0.25681  Biso   1.000  O
  C301     1.0000 0.99310  0.21420  0.27267  Biso   1.000  C
  C302     1.0000 0.24290  0.33230  0.15352  Biso   1.000  C
  O160     1.0000 0.98600  0.19243  0.30499  Biso   1.000  O
  O161     1.0000 0.27691  0.36093  0.13915  Biso   1.000  O
  C303     1.0000 0.04080  0.19870  0.25049  Biso   1.000  C
  C304     1.0000 0.23060  0.28500  0.13112  Biso   1.000  C
  C305     1.0000 0.04620  0.21040  0.21156  Biso   1.000  C
  C306     1.0000 0.07930  0.17160  0.27014  Biso   1.000  C
  C307     1.0000 0.18700  0.25650  0.13999  Biso   1.000  C
  C308     1.0000 0.26320  0.26890  0.10143  Biso   1.000  C
  C309     1.0000 0.08870  0.19560  0.19073  Biso   1.000  C
  H157     1.0000 0.01990  0.22910  0.19870  Biso   1.000  H
  H158     1.0000 0.07500  0.16180  0.29670  Biso   1.000  H
  C310     1.0000 0.12370  0.15930  0.25020  Biso   1.000  C
  H159     1.0000 0.16460  0.26750  0.16020  Biso   1.000  H
  C311     1.0000 0.17630  0.21200  0.11906  Biso   1.000  C
  C312     1.0000 0.25420  0.22330  0.08220  Biso   1.000  C
  H160     1.0000 0.29170  0.28940  0.09430  Biso   1.000  H
  N25      1.0000 0.08970  0.20590  0.14898  Biso   1.000  N
  C313     1.0000 0.12820  0.17180  0.21068  Biso   1.000  C
  C314     1.0000 0.16620  0.13360  0.27215  Biso   1.000  C
  C315     1.0000 0.21050  0.19500  0.09109  Biso   1.000  C
  C316     1.0000 0.12970  0.18310  0.12541  Biso   1.000  C
  C317     1.0000 0.29050  0.20420  0.05206  Biso   1.000  C
  H161     1.0000 0.06640  0.22570  0.13820  Biso   1.000  H
  H162     1.0000 0.15900  0.16390  0.19720  Biso   1.000  H
  O162     1.0000 0.15438  0.11194  0.30353  Biso   1.000  O
  H163     1.0000 0.20420  0.16370  0.07780  Biso   1.000  H
  H164     1.0000 0.13930  0.15020  0.13770  Biso   1.000  H
  H165     1.0000 0.11490  0.17510  0.09940  Biso   1.000  H
  O163     1.0000 0.32415  0.23623  0.04036  Biso   1.000  O
  O164     1.0000 0.28570  0.15947  0.03978  Biso   1.000  O
  O165     1.0000 0.18027  0.43938  0.18874  Biso   1.000  O
  O166     1.0000 0.19235  0.58113  0.04041  Biso   1.000  O
  O167     1.0000 0.11453  0.61832  0.04088  Biso   1.000  O
  C318     1.0000 0.14710  0.58670  0.05286  Biso   1.000  C
  C319     1.0000 0.13140  0.55300  0.08679  Biso   1.000  C
  C320     1.0000 0.08110  0.55320  0.09990  Biso   1.000  C
  C321     1.0000 0.16720  0.52170  0.10506  Biso   1.000  C
  H166     1.0000 0.05690  0.57530  0.08790  Biso   1.000  H
  C322     1.0000 0.06580  0.52180  0.13000  Biso   1.000  C
  C323     1.0000 0.15270  0.49170  0.13650  Biso   1.000  C
  H167     1.0000 0.20160  0.52090  0.09600  Biso   1.000  H
  C324     1.0000 0.10260  0.49200  0.14940  Biso   1.000  C
  N26      1.0000 0.01160  0.52030  0.13960  Biso   1.000  N
  C325     1.0000 0.19300  0.46080  0.15703  Biso   1.000  C
  H168     1.0000 0.09300  0.47210  0.17150  Biso   1.000  H
  O168     1.0000 0.23575  0.45742  0.14068  Biso   1.000  O
  O169     1.0000 0.40770  0.29530  0.98520  Biso   1.000  O
  H169     1.0000 0.43680  0.29790  0.99610  Biso   1.000  H
  Cu27     1.0000 0.73092  0.90023  0.71879  Biso   1.000  Cu
  O170     1.0000 0.46367  0.74558  0.75629  Biso   1.000  O
  O171     1.0000 0.71854  0.84066  0.68461  Biso   1.000  O
  Cu28     1.0000 0.79635  0.92501  0.66343  Biso   1.000  Cu
  O172     1.0000 0.70993  0.63475  0.75681  Biso   1.000  O
  C326     1.0000 0.49310  0.71420  0.77267  Biso   1.000  C
  C327     1.0000 0.74290  0.83230  0.65352  Biso   1.000  C
  O173     1.0000 0.48600  0.69243  0.80499  Biso   1.000  O
  O174     1.0000 0.77691  0.86093  0.63915  Biso   1.000  O
  C328     1.0000 0.54080  0.69870  0.75049  Biso   1.000  C
  C329     1.0000 0.73060  0.78500  0.63112  Biso   1.000  C
  C330     1.0000 0.54620  0.71040  0.71156  Biso   1.000  C
  C331     1.0000 0.57930  0.67160  0.77014  Biso   1.000  C
  C332     1.0000 0.68700  0.75650  0.63999  Biso   1.000  C
  C333     1.0000 0.76320  0.76890  0.60143  Biso   1.000  C
  C334     1.0000 0.58870  0.69560  0.69073  Biso   1.000  C
  H170     1.0000 0.51990  0.72910  0.69870  Biso   1.000  H
  H171     1.0000 0.57500  0.66180  0.79670  Biso   1.000  H
  C335     1.0000 0.62370  0.65930  0.75020  Biso   1.000  C
  H172     1.0000 0.66460  0.76750  0.66020  Biso   1.000  H
  C336     1.0000 0.67630  0.71200  0.61906  Biso   1.000  C
  C337     1.0000 0.75420  0.72330  0.58220  Biso   1.000  C
  H173     1.0000 0.79170  0.78940  0.59430  Biso   1.000  H
  N27      1.0000 0.58970  0.70590  0.64898  Biso   1.000  N
  C338     1.0000 0.62820  0.67180  0.71068  Biso   1.000  C
  C339     1.0000 0.66620  0.63360  0.77215  Biso   1.000  C
  C340     1.0000 0.71050  0.69500  0.59109  Biso   1.000  C
  C341     1.0000 0.62970  0.68310  0.62541  Biso   1.000  C
  C342     1.0000 0.79050  0.70420  0.55206  Biso   1.000  C
  H174     1.0000 0.56640  0.72570  0.63820  Biso   1.000  H
  H175     1.0000 0.65900  0.66390  0.69720  Biso   1.000  H
  O175     1.0000 0.65438  0.61194  0.80353  Biso   1.000  O
  H176     1.0000 0.70420  0.66370  0.57780  Biso   1.000  H
  H177     1.0000 0.63930  0.65020  0.63770  Biso   1.000  H
  H178     1.0000 0.61490  0.67510  0.59940  Biso   1.000  H
  O176     1.0000 0.82415  0.73623  0.54036  Biso   1.000  O
  O177     1.0000 0.78570  0.65947  0.53978  Biso   1.000  O
  O178     1.0000 0.68027  0.93938  0.68874  Biso   1.000  O
  O179     1.0000 0.69235  0.08113  0.54041  Biso   1.000  O
  O180     1.0000 0.61453  0.11832  0.54088  Biso   1.000  O
  C343     1.0000 0.64710  0.08670  0.55286  Biso   1.000  C
  C344     1.0000 0.63140  0.05300  0.58679  Biso   1.000  C
  C345     1.0000 0.58110  0.05320  0.59990  Biso   1.000  C
  C346     1.0000 0.66720  0.02170  0.60506  Biso   1.000  C
  H179     1.0000 0.55690  0.07530  0.58790  Biso   1.000  H
  C347     1.0000 0.56580  0.02180  0.63000  Biso   1.000  C
  C348     1.0000 0.65270  0.99170  0.63650  Biso   1.000  C
  H180     1.0000 0.70160  0.02090  0.59600  Biso   1.000  H
  C349     1.0000 0.60260  0.99200  0.64940  Biso   1.000  C
  N28      1.0000 0.51160  0.02030  0.63960  Biso   1.000  N
  C350     1.0000 0.69300  0.96080  0.65703  Biso   1.000  C
  H181     1.0000 0.59300  0.97210  0.67150  Biso   1.000  H
  O181     1.0000 0.73575  0.95742  0.64068  Biso   1.000  O
  O182     1.0000 0.90770  0.79530  0.48520  Biso   1.000  O
  H182     1.0000 0.93680  0.79790  0.49610  Biso   1.000  H
  Cu29     1.0000 0.76908  0.59977  0.21879  Biso   1.000  Cu
  O183     1.0000 0.03633  0.75442  0.25629  Biso   1.000  O
  O184     1.0000 0.78146  0.65934  0.18461  Biso   1.000  O
  Cu30     1.0000 0.70365  0.57499  0.16343  Biso   1.000  Cu
  O185     1.0000 0.79007  0.86525  0.25681  Biso   1.000  O
  C351     1.0000 0.00690  0.78580  0.27267  Biso   1.000  C
  C352     1.0000 0.75710  0.66770  0.15352  Biso   1.000  C
  O186     1.0000 0.01400  0.80757  0.30499  Biso   1.000  O
  O187     1.0000 0.72309  0.63907  0.13915  Biso   1.000  O
  C353     1.0000 0.95920  0.80130  0.25049  Biso   1.000  C
  C354     1.0000 0.76940  0.71500  0.13112  Biso   1.000  C
  C355     1.0000 0.95380  0.78960  0.21156  Biso   1.000  C
  C356     1.0000 0.92070  0.82840  0.27014  Biso   1.000  C
  C357     1.0000 0.81300  0.74350  0.13999  Biso   1.000  C
  C358     1.0000 0.73680  0.73110  0.10143  Biso   1.000  C
  C359     1.0000 0.91130  0.80440  0.19073  Biso   1.000  C
  H183     1.0000 0.98010  0.77090  0.19870  Biso   1.000  H
  H184     1.0000 0.92500  0.83820  0.29670  Biso   1.000  H
  C360     1.0000 0.87630  0.84070  0.25020  Biso   1.000  C
  H185     1.0000 0.83540  0.73250  0.16020  Biso   1.000  H
  C361     1.0000 0.82370  0.78800  0.11906  Biso   1.000  C
  C362     1.0000 0.74580  0.77670  0.08220  Biso   1.000  C
  H186     1.0000 0.70830  0.71060  0.09430  Biso   1.000  H
  N29      1.0000 0.91030  0.79410  0.14898  Biso   1.000  N
  C363     1.0000 0.87180  0.82820  0.21068  Biso   1.000  C
  C364     1.0000 0.83380  0.86640  0.27215  Biso   1.000  C
  C365     1.0000 0.78950  0.80500  0.09109  Biso   1.000  C
  C366     1.0000 0.87030  0.81690  0.12541  Biso   1.000  C
  C367     1.0000 0.70950  0.79580  0.05206  Biso   1.000  C
  H187     1.0000 0.93360  0.77430  0.13820  Biso   1.000  H
  H188     1.0000 0.84100  0.83610  0.19720  Biso   1.000  H
  O188     1.0000 0.84562  0.88806  0.30353  Biso   1.000  O
  H189     1.0000 0.79580  0.83630  0.07780  Biso   1.000  H
  H190     1.0000 0.86070  0.84980  0.13770  Biso   1.000  H
  H191     1.0000 0.88510  0.82490  0.09940  Biso   1.000  H
  O189     1.0000 0.67585  0.76377  0.04036  Biso   1.000  O
  O190     1.0000 0.71430  0.84053  0.03978  Biso   1.000  O
  O191     1.0000 0.81973  0.56062  0.18874  Biso   1.000  O
  O192     1.0000 0.80765  0.41887  0.04041  Biso   1.000  O
  O193     1.0000 0.88547  0.38168  0.04088  Biso   1.000  O
  C368     1.0000 0.85290  0.41330  0.05286  Biso   1.000  C
  C369     1.0000 0.86860  0.44700  0.08679  Biso   1.000  C
  C370     1.0000 0.91890  0.44680  0.09990  Biso   1.000  C
  C371     1.0000 0.83280  0.47830  0.10506  Biso   1.000  C
  H192     1.0000 0.94310  0.42470  0.08790  Biso   1.000  H
  C372     1.0000 0.93420  0.47820  0.13000  Biso   1.000  C
  C373     1.0000 0.84730  0.50830  0.13650  Biso   1.000  C
  H193     1.0000 0.79840  0.47910  0.09600  Biso   1.000  H
  C374     1.0000 0.89740  0.50800  0.14940  Biso   1.000  C
  N30      1.0000 0.98840  0.47970  0.13960  Biso   1.000  N
  C375     1.0000 0.80700  0.53920  0.15703  Biso   1.000  C
  H194     1.0000 0.90700  0.52790  0.17150  Biso   1.000  H
  O194     1.0000 0.76425  0.54258  0.14068  Biso   1.000  O
  O195     1.0000 0.59230  0.70470  0.98520  Biso   1.000  O
  H195     1.0000 0.56320  0.70210  0.99610  Biso   1.000  H
  Cu31     1.0000 0.26908  0.09977  0.71879  Biso   1.000  Cu
  O196     1.0000 0.53633  0.25442  0.75629  Biso   1.000  O
  O197     1.0000 0.28146  0.15934  0.68461  Biso   1.000  O
  Cu32     1.0000 0.20365  0.07499  0.66343  Biso   1.000  Cu
  O198     1.0000 0.29007  0.36525  0.75681  Biso   1.000  O
  C376     1.0000 0.50690  0.28580  0.77267  Biso   1.000  C
  C377     1.0000 0.25710  0.16770  0.65352  Biso   1.000  C
  O199     1.0000 0.51400  0.30757  0.80499  Biso   1.000  O
  O200     1.0000 0.22309  0.13907  0.63915  Biso   1.000  O
  C378     1.0000 0.45920  0.30130  0.75049  Biso   1.000  C
  C379     1.0000 0.26940  0.21500  0.63112  Biso   1.000  C
  C380     1.0000 0.45380  0.28960  0.71156  Biso   1.000  C
  C381     1.0000 0.42070  0.32840  0.77014  Biso   1.000  C
  C382     1.0000 0.31300  0.24350  0.63999  Biso   1.000  C
  C383     1.0000 0.23680  0.23110  0.60143  Biso   1.000  C
  C384     1.0000 0.41130  0.30440  0.69073  Biso   1.000  C
  H196     1.0000 0.48010  0.27090  0.69870  Biso   1.000  H
  H197     1.0000 0.42500  0.33820  0.79670  Biso   1.000  H
  C385     1.0000 0.37630  0.34070  0.75020  Biso   1.000  C
  H198     1.0000 0.33540  0.23250  0.66020  Biso   1.000  H
  C386     1.0000 0.32370  0.28800  0.61906  Biso   1.000  C
  C387     1.0000 0.24580  0.27670  0.58220  Biso   1.000  C
  H199     1.0000 0.20830  0.21060  0.59430  Biso   1.000  H
  N31      1.0000 0.41030  0.29410  0.64898  Biso   1.000  N
  C388     1.0000 0.37180  0.32820  0.71068  Biso   1.000  C
  C389     1.0000 0.33380  0.36640  0.77215  Biso   1.000  C
  C390     1.0000 0.28950  0.30500  0.59109  Biso   1.000  C
  C391     1.0000 0.37030  0.31690  0.62541  Biso   1.000  C
  C392     1.0000 0.20950  0.29580  0.55206  Biso   1.000  C
  H200     1.0000 0.43360  0.27430  0.63820  Biso   1.000  H
  H201     1.0000 0.34100  0.33610  0.69720  Biso   1.000  H
  O201     1.0000 0.34562  0.38806  0.80353  Biso   1.000  O
  H202     1.0000 0.29580  0.33630  0.57780  Biso   1.000  H
  H203     1.0000 0.36070  0.34980  0.63770  Biso   1.000  H
  H204     1.0000 0.38510  0.32490  0.59940  Biso   1.000  H
  O202     1.0000 0.17585  0.26377  0.54036  Biso   1.000  O
  O203     1.0000 0.21430  0.34053  0.53978  Biso   1.000  O
  O204     1.0000 0.31973  0.06062  0.68874  Biso   1.000  O
  O205     1.0000 0.30765  0.91887  0.54041  Biso   1.000  O
  O206     1.0000 0.38547  0.88168  0.54088  Biso   1.000  O
  C393     1.0000 0.35290  0.91330  0.55286  Biso   1.000  C
  C394     1.0000 0.36860  0.94700  0.58679  Biso   1.000  C
  C395     1.0000 0.41890  0.94680  0.59990  Biso   1.000  C
  C396     1.0000 0.33280  0.97830  0.60506  Biso   1.000  C
  H205     1.0000 0.44310  0.92470  0.58790  Biso   1.000  H
  C397     1.0000 0.43420  0.97820  0.63000  Biso   1.000  C
  C398     1.0000 0.34730  0.00830  0.63650  Biso   1.000  C
  H206     1.0000 0.29840  0.97910  0.59600  Biso   1.000  H
  C399     1.0000 0.39740  0.00800  0.64940  Biso   1.000  C
  N32      1.0000 0.48840  0.97970  0.63960  Biso   1.000  N
  C400     1.0000 0.30700  0.03920  0.65703  Biso   1.000  C
  H207     1.0000 0.40700  0.02790  0.67150  Biso   1.000  H
  O207     1.0000 0.26425  0.04258  0.64068  Biso   1.000  O
  O208     1.0000 0.09230  0.20470  0.48520  Biso   1.000  O
  H208     1.0000 0.06320  0.20210  0.49610  Biso   1.000  H
  Cu33     1.0000 0.77905  0.37512  0.00000  Biso   1.000  Cu
  Cu34     1.0000 0.87014  0.33081  0.00000  Biso   1.000  Cu
  H209     1.0000 0.68590  0.38880  0.00000  Biso   1.000  H
  Cu35     1.0000 0.27905  0.87512  0.50000  Biso   1.000  Cu
  Cu36     1.0000 0.37014  0.83081  0.50000  Biso   1.000  Cu
  H210     1.0000 0.18590  0.88880  0.50000  Biso   1.000  H
  Cu37     1.0000 0.22095  0.62488  0.00000  Biso   1.000  Cu
  Cu38     1.0000 0.12986  0.66919  0.00000  Biso   1.000  Cu
  H211     1.0000 0.31410  0.61120  0.00000  Biso   1.000  H
  Cu39     1.0000 0.72095  0.12488  0.50000  Biso   1.000  Cu
  Cu40     1.0000 0.62986  0.16919  0.50000  Biso   1.000  Cu
  H212     1.0000 0.81410  0.11120  0.50000  Biso   1.000  H
  Cu41     1.0000 0.62488  0.77905  0.00000  Biso   1.000  Cu
  Cu42     1.0000 0.66919  0.87014  0.00000  Biso   1.000  Cu
  H213     1.0000 0.61120  0.68590  0.00000  Biso   1.000  H
  Cu43     1.0000 0.12488  0.27905  0.50000  Biso   1.000  Cu
  Cu44     1.0000 0.16919  0.37014  0.50000  Biso   1.000  Cu
  H214     1.0000 0.11120  0.18590  0.50000  Biso   1.000  H
  Cu45     1.0000 0.37512  0.22095  0.00000  Biso   1.000  Cu
  Cu46     1.0000 0.33081  0.12986  0.00000  Biso   1.000  Cu
  H215     1.0000 0.38880  0.31410  0.00000  Biso   1.000  H
  Cu47     1.0000 0.87512  0.72095  0.50000  Biso   1.000  Cu
  Cu48     1.0000 0.83081  0.62986  0.50000  Biso   1.000  Cu
  H216     1.0000 0.88880  0.81410  0.50000  Biso   1.000  H
