data_image0
_cell_length_a       22.018
_cell_length_b       20.783
_cell_length_c       37.062
_cell_angle_alpha    90
_cell_angle_beta     94.845
_cell_angle_gamma    90

_symmetry_space_group_name_H-M    "P 1"
_symmetry_int_tables_number       1

loop_
  _symmetry_equiv_pos_as_xyz
  'x, y, z'

loop_
  _atom_site_label
  _atom_site_occupancy
  _atom_site_fract_x
  _atom_site_fract_y
  _atom_site_fract_z
  _atom_site_thermal_displace_type
  _atom_site_B_iso_or_equiv
  _atom_site_type_symbol
  Zn1      1.0000 0.77166  0.17991  0.64890  Biso   1.000  Zn
  N1       1.0000 0.77933  0.09145  0.67472  Biso   1.000  N
  O1       1.0000 0.82903  0.23243  0.68440  Biso   1.000  O
  O2       1.0000 0.83772  0.17308  0.61534  Biso   1.000  O
  O3       1.0000 0.70313  0.21707  0.67372  Biso   1.000  O
  O4       1.0000 0.71007  0.15567  0.60647  Biso   1.000  O
  C1       1.0000 0.84119  0.08606  0.69233  Biso   1.000  C
  C2       1.0000 0.76811  0.03724  0.64832  Biso   1.000  C
  C3       1.0000 0.73494  0.08422  0.70324  Biso   1.000  C
  C4       1.0000 0.83571  0.29160  0.68513  Biso   1.000  C
  C5       1.0000 0.84594  0.21560  0.59171  Biso   1.000  C
  C6       1.0000 0.67692  0.27070  0.67378  Biso   1.000  C
  C7       1.0000 0.68495  0.19700  0.58683  Biso   1.000  C
  N2       1.0000 0.85074  0.02425  0.71127  Biso   1.000  N
  H1       1.0000 0.84850  0.12170  0.70990  Biso   1.000  H
  H2       1.0000 0.87090  0.09020  0.67390  Biso   1.000  H
  N3       1.0000 0.77732  0.97427  0.66705  Biso   1.000  N
  H3       1.0000 0.72590  0.03990  0.63690  Biso   1.000  H
  H4       1.0000 0.79640  0.04090  0.62900  Biso   1.000  H
  N4       1.0000 0.74332  0.02231  0.72182  Biso   1.000  N
  H5       1.0000 0.74110  0.11960  0.72110  Biso   1.000  H
  H6       1.0000 0.69280  0.08720  0.69180  Biso   1.000  H
  O5       1.0000 0.81786  0.32997  0.66041  Biso   1.000  O
  C8       1.0000 0.86675  0.32052  0.71893  Biso   1.000  C
  O6       1.0000 0.82151  0.26925  0.58949  Biso   1.000  O
  C9       1.0000 0.88978  0.19789  0.56452  Biso   1.000  C
  O7       1.0000 0.69055  0.31808  0.65588  Biso   1.000  O
  C10      1.0000 0.62577  0.27720  0.69733  Biso   1.000  C
  O8       1.0000 0.69482  0.25610  0.58880  Biso   1.000  O
  C11      1.0000 0.63660  0.17490  0.55801  Biso   1.000  C
  Zn2      1.0000 0.93903  0.01971  0.73461  Biso   1.000  Zn
  C12      1.0000 0.83990  0.97100  0.68482  Biso   1.000  C
  C13      1.0000 0.80546  0.01793  0.73924  Biso   1.000  C
  Zn3      1.0000 0.76524  0.89764  0.63057  Biso   1.000  Zn
  C14      1.0000 0.73320  0.97042  0.69608  Biso   1.000  C
  Zn4      1.0000 0.75526  0.30814  0.61938  Biso   1.000  Zn
  C15      1.0000 0.90459  0.28360  0.74291  Biso   1.000  C
  C16      1.0000 0.85670  0.38500  0.72788  Biso   1.000  C
  C17      1.0000 0.92210  0.14070  0.56781  Biso   1.000  C
  C18      1.0000 0.89875  0.23710  0.53541  Biso   1.000  C
  C19      1.0000 0.61100  0.22620  0.71862  Biso   1.000  C
  C20      1.0000 0.59230  0.33150  0.69856  Biso   1.000  C
  C21      1.0000 0.62280  0.11430  0.55196  Biso   1.000  C
  C22      1.0000 0.60510  0.21990  0.53701  Biso   1.000  C
  O9       1.0000 0.98114  0.96157  0.70101  Biso   1.000  O
  O10      1.0000 0.92894  0.94298  0.76716  Biso   1.000  O
  O11      1.0000 0.92629  0.07798  0.77664  Biso   1.000  O
  O12      1.0000 0.97399  0.09534  0.70871  Biso   1.000  O
  H7       1.0000 0.86960  0.97390  0.66630  Biso   1.000  H
  H8       1.0000 0.84600  0.92920  0.69740  Biso   1.000  H
  H9       1.0000 0.81110  0.97600  0.75180  Biso   1.000  H
  H10      1.0000 0.81220  0.05250  0.75750  Biso   1.000  H
  O13      1.0000 0.79910  0.83730  0.66976  Biso   1.000  O
  O14      1.0000 0.82500  0.86120  0.60137  Biso   1.000  O
  O15      1.0000 0.70110  0.90650  0.59280  Biso   1.000  O
  H11      1.0000 0.69090  0.97270  0.68470  Biso   1.000  H
  H12      1.0000 0.73830  0.92870  0.70890  Biso   1.000  H
  N5       1.0000 0.74146  0.39703  0.59549  Biso   1.000  N
  H13      1.0000 0.91230  0.24000  0.73720  Biso   1.000  H
  C23      1.0000 0.93100  0.30950  0.77480  Biso   1.000  C
  C24      1.0000 0.88090  0.41010  0.76027  Biso   1.000  C
  H14      1.0000 0.83290  0.41170  0.71140  Biso   1.000  H
  H15      1.0000 0.91710  0.11290  0.58770  Biso   1.000  H
  C25      1.0000 0.96220  0.12350  0.54207  Biso   1.000  C
  C26      1.0000 0.93817  0.22050  0.51014  Biso   1.000  C
  H16      1.0000 0.87710  0.27660  0.53280  Biso   1.000  H
  H17      1.0000 0.63460  0.18790  0.71870  Biso   1.000  H
  C27      1.0000 0.56320  0.22980  0.73945  Biso   1.000  C
  C28      1.0000 0.54300  0.33460  0.71903  Biso   1.000  C
  H18      1.0000 0.60280  0.36810  0.68510  Biso   1.000  H
  H19      1.0000 0.64460  0.08200  0.56580  Biso   1.000  H
  C29      1.0000 0.57740  0.09620  0.52608  Biso   1.000  C
  C30      1.0000 0.55810  0.20080  0.51128  Biso   1.000  C
  H20      1.0000 0.61500  0.26420  0.53980  Biso   1.000  H
  C31      1.0000 0.03150  0.93310  0.70635  Biso   1.000  C
  C32      1.0000 0.79181  0.41076  0.57374  Biso   1.000  C
  C33      1.0000 0.68370  0.40250  0.57184  Biso   1.000  C
  C34      1.0000 0.74050  0.45030  0.62371  Biso   1.000  C
  H21      1.0000 0.95760  0.28400  0.79040  Biso   1.000  H
  C35      1.0000 0.91870  0.37350  0.78422  Biso   1.000  C
  H22      1.0000 0.87160  0.45310  0.76640  Biso   1.000  H
  H23      1.0000 0.98360  0.08390  0.54440  Biso   1.000  H
  C36      1.0000 0.97090  0.16380  0.51326  Biso   1.000  C
  H24      1.0000 0.94300  0.24840  0.49030  Biso   1.000  H
  H25      1.0000 0.55440  0.19420  0.75420  Biso   1.000  H
  C37      1.0000 0.52750  0.28370  0.73957  Biso   1.000  C
  H26      1.0000 0.51940  0.37280  0.71890  Biso   1.000  H
  H27      1.0000 0.56890  0.05160  0.52330  Biso   1.000  H
  C38      1.0000 0.54570  0.13580  0.50542  Biso   1.000  C
  H28      1.0000 0.53470  0.23230  0.49780  Biso   1.000  H
  C39      1.0000 0.04540  0.88090  0.68040  Biso   1.000  C
  N6       1.0000 0.78693  0.47422  0.55648  Biso   1.000  N
  H29      1.0000 0.79310  0.37740  0.55480  Biso   1.000  H
  H30      1.0000 0.83050  0.40850  0.58930  Biso   1.000  H
  N7       1.0000 0.67660  0.46660  0.55503  Biso   1.000  N
  H31      1.0000 0.68320  0.36940  0.55260  Biso   1.000  H
  H32      1.0000 0.64890  0.39410  0.58640  Biso   1.000  H
  N8       1.0000 0.73600  0.51210  0.60771  Biso   1.000  N
  H33      1.0000 0.70540  0.44360  0.63830  Biso   1.000  H
  H34      1.0000 0.77820  0.44800  0.64020  Biso   1.000  H
  C40      1.0000 0.94579  0.40025  0.81942  Biso   1.000  C
  C41      1.0000 0.01480  0.14650  0.48673  Biso   1.000  C
  C42      1.0000 0.49490  0.11480  0.48010  Biso   1.000  C
  C43      1.0000 0.00200  0.86780  0.65122  Biso   1.000  C
  C44      1.0000 0.10100  0.84980  0.68302  Biso   1.000  C
  Zn5      1.0000 0.86371  0.48381  0.52824  Biso   1.000  Zn
  C45      1.0000 0.72860  0.47740  0.53388  Biso   1.000  C
  C46      1.0000 0.78590  0.52330  0.58599  Biso   1.000  C
  C47      1.0000 0.67950  0.51360  0.58370  Biso   1.000  C
  C48      1.0000 0.91210  0.43770  0.84116  Biso   1.000  C
  C49      1.0000 0.00557  0.38650  0.83137  Biso   1.000  C
  C50      1.0000 0.01930  0.08390  0.47377  Biso   1.000  C
  C51      1.0000 0.05340  0.19240  0.47429  Biso   1.000  C
  C52      1.0000 0.50470  0.07650  0.45120  Biso   1.000  C
  C53      1.0000 0.43600  0.14120  0.48360  Biso   1.000  C
  H35      1.0000 0.96530  0.89180  0.64770  Biso   1.000  H
  C54      1.0000 0.01510  0.81770  0.62756  Biso   1.000  C
  C55      1.0000 0.11340  0.80330  0.65784  Biso   1.000  C
  H36      1.0000 0.13080  0.86020  0.70210  Biso   1.000  H
  O16      1.0000 0.81815  0.55529  0.48767  Biso   1.000  O
  O17      1.0000 0.91514  0.55306  0.50529  Biso   1.000  O
  O18      1.0000 0.91832  0.46462  0.57191  Biso   1.000  O
  O19      1.0000 0.84663  0.41110  0.49255  Biso   1.000  O
  H37      1.0000 0.72460  0.52030  0.52220  Biso   1.000  H
  H38      1.0000 0.72850  0.44460  0.51450  Biso   1.000  H
  H39      1.0000 0.82470  0.52150  0.60150  Biso   1.000  H
  H40      1.0000 0.78210  0.56680  0.57520  Biso   1.000  H
  H41      1.0000 0.64470  0.50660  0.59850  Biso   1.000  H
  H42      1.0000 0.67490  0.55700  0.57280  Biso   1.000  H
  H43      1.0000 0.87110  0.44840  0.83320  Biso   1.000  H
  C56      1.0000 0.93698  0.46000  0.87441  Biso   1.000  C
  C57      1.0000 0.03112  0.40960  0.86435  Biso   1.000  C
  H44      1.0000 0.02950  0.36090  0.81680  Biso   1.000  H
  H45      1.0000 0.99330  0.05150  0.48190  Biso   1.000  H
  C58      1.0000 0.06080  0.06830  0.44945  Biso   1.000  C
  C59      1.0000 0.09590  0.17740  0.44972  Biso   1.000  C
  H46      1.0000 0.05090  0.23550  0.48270  Biso   1.000  H
  H47      1.0000 0.54450  0.06010  0.44910  Biso   1.000  H
  C60      1.0000 0.45980  0.06130  0.42560  Biso   1.000  C
  C61      1.0000 0.38860  0.12530  0.45750  Biso   1.000  C
  H48      1.0000 0.42900  0.16900  0.50320  Biso   1.000  H
  H49      1.0000 0.98510  0.80560  0.60890  Biso   1.000  H
  C62      1.0000 0.06960  0.78580  0.63060  Biso   1.000  C
  H50      1.0000 0.15230  0.78330  0.65930  Biso   1.000  H
  C63      1.0000 0.87050  0.57490  0.48419  Biso   1.000  C
  H51      1.0000 0.91270  0.48520  0.88900  Biso   1.000  H
  C64      1.0000 0.99689  0.44607  0.88673  Biso   1.000  C
  H52      1.0000 0.07260  0.40040  0.87180  Biso   1.000  H
  H53      1.0000 0.06310  0.02510  0.44120  Biso   1.000  H
  C65      1.0000 0.09860  0.11320  0.43690  Biso   1.000  C
  H54      1.0000 0.12240  0.20950  0.44170  Biso   1.000  H
  H55      1.0000 0.46970  0.03620  0.40540  Biso   1.000  H
  C66      1.0000 0.40370  0.07940  0.42730  Biso   1.000  C
  H56      1.0000 0.34880  0.14240  0.45850  Biso   1.000  H
  C67      1.0000 0.08130  0.73600  0.60293  Biso   1.000  C
  C68      1.0000 0.88340  0.62350  0.45618  Biso   1.000  C
  O20      1.0000 0.01108  0.48997  0.55527  Biso   1.000  O
  O21      1.0000 0.05256  0.57997  0.50293  Biso   1.000  O
  C69      1.0000 0.02398  0.46863  0.92267  Biso   1.000  C
  C70      1.0000 0.14280  0.09500  0.40958  Biso   1.000  C
  C71      1.0000 0.35250  0.06640  0.39890  Biso   1.000  C
  C72      1.0000 0.13740  0.72900  0.58894  Biso   1.000  C
  C73      1.0000 0.03340  0.69730  0.58972  Biso   1.000  C
  C74      1.0000 0.84110  0.63470  0.42737  Biso   1.000  C
  C75      1.0000 0.93860  0.65660  0.45837  Biso   1.000  C
  O22      1.0000 0.14595  0.04020  0.39922  Biso   1.000  O
  O23      1.0000 0.36010  0.04040  0.37302  Biso   1.000  O
  H57      1.0000 0.17070  0.75490  0.59810  Biso   1.000  H
  C76      1.0000 0.14530  0.68530  0.56219  Biso   1.000  C
  C77      1.0000 0.04110  0.65210  0.56328  Biso   1.000  C
  H58      1.0000 0.99470  0.70190  0.59900  Biso   1.000  H
  H59      1.0000 0.80300  0.61300  0.42570  Biso   1.000  H
  C78      1.0000 0.85460  0.67800  0.40083  Biso   1.000  C
  C79      1.0000 0.95100  0.69930  0.43178  Biso   1.000  C
  H60      1.0000 0.96780  0.64940  0.47830  Biso   1.000  H
  H61      1.0000 0.18380  0.68150  0.55260  Biso   1.000  H
  C80      1.0000 0.09710  0.64640  0.54898  Biso   1.000  C
  H62      1.0000 0.00820  0.62490  0.55490  Biso   1.000  H
  H63      1.0000 0.82510  0.68590  0.38110  Biso   1.000  H
  C81      1.0000 0.90860  0.70950  0.40210  Biso   1.000  C
  H64      1.0000 0.98860  0.72200  0.43350  Biso   1.000  H
  C82      1.0000 0.10180  0.60090  0.51831  Biso   1.000  C
  C83      1.0000 0.92418  0.75580  0.37328  Biso   1.000  C
  C84      1.0000 0.87840  0.78970  0.35276  Biso   1.000  C
  C85      1.0000 0.98459  0.76670  0.36660  Biso   1.000  C
  H65      1.0000 0.83680  0.78260  0.35660  Biso   1.000  H
  C86      1.0000 0.89374  0.83370  0.32691  Biso   1.000  C
  C87      1.0000 0.99922  0.81020  0.34104  Biso   1.000  C
  H66      1.0000 0.01610  0.74360  0.38000  Biso   1.000  H
  H67      1.0000 0.86250  0.85660  0.31320  Biso   1.000  H
  C88      1.0000 0.95404  0.84460  0.32090  Biso   1.000  C
  H68      1.0000 0.04080  0.81710  0.33700  Biso   1.000  H
  C89      1.0000 0.96994  0.89393  0.29449  Biso   1.000  C
  C90      1.0000 0.49480  0.12480  0.47790  Biso   1.000  C
  C91      1.0000 0.44940  0.08140  0.48480  Biso   1.000  C
  H69      1.0000 0.45350  0.05760  0.50680  Biso   1.000  H
  C92      1.0000 0.39780  0.07150  0.46080  Biso   1.000  C
  H70      1.0000 0.36640  0.04380  0.46760  Biso   1.000  H
  C93      1.0000 0.39180  0.09890  0.42950  Biso   1.000  C
  C94      1.0000 0.43430  0.14870  0.41870  Biso   1.000  C
  H71      1.0000 0.42730  0.17260  0.39680  Biso   1.000  H
  C95      1.0000 0.48830  0.15850  0.44410  Biso   1.000  C
  H72      1.0000 0.51920  0.18760  0.43810  Biso   1.000  H
  C96      1.0000 0.33710  0.09080  0.40410  Biso   1.000  C
  O24      1.0000 0.29840  0.05400  0.40880  Biso   1.000  O
  O25      1.0000 0.32260  0.13060  0.37650  Biso   1.000  O
  O26      1.0000 0.73840  0.82620  0.66100  Biso   1.000  O
  Zn6      1.0000 0.22834  0.17991  0.85110  Biso   1.000  Zn
  N9       1.0000 0.22067  0.09145  0.82528  Biso   1.000  N
  O27      1.0000 0.17097  0.23243  0.81560  Biso   1.000  O
  O28      1.0000 0.16228  0.17308  0.88466  Biso   1.000  O
  O29      1.0000 0.29687  0.21707  0.82628  Biso   1.000  O
  O30      1.0000 0.28993  0.15567  0.89353  Biso   1.000  O
  C97      1.0000 0.15881  0.08606  0.80767  Biso   1.000  C
  C98      1.0000 0.23189  0.03724  0.85168  Biso   1.000  C
  C99      1.0000 0.26506  0.08422  0.79676  Biso   1.000  C
  C100     1.0000 0.16429  0.29160  0.81487  Biso   1.000  C
  C101     1.0000 0.15406  0.21560  0.90829  Biso   1.000  C
  C102     1.0000 0.32308  0.27070  0.82622  Biso   1.000  C
  C103     1.0000 0.31505  0.19700  0.91317  Biso   1.000  C
  N10      1.0000 0.14926  0.02425  0.78873  Biso   1.000  N
  H73      1.0000 0.15150  0.12170  0.79010  Biso   1.000  H
  H74      1.0000 0.12910  0.09020  0.82610  Biso   1.000  H
  N11      1.0000 0.22268  0.97427  0.83295  Biso   1.000  N
  H75      1.0000 0.27410  0.03990  0.86310  Biso   1.000  H
  H76      1.0000 0.20360  0.04090  0.87100  Biso   1.000  H
  N12      1.0000 0.25668  0.02231  0.77818  Biso   1.000  N
  H77      1.0000 0.25890  0.11960  0.77890  Biso   1.000  H
  H78      1.0000 0.30720  0.08720  0.80820  Biso   1.000  H
  O31      1.0000 0.18214  0.32997  0.83959  Biso   1.000  O
  C104     1.0000 0.13325  0.32052  0.78107  Biso   1.000  C
  O32      1.0000 0.17849  0.26925  0.91051  Biso   1.000  O
  C105     1.0000 0.11022  0.19789  0.93548  Biso   1.000  C
  O33      1.0000 0.30945  0.31808  0.84412  Biso   1.000  O
  C106     1.0000 0.37423  0.27720  0.80267  Biso   1.000  C
  O34      1.0000 0.30518  0.25610  0.91120  Biso   1.000  O
  C107     1.0000 0.36340  0.17490  0.94199  Biso   1.000  C
  Zn7      1.0000 0.06097  0.01971  0.76539  Biso   1.000  Zn
  C108     1.0000 0.16010  0.97100  0.81518  Biso   1.000  C
  C109     1.0000 0.19454  0.01793  0.76076  Biso   1.000  C
  Zn8      1.0000 0.23476  0.89764  0.86943  Biso   1.000  Zn
  C110     1.0000 0.26680  0.97042  0.80392  Biso   1.000  C
  Zn9      1.0000 0.24473  0.30814  0.88062  Biso   1.000  Zn
  C111     1.0000 0.09541  0.28360  0.75709  Biso   1.000  C
  C112     1.0000 0.14330  0.38500  0.77212  Biso   1.000  C
  C113     1.0000 0.07790  0.14070  0.93219  Biso   1.000  C
  C114     1.0000 0.10125  0.23710  0.96459  Biso   1.000  C
  C115     1.0000 0.38900  0.22620  0.78138  Biso   1.000  C
  C116     1.0000 0.40770  0.33150  0.80144  Biso   1.000  C
  C117     1.0000 0.37720  0.11430  0.94804  Biso   1.000  C
  C118     1.0000 0.39490  0.21990  0.96299  Biso   1.000  C
  O35      1.0000 0.01886  0.96157  0.79899  Biso   1.000  O
  O36      1.0000 0.07106  0.94298  0.73284  Biso   1.000  O
  O37      1.0000 0.07371  0.07798  0.72336  Biso   1.000  O
  O38      1.0000 0.02601  0.09534  0.79129  Biso   1.000  O
  H79      1.0000 0.13040  0.97390  0.83370  Biso   1.000  H
  H80      1.0000 0.15400  0.92920  0.80260  Biso   1.000  H
  H81      1.0000 0.18890  0.97600  0.74820  Biso   1.000  H
  H82      1.0000 0.18780  0.05250  0.74250  Biso   1.000  H
  O39      1.0000 0.20090  0.83730  0.83024  Biso   1.000  O
  O40      1.0000 0.17500  0.86120  0.89863  Biso   1.000  O
  O41      1.0000 0.29890  0.90650  0.90720  Biso   1.000  O
  H83      1.0000 0.30910  0.97270  0.81530  Biso   1.000  H
  H84      1.0000 0.26170  0.92870  0.79110  Biso   1.000  H
  N13      1.0000 0.25854  0.39703  0.90451  Biso   1.000  N
  H85      1.0000 0.08770  0.24000  0.76280  Biso   1.000  H
  C119     1.0000 0.06900  0.30950  0.72520  Biso   1.000  C
  C120     1.0000 0.11910  0.41010  0.73973  Biso   1.000  C
  H86      1.0000 0.16710  0.41170  0.78860  Biso   1.000  H
  H87      1.0000 0.08290  0.11290  0.91230  Biso   1.000  H
  C121     1.0000 0.03780  0.12350  0.95793  Biso   1.000  C
  C122     1.0000 0.06183  0.22050  0.98986  Biso   1.000  C
  H88      1.0000 0.12290  0.27660  0.96720  Biso   1.000  H
  H89      1.0000 0.36540  0.18790  0.78130  Biso   1.000  H
  C123     1.0000 0.43680  0.22980  0.76055  Biso   1.000  C
  C124     1.0000 0.45700  0.33460  0.78097  Biso   1.000  C
  H90      1.0000 0.39720  0.36810  0.81490  Biso   1.000  H
  H91      1.0000 0.35540  0.08200  0.93420  Biso   1.000  H
  C125     1.0000 0.42260  0.09620  0.97392  Biso   1.000  C
  C126     1.0000 0.44190  0.20080  0.98872  Biso   1.000  C
  H92      1.0000 0.38500  0.26420  0.96020  Biso   1.000  H
  C127     1.0000 0.96850  0.93310  0.79365  Biso   1.000  C
  C128     1.0000 0.20819  0.41076  0.92626  Biso   1.000  C
  C129     1.0000 0.31630  0.40250  0.92816  Biso   1.000  C
  C130     1.0000 0.25950  0.45030  0.87629  Biso   1.000  C
  H93      1.0000 0.04240  0.28400  0.70960  Biso   1.000  H
  C131     1.0000 0.08130  0.37350  0.71578  Biso   1.000  C
  H94      1.0000 0.12840  0.45310  0.73360  Biso   1.000  H
  H95      1.0000 0.01640  0.08390  0.95560  Biso   1.000  H
  C132     1.0000 0.02910  0.16380  0.98674  Biso   1.000  C
  H96      1.0000 0.05700  0.24840  0.00970  Biso   1.000  H
  H97      1.0000 0.44560  0.19420  0.74580  Biso   1.000  H
  C133     1.0000 0.47250  0.28370  0.76043  Biso   1.000  C
  H98      1.0000 0.48060  0.37280  0.78110  Biso   1.000  H
  H99      1.0000 0.43110  0.05160  0.97670  Biso   1.000  H
  C134     1.0000 0.45430  0.13580  0.99458  Biso   1.000  C
  H100     1.0000 0.46530  0.23230  0.00220  Biso   1.000  H
  C135     1.0000 0.95460  0.88090  0.81960  Biso   1.000  C
  N14      1.0000 0.21307  0.47422  0.94352  Biso   1.000  N
  H101     1.0000 0.20690  0.37740  0.94520  Biso   1.000  H
  H102     1.0000 0.16950  0.40850  0.91070  Biso   1.000  H
  N15      1.0000 0.32340  0.46660  0.94497  Biso   1.000  N
  H103     1.0000 0.31680  0.36940  0.94740  Biso   1.000  H
  H104     1.0000 0.35110  0.39410  0.91360  Biso   1.000  H
  N16      1.0000 0.26400  0.51210  0.89229  Biso   1.000  N
  H105     1.0000 0.29460  0.44360  0.86170  Biso   1.000  H
  H106     1.0000 0.22180  0.44800  0.85980  Biso   1.000  H
  C136     1.0000 0.05421  0.40025  0.68058  Biso   1.000  C
  C137     1.0000 0.98520  0.14650  0.01327  Biso   1.000  C
  C138     1.0000 0.50510  0.11480  0.01990  Biso   1.000  C
  C139     1.0000 0.99800  0.86780  0.84878  Biso   1.000  C
  C140     1.0000 0.89900  0.84980  0.81698  Biso   1.000  C
  Zn10     1.0000 0.13629  0.48381  0.97176  Biso   1.000  Zn
  C141     1.0000 0.27140  0.47740  0.96612  Biso   1.000  C
  C142     1.0000 0.21410  0.52330  0.91401  Biso   1.000  C
  C143     1.0000 0.32050  0.51360  0.91630  Biso   1.000  C
  C144     1.0000 0.08790  0.43770  0.65884  Biso   1.000  C
  C145     1.0000 0.99443  0.38650  0.66863  Biso   1.000  C
  C146     1.0000 0.98070  0.08390  0.02623  Biso   1.000  C
  C147     1.0000 0.94660  0.19240  0.02571  Biso   1.000  C
  C148     1.0000 0.49530  0.07650  0.04880  Biso   1.000  C
  C149     1.0000 0.56400  0.14120  0.01640  Biso   1.000  C
  H107     1.0000 0.03470  0.89180  0.85230  Biso   1.000  H
  C150     1.0000 0.98490  0.81770  0.87244  Biso   1.000  C
  C151     1.0000 0.88660  0.80330  0.84216  Biso   1.000  C
  H108     1.0000 0.86920  0.86020  0.79790  Biso   1.000  H
  O42      1.0000 0.18185  0.55529  0.01233  Biso   1.000  O
  O43      1.0000 0.08486  0.55306  0.99471  Biso   1.000  O
  O44      1.0000 0.08168  0.46462  0.92809  Biso   1.000  O
  O45      1.0000 0.15337  0.41110  0.00745  Biso   1.000  O
  H109     1.0000 0.27540  0.52030  0.97780  Biso   1.000  H
  H110     1.0000 0.27150  0.44460  0.98550  Biso   1.000  H
  H111     1.0000 0.17530  0.52150  0.89850  Biso   1.000  H
  H112     1.0000 0.21790  0.56680  0.92480  Biso   1.000  H
  H113     1.0000 0.35530  0.50660  0.90150  Biso   1.000  H
  H114     1.0000 0.32510  0.55700  0.92720  Biso   1.000  H
  H115     1.0000 0.12890  0.44840  0.66680  Biso   1.000  H
  C152     1.0000 0.06302  0.46000  0.62559  Biso   1.000  C
  C153     1.0000 0.96888  0.40960  0.63565  Biso   1.000  C
  H116     1.0000 0.97050  0.36090  0.68320  Biso   1.000  H
  H117     1.0000 0.00670  0.05150  0.01810  Biso   1.000  H
  C154     1.0000 0.93920  0.06830  0.05055  Biso   1.000  C
  C155     1.0000 0.90410  0.17740  0.05028  Biso   1.000  C
  H118     1.0000 0.94910  0.23550  0.01730  Biso   1.000  H
  H119     1.0000 0.45550  0.06010  0.05090  Biso   1.000  H
  C156     1.0000 0.54020  0.06130  0.07440  Biso   1.000  C
  C157     1.0000 0.61140  0.12530  0.04250  Biso   1.000  C
  H120     1.0000 0.57100  0.16900  0.99680  Biso   1.000  H
  H121     1.0000 0.01490  0.80560  0.89110  Biso   1.000  H
  C158     1.0000 0.93040  0.78580  0.86940  Biso   1.000  C
  H122     1.0000 0.84770  0.78330  0.84070  Biso   1.000  H
  C159     1.0000 0.12950  0.57490  0.01581  Biso   1.000  C
  H123     1.0000 0.08730  0.48520  0.61100  Biso   1.000  H
  C160     1.0000 0.00311  0.44607  0.61327  Biso   1.000  C
  H124     1.0000 0.92740  0.40040  0.62820  Biso   1.000  H
  H125     1.0000 0.93690  0.02510  0.05880  Biso   1.000  H
  C161     1.0000 0.90140  0.11320  0.06310  Biso   1.000  C
  H126     1.0000 0.87760  0.20950  0.05830  Biso   1.000  H
  H127     1.0000 0.53030  0.03620  0.09460  Biso   1.000  H
  C162     1.0000 0.59630  0.07940  0.07270  Biso   1.000  C
  H128     1.0000 0.65120  0.14240  0.04150  Biso   1.000  H
  C163     1.0000 0.91870  0.73600  0.89707  Biso   1.000  C
  C164     1.0000 0.11660  0.62350  0.04382  Biso   1.000  C
  O46      1.0000 0.98892  0.48997  0.94473  Biso   1.000  O
  O47      1.0000 0.94744  0.57997  0.99707  Biso   1.000  O
  C165     1.0000 0.97602  0.46863  0.57733  Biso   1.000  C
  C166     1.0000 0.85720  0.09500  0.09042  Biso   1.000  C
  C167     1.0000 0.64750  0.06640  0.10110  Biso   1.000  C
  C168     1.0000 0.86260  0.72900  0.91106  Biso   1.000  C
  C169     1.0000 0.96660  0.69730  0.91028  Biso   1.000  C
  C170     1.0000 0.15890  0.63470  0.07263  Biso   1.000  C
  C171     1.0000 0.06140  0.65660  0.04163  Biso   1.000  C
  O48      1.0000 0.85405  0.04020  0.10078  Biso   1.000  O
  O49      1.0000 0.63990  0.04040  0.12698  Biso   1.000  O
  H129     1.0000 0.82930  0.75490  0.90190  Biso   1.000  H
  C172     1.0000 0.85470  0.68530  0.93781  Biso   1.000  C
  C173     1.0000 0.95890  0.65210  0.93672  Biso   1.000  C
  H130     1.0000 0.00530  0.70190  0.90100  Biso   1.000  H
  H131     1.0000 0.19700  0.61300  0.07430  Biso   1.000  H
  C174     1.0000 0.14540  0.67800  0.09917  Biso   1.000  C
  C175     1.0000 0.04900  0.69930  0.06822  Biso   1.000  C
  H132     1.0000 0.03220  0.64940  0.02170  Biso   1.000  H
  H133     1.0000 0.81620  0.68150  0.94740  Biso   1.000  H
  C176     1.0000 0.90290  0.64640  0.95102  Biso   1.000  C
  H134     1.0000 0.99180  0.62490  0.94510  Biso   1.000  H
  H135     1.0000 0.17490  0.68590  0.11890  Biso   1.000  H
  C177     1.0000 0.09140  0.70950  0.09790  Biso   1.000  C
  H136     1.0000 0.01140  0.72200  0.06650  Biso   1.000  H
  C178     1.0000 0.89820  0.60090  0.98169  Biso   1.000  C
  C179     1.0000 0.07582  0.75580  0.12672  Biso   1.000  C
  C180     1.0000 0.12160  0.78970  0.14724  Biso   1.000  C
  C181     1.0000 0.01541  0.76670  0.13340  Biso   1.000  C
  H137     1.0000 0.16320  0.78260  0.14340  Biso   1.000  H
  C182     1.0000 0.10626  0.83370  0.17309  Biso   1.000  C
  C183     1.0000 0.00078  0.81020  0.15896  Biso   1.000  C
  H138     1.0000 0.98390  0.74360  0.12000  Biso   1.000  H
  H139     1.0000 0.13750  0.85660  0.18680  Biso   1.000  H
  C184     1.0000 0.04596  0.84460  0.17910  Biso   1.000  C
  H140     1.0000 0.95920  0.81710  0.16300  Biso   1.000  H
  C185     1.0000 0.03006  0.89393  0.20551  Biso   1.000  C
  C186     1.0000 0.50520  0.12480  0.02210  Biso   1.000  C
  C187     1.0000 0.55060  0.08140  0.01520  Biso   1.000  C
  H141     1.0000 0.54650  0.05760  0.99320  Biso   1.000  H
  C188     1.0000 0.60220  0.07150  0.03920  Biso   1.000  C
  H142     1.0000 0.63360  0.04380  0.03240  Biso   1.000  H
  C189     1.0000 0.60820  0.09890  0.07050  Biso   1.000  C
  C190     1.0000 0.56570  0.14870  0.08130  Biso   1.000  C
  H143     1.0000 0.57270  0.17260  0.10320  Biso   1.000  H
  C191     1.0000 0.51170  0.15850  0.05590  Biso   1.000  C
  H144     1.0000 0.48080  0.18760  0.06190  Biso   1.000  H
  C192     1.0000 0.66290  0.09080  0.09590  Biso   1.000  C
  O50      1.0000 0.70160  0.05400  0.09120  Biso   1.000  O
  O51      1.0000 0.67740  0.13060  0.12350  Biso   1.000  O
  O52      1.0000 0.26160  0.82620  0.83900  Biso   1.000  O
  Zn11     1.0000 0.22834  0.82009  0.35110  Biso   1.000  Zn
  N17      1.0000 0.22067  0.90855  0.32528  Biso   1.000  N
  O53      1.0000 0.17097  0.76757  0.31560  Biso   1.000  O
  O54      1.0000 0.16228  0.82692  0.38466  Biso   1.000  O
  O55      1.0000 0.29687  0.78293  0.32628  Biso   1.000  O
  O56      1.0000 0.28993  0.84433  0.39353  Biso   1.000  O
  C193     1.0000 0.15881  0.91394  0.30767  Biso   1.000  C
  C194     1.0000 0.23189  0.96276  0.35168  Biso   1.000  C
  C195     1.0000 0.26506  0.91578  0.29676  Biso   1.000  C
  C196     1.0000 0.16429  0.70840  0.31487  Biso   1.000  C
  C197     1.0000 0.15406  0.78440  0.40829  Biso   1.000  C
  C198     1.0000 0.32308  0.72930  0.32622  Biso   1.000  C
  C199     1.0000 0.31505  0.80300  0.41317  Biso   1.000  C
  N18      1.0000 0.14926  0.97575  0.28873  Biso   1.000  N
  H145     1.0000 0.15150  0.87830  0.29010  Biso   1.000  H
  H146     1.0000 0.12910  0.90980  0.32610  Biso   1.000  H
  N19      1.0000 0.22268  0.02573  0.33295  Biso   1.000  N
  H147     1.0000 0.27410  0.96010  0.36310  Biso   1.000  H
  H148     1.0000 0.20360  0.95910  0.37100  Biso   1.000  H
  N20      1.0000 0.25668  0.97769  0.27818  Biso   1.000  N
  H149     1.0000 0.25890  0.88040  0.27890  Biso   1.000  H
  H150     1.0000 0.30720  0.91280  0.30820  Biso   1.000  H
  O57      1.0000 0.18214  0.67003  0.33959  Biso   1.000  O
  C200     1.0000 0.13325  0.67948  0.28107  Biso   1.000  C
  O58      1.0000 0.17849  0.73075  0.41051  Biso   1.000  O
  C201     1.0000 0.11022  0.80211  0.43548  Biso   1.000  C
  O59      1.0000 0.30945  0.68192  0.34412  Biso   1.000  O
  C202     1.0000 0.37423  0.72280  0.30267  Biso   1.000  C
  O60      1.0000 0.30518  0.74390  0.41120  Biso   1.000  O
  C203     1.0000 0.36340  0.82510  0.44199  Biso   1.000  C
  Zn12     1.0000 0.06097  0.98029  0.26539  Biso   1.000  Zn
  C204     1.0000 0.16010  0.02900  0.31518  Biso   1.000  C
  C205     1.0000 0.19454  0.98207  0.26076  Biso   1.000  C
  Zn13     1.0000 0.23476  0.10236  0.36943  Biso   1.000  Zn
  C206     1.0000 0.26680  0.02958  0.30392  Biso   1.000  C
  Zn14     1.0000 0.24473  0.69186  0.38062  Biso   1.000  Zn
  C207     1.0000 0.09541  0.71640  0.25709  Biso   1.000  C
  C208     1.0000 0.14330  0.61500  0.27212  Biso   1.000  C
  C209     1.0000 0.07790  0.85930  0.43219  Biso   1.000  C
  C210     1.0000 0.10125  0.76290  0.46459  Biso   1.000  C
  C211     1.0000 0.38900  0.77380  0.28138  Biso   1.000  C
  C212     1.0000 0.40770  0.66850  0.30144  Biso   1.000  C
  C213     1.0000 0.37720  0.88570  0.44804  Biso   1.000  C
  C214     1.0000 0.39490  0.78010  0.46299  Biso   1.000  C
  O61      1.0000 0.01886  0.03843  0.29899  Biso   1.000  O
  O62      1.0000 0.07106  0.05702  0.23284  Biso   1.000  O
  O63      1.0000 0.07371  0.92202  0.22336  Biso   1.000  O
  O64      1.0000 0.02601  0.90466  0.29129  Biso   1.000  O
  H151     1.0000 0.13040  0.02610  0.33370  Biso   1.000  H
  H152     1.0000 0.15400  0.07080  0.30260  Biso   1.000  H
  H153     1.0000 0.18890  0.02400  0.24820  Biso   1.000  H
  H154     1.0000 0.18780  0.94750  0.24250  Biso   1.000  H
  O65      1.0000 0.20090  0.16270  0.33024  Biso   1.000  O
  O66      1.0000 0.17500  0.13880  0.39863  Biso   1.000  O
  O67      1.0000 0.29890  0.09350  0.40720  Biso   1.000  O
  H155     1.0000 0.30910  0.02730  0.31530  Biso   1.000  H
  H156     1.0000 0.26170  0.07130  0.29110  Biso   1.000  H
  N21      1.0000 0.25854  0.60297  0.40451  Biso   1.000  N
  H157     1.0000 0.08770  0.76000  0.26280  Biso   1.000  H
  C215     1.0000 0.06900  0.69050  0.22520  Biso   1.000  C
  C216     1.0000 0.11910  0.58990  0.23973  Biso   1.000  C
  H158     1.0000 0.16710  0.58830  0.28860  Biso   1.000  H
  H159     1.0000 0.08290  0.88710  0.41230  Biso   1.000  H
  C217     1.0000 0.03780  0.87650  0.45793  Biso   1.000  C
  C218     1.0000 0.06183  0.77950  0.48986  Biso   1.000  C
  H160     1.0000 0.12290  0.72340  0.46720  Biso   1.000  H
  H161     1.0000 0.36540  0.81210  0.28130  Biso   1.000  H
  C219     1.0000 0.43680  0.77020  0.26055  Biso   1.000  C
  C220     1.0000 0.45700  0.66540  0.28097  Biso   1.000  C
  H162     1.0000 0.39720  0.63190  0.31490  Biso   1.000  H
  H163     1.0000 0.35540  0.91800  0.43420  Biso   1.000  H
  C221     1.0000 0.42260  0.90380  0.47392  Biso   1.000  C
  C222     1.0000 0.44190  0.79920  0.48872  Biso   1.000  C
  H164     1.0000 0.38500  0.73580  0.46020  Biso   1.000  H
  C223     1.0000 0.96850  0.06690  0.29365  Biso   1.000  C
  C224     1.0000 0.20819  0.58924  0.42626  Biso   1.000  C
  C225     1.0000 0.31630  0.59750  0.42816  Biso   1.000  C
  C226     1.0000 0.25950  0.54970  0.37629  Biso   1.000  C
  H165     1.0000 0.04240  0.71600  0.20960  Biso   1.000  H
  C227     1.0000 0.08130  0.62650  0.21578  Biso   1.000  C
  H166     1.0000 0.12840  0.54690  0.23360  Biso   1.000  H
  H167     1.0000 0.01640  0.91610  0.45560  Biso   1.000  H
  C228     1.0000 0.02910  0.83620  0.48674  Biso   1.000  C
  H168     1.0000 0.05700  0.75160  0.50970  Biso   1.000  H
  H169     1.0000 0.44560  0.80580  0.24580  Biso   1.000  H
  C229     1.0000 0.47250  0.71630  0.26043  Biso   1.000  C
  H170     1.0000 0.48060  0.62720  0.28110  Biso   1.000  H
  H171     1.0000 0.43110  0.94840  0.47670  Biso   1.000  H
  C230     1.0000 0.45430  0.86420  0.49458  Biso   1.000  C
  H172     1.0000 0.46530  0.76770  0.50220  Biso   1.000  H
  C231     1.0000 0.95460  0.11910  0.31960  Biso   1.000  C
  N22      1.0000 0.21307  0.52578  0.44352  Biso   1.000  N
  H173     1.0000 0.20690  0.62260  0.44520  Biso   1.000  H
  H174     1.0000 0.16950  0.59150  0.41070  Biso   1.000  H
  N23      1.0000 0.32340  0.53340  0.44497  Biso   1.000  N
  H175     1.0000 0.31680  0.63060  0.44740  Biso   1.000  H
  H176     1.0000 0.35110  0.60590  0.41360  Biso   1.000  H
  N24      1.0000 0.26400  0.48790  0.39229  Biso   1.000  N
  H177     1.0000 0.29460  0.55640  0.36170  Biso   1.000  H
  H178     1.0000 0.22180  0.55200  0.35980  Biso   1.000  H
  C232     1.0000 0.05421  0.59975  0.18058  Biso   1.000  C
  C233     1.0000 0.98520  0.85350  0.51327  Biso   1.000  C
  C234     1.0000 0.50510  0.88520  0.51990  Biso   1.000  C
  C235     1.0000 0.99800  0.13220  0.34878  Biso   1.000  C
  C236     1.0000 0.89900  0.15020  0.31698  Biso   1.000  C
  Zn15     1.0000 0.13629  0.51619  0.47176  Biso   1.000  Zn
  C237     1.0000 0.27140  0.52260  0.46612  Biso   1.000  C
  C238     1.0000 0.21410  0.47670  0.41401  Biso   1.000  C
  C239     1.0000 0.32050  0.48640  0.41630  Biso   1.000  C
  C240     1.0000 0.08790  0.56230  0.15884  Biso   1.000  C
  C241     1.0000 0.99443  0.61350  0.16863  Biso   1.000  C
  C242     1.0000 0.98070  0.91610  0.52623  Biso   1.000  C
  C243     1.0000 0.94660  0.80760  0.52571  Biso   1.000  C
  C244     1.0000 0.49530  0.92350  0.54880  Biso   1.000  C
  C245     1.0000 0.56400  0.85880  0.51640  Biso   1.000  C
  H179     1.0000 0.03470  0.10820  0.35230  Biso   1.000  H
  C246     1.0000 0.98490  0.18230  0.37244  Biso   1.000  C
  C247     1.0000 0.88660  0.19670  0.34216  Biso   1.000  C
  H180     1.0000 0.86920  0.13980  0.29790  Biso   1.000  H
  O68      1.0000 0.18185  0.44471  0.51233  Biso   1.000  O
  O69      1.0000 0.08486  0.44694  0.49471  Biso   1.000  O
  O70      1.0000 0.08168  0.53538  0.42809  Biso   1.000  O
  O71      1.0000 0.15337  0.58890  0.50745  Biso   1.000  O
  H181     1.0000 0.27540  0.47970  0.47780  Biso   1.000  H
  H182     1.0000 0.27150  0.55540  0.48550  Biso   1.000  H
  H183     1.0000 0.17530  0.47850  0.39850  Biso   1.000  H
  H184     1.0000 0.21790  0.43320  0.42480  Biso   1.000  H
  H185     1.0000 0.35530  0.49340  0.40150  Biso   1.000  H
  H186     1.0000 0.32510  0.44300  0.42720  Biso   1.000  H
  H187     1.0000 0.12890  0.55160  0.16680  Biso   1.000  H
  C248     1.0000 0.06302  0.54000  0.12559  Biso   1.000  C
  C249     1.0000 0.96888  0.59040  0.13565  Biso   1.000  C
  H188     1.0000 0.97050  0.63910  0.18320  Biso   1.000  H
  H189     1.0000 0.00670  0.94850  0.51810  Biso   1.000  H
  C250     1.0000 0.93920  0.93170  0.55055  Biso   1.000  C
  C251     1.0000 0.90410  0.82260  0.55028  Biso   1.000  C
  H190     1.0000 0.94910  0.76450  0.51730  Biso   1.000  H
  H191     1.0000 0.45550  0.93990  0.55090  Biso   1.000  H
  C252     1.0000 0.54020  0.93870  0.57440  Biso   1.000  C
  C253     1.0000 0.61140  0.87470  0.54250  Biso   1.000  C
  H192     1.0000 0.57100  0.83100  0.49680  Biso   1.000  H
  H193     1.0000 0.01490  0.19440  0.39110  Biso   1.000  H
  C254     1.0000 0.93040  0.21420  0.36940  Biso   1.000  C
  H194     1.0000 0.84770  0.21670  0.34070  Biso   1.000  H
  C255     1.0000 0.12950  0.42510  0.51581  Biso   1.000  C
  H195     1.0000 0.08730  0.51480  0.11100  Biso   1.000  H
  C256     1.0000 0.00311  0.55393  0.11327  Biso   1.000  C
  H196     1.0000 0.92740  0.59960  0.12820  Biso   1.000  H
  H197     1.0000 0.93690  0.97490  0.55880  Biso   1.000  H
  C257     1.0000 0.90140  0.88680  0.56310  Biso   1.000  C
  H198     1.0000 0.87760  0.79050  0.55830  Biso   1.000  H
  H199     1.0000 0.53030  0.96380  0.59460  Biso   1.000  H
  C258     1.0000 0.59630  0.92060  0.57270  Biso   1.000  C
  H200     1.0000 0.65120  0.85760  0.54150  Biso   1.000  H
  C259     1.0000 0.91870  0.26400  0.39707  Biso   1.000  C
  C260     1.0000 0.11660  0.37650  0.54382  Biso   1.000  C
  O72      1.0000 0.98892  0.51003  0.44473  Biso   1.000  O
  O73      1.0000 0.94744  0.42003  0.49707  Biso   1.000  O
  C261     1.0000 0.97602  0.53137  0.07733  Biso   1.000  C
  C262     1.0000 0.85720  0.90500  0.59042  Biso   1.000  C
  C263     1.0000 0.64750  0.93360  0.60110  Biso   1.000  C
  C264     1.0000 0.86260  0.27100  0.41106  Biso   1.000  C
  C265     1.0000 0.96660  0.30270  0.41028  Biso   1.000  C
  C266     1.0000 0.15890  0.36530  0.57263  Biso   1.000  C
  C267     1.0000 0.06140  0.34340  0.54163  Biso   1.000  C
  O74      1.0000 0.85405  0.95980  0.60078  Biso   1.000  O
  O75      1.0000 0.63990  0.95960  0.62698  Biso   1.000  O
  H201     1.0000 0.82930  0.24510  0.40190  Biso   1.000  H
  C268     1.0000 0.85470  0.31470  0.43781  Biso   1.000  C
  C269     1.0000 0.95890  0.34790  0.43672  Biso   1.000  C
  H202     1.0000 0.00530  0.29810  0.40100  Biso   1.000  H
  H203     1.0000 0.19700  0.38700  0.57430  Biso   1.000  H
  C270     1.0000 0.14540  0.32200  0.59917  Biso   1.000  C
  C271     1.0000 0.04900  0.30070  0.56822  Biso   1.000  C
  H204     1.0000 0.03220  0.35060  0.52170  Biso   1.000  H
  H205     1.0000 0.81620  0.31850  0.44740  Biso   1.000  H
  C272     1.0000 0.90290  0.35360  0.45102  Biso   1.000  C
  H206     1.0000 0.99180  0.37510  0.44510  Biso   1.000  H
  H207     1.0000 0.17490  0.31410  0.61890  Biso   1.000  H
  C273     1.0000 0.09140  0.29050  0.59790  Biso   1.000  C
  H208     1.0000 0.01140  0.27800  0.56650  Biso   1.000  H
  C274     1.0000 0.89820  0.39910  0.48169  Biso   1.000  C
  C275     1.0000 0.07582  0.24420  0.62672  Biso   1.000  C
  C276     1.0000 0.12160  0.21030  0.64724  Biso   1.000  C
  C277     1.0000 0.01541  0.23330  0.63340  Biso   1.000  C
  H209     1.0000 0.16320  0.21740  0.64340  Biso   1.000  H
  C278     1.0000 0.10626  0.16630  0.67309  Biso   1.000  C
  C279     1.0000 0.00078  0.18980  0.65896  Biso   1.000  C
  H210     1.0000 0.98390  0.25640  0.62000  Biso   1.000  H
  H211     1.0000 0.13750  0.14340  0.68680  Biso   1.000  H
  C280     1.0000 0.04596  0.15540  0.67910  Biso   1.000  C
  H212     1.0000 0.95920  0.18290  0.66300  Biso   1.000  H
  C281     1.0000 0.03006  0.10607  0.70551  Biso   1.000  C
  C282     1.0000 0.50520  0.87520  0.52210  Biso   1.000  C
  C283     1.0000 0.55060  0.91860  0.51520  Biso   1.000  C
  H213     1.0000 0.54650  0.94240  0.49320  Biso   1.000  H
  C284     1.0000 0.60220  0.92850  0.53920  Biso   1.000  C
  H214     1.0000 0.63360  0.95620  0.53240  Biso   1.000  H
  C285     1.0000 0.60820  0.90110  0.57050  Biso   1.000  C
  C286     1.0000 0.56570  0.85130  0.58130  Biso   1.000  C
  H215     1.0000 0.57270  0.82740  0.60320  Biso   1.000  H
  C287     1.0000 0.51170  0.84150  0.55590  Biso   1.000  C
  H216     1.0000 0.48080  0.81240  0.56190  Biso   1.000  H
  C288     1.0000 0.66290  0.90920  0.59590  Biso   1.000  C
  O76      1.0000 0.70160  0.94600  0.59120  Biso   1.000  O
  O77      1.0000 0.67740  0.86940  0.62350  Biso   1.000  O
  O78      1.0000 0.26160  0.17380  0.33900  Biso   1.000  O
  Zn16     1.0000 0.77166  0.82009  0.14890  Biso   1.000  Zn
  N25      1.0000 0.77933  0.90855  0.17472  Biso   1.000  N
  O79      1.0000 0.82903  0.76757  0.18440  Biso   1.000  O
  O80      1.0000 0.83772  0.82692  0.11534  Biso   1.000  O
  O81      1.0000 0.70313  0.78293  0.17372  Biso   1.000  O
  O82      1.0000 0.71007  0.84433  0.10647  Biso   1.000  O
  C289     1.0000 0.84119  0.91394  0.19233  Biso   1.000  C
  C290     1.0000 0.76811  0.96276  0.14832  Biso   1.000  C
  C291     1.0000 0.73494  0.91578  0.20324  Biso   1.000  C
  C292     1.0000 0.83571  0.70840  0.18513  Biso   1.000  C
  C293     1.0000 0.84594  0.78440  0.09171  Biso   1.000  C
  C294     1.0000 0.67692  0.72930  0.17378  Biso   1.000  C
  C295     1.0000 0.68495  0.80300  0.08683  Biso   1.000  C
  N26      1.0000 0.85074  0.97575  0.21127  Biso   1.000  N
  H217     1.0000 0.84850  0.87830  0.20990  Biso   1.000  H
  H218     1.0000 0.87090  0.90980  0.17390  Biso   1.000  H
  N27      1.0000 0.77732  0.02573  0.16705  Biso   1.000  N
  H219     1.0000 0.72590  0.96010  0.13690  Biso   1.000  H
  H220     1.0000 0.79640  0.95910  0.12900  Biso   1.000  H
  N28      1.0000 0.74332  0.97769  0.22182  Biso   1.000  N
  H221     1.0000 0.74110  0.88040  0.22110  Biso   1.000  H
  H222     1.0000 0.69280  0.91280  0.19180  Biso   1.000  H
  O83      1.0000 0.81786  0.67003  0.16041  Biso   1.000  O
  C296     1.0000 0.86675  0.67948  0.21893  Biso   1.000  C
  O84      1.0000 0.82151  0.73075  0.08949  Biso   1.000  O
  C297     1.0000 0.88978  0.80211  0.06452  Biso   1.000  C
  O85      1.0000 0.69055  0.68192  0.15588  Biso   1.000  O
  C298     1.0000 0.62577  0.72280  0.19733  Biso   1.000  C
  O86      1.0000 0.69482  0.74390  0.08880  Biso   1.000  O
  C299     1.0000 0.63660  0.82510  0.05801  Biso   1.000  C
  Zn17     1.0000 0.93903  0.98029  0.23461  Biso   1.000  Zn
  C300     1.0000 0.83990  0.02900  0.18482  Biso   1.000  C
  C301     1.0000 0.80546  0.98207  0.23924  Biso   1.000  C
  Zn18     1.0000 0.76524  0.10236  0.13057  Biso   1.000  Zn
  C302     1.0000 0.73320  0.02958  0.19608  Biso   1.000  C
  Zn19     1.0000 0.75526  0.69186  0.11938  Biso   1.000  Zn
  C303     1.0000 0.90459  0.71640  0.24291  Biso   1.000  C
  C304     1.0000 0.85670  0.61500  0.22788  Biso   1.000  C
  C305     1.0000 0.92210  0.85930  0.06781  Biso   1.000  C
  C306     1.0000 0.89875  0.76290  0.03541  Biso   1.000  C
  C307     1.0000 0.61100  0.77380  0.21862  Biso   1.000  C
  C308     1.0000 0.59230  0.66850  0.19856  Biso   1.000  C
  C309     1.0000 0.62280  0.88570  0.05196  Biso   1.000  C
  C310     1.0000 0.60510  0.78010  0.03701  Biso   1.000  C
  O87      1.0000 0.98114  0.03843  0.20101  Biso   1.000  O
  O88      1.0000 0.92894  0.05702  0.26716  Biso   1.000  O
  O89      1.0000 0.92629  0.92202  0.27664  Biso   1.000  O
  O90      1.0000 0.97399  0.90466  0.20871  Biso   1.000  O
  H223     1.0000 0.86960  0.02610  0.16630  Biso   1.000  H
  H224     1.0000 0.84600  0.07080  0.19740  Biso   1.000  H
  H225     1.0000 0.81110  0.02400  0.25180  Biso   1.000  H
  H226     1.0000 0.81220  0.94750  0.25750  Biso   1.000  H
  O91      1.0000 0.79910  0.16270  0.16976  Biso   1.000  O
  O92      1.0000 0.82500  0.13880  0.10137  Biso   1.000  O
  O93      1.0000 0.70110  0.09350  0.09280  Biso   1.000  O
  H227     1.0000 0.69090  0.02730  0.18470  Biso   1.000  H
  H228     1.0000 0.73830  0.07130  0.20890  Biso   1.000  H
  N29      1.0000 0.74146  0.60297  0.09549  Biso   1.000  N
  H229     1.0000 0.91230  0.76000  0.23720  Biso   1.000  H
  C311     1.0000 0.93100  0.69050  0.27480  Biso   1.000  C
  C312     1.0000 0.88090  0.58990  0.26027  Biso   1.000  C
  H230     1.0000 0.83290  0.58830  0.21140  Biso   1.000  H
  H231     1.0000 0.91710  0.88710  0.08770  Biso   1.000  H
  C313     1.0000 0.96220  0.87650  0.04207  Biso   1.000  C
  C314     1.0000 0.93817  0.77950  0.01014  Biso   1.000  C
  H232     1.0000 0.87710  0.72340  0.03280  Biso   1.000  H
  H233     1.0000 0.63460  0.81210  0.21870  Biso   1.000  H
  C315     1.0000 0.56320  0.77020  0.23945  Biso   1.000  C
  C316     1.0000 0.54300  0.66540  0.21903  Biso   1.000  C
  H234     1.0000 0.60280  0.63190  0.18510  Biso   1.000  H
  H235     1.0000 0.64460  0.91800  0.06580  Biso   1.000  H
  C317     1.0000 0.57740  0.90380  0.02608  Biso   1.000  C
  C318     1.0000 0.55810  0.79920  0.01128  Biso   1.000  C
  H236     1.0000 0.61500  0.73580  0.03980  Biso   1.000  H
  C319     1.0000 0.03150  0.06690  0.20635  Biso   1.000  C
  C320     1.0000 0.79181  0.58924  0.07374  Biso   1.000  C
  C321     1.0000 0.68370  0.59750  0.07184  Biso   1.000  C
  C322     1.0000 0.74050  0.54970  0.12371  Biso   1.000  C
  H237     1.0000 0.95760  0.71600  0.29040  Biso   1.000  H
  C323     1.0000 0.91870  0.62650  0.28422  Biso   1.000  C
  H238     1.0000 0.87160  0.54690  0.26640  Biso   1.000  H
  H239     1.0000 0.98360  0.91610  0.04440  Biso   1.000  H
  C324     1.0000 0.97090  0.83620  0.01326  Biso   1.000  C
  H240     1.0000 0.94300  0.75160  0.99030  Biso   1.000  H
  H241     1.0000 0.55440  0.80580  0.25420  Biso   1.000  H
  C325     1.0000 0.52750  0.71630  0.23957  Biso   1.000  C
  H242     1.0000 0.51940  0.62720  0.21890  Biso   1.000  H
  H243     1.0000 0.56890  0.94840  0.02330  Biso   1.000  H
  C326     1.0000 0.54570  0.86420  0.00542  Biso   1.000  C
  H244     1.0000 0.53470  0.76770  0.99780  Biso   1.000  H
  C327     1.0000 0.04540  0.11910  0.18040  Biso   1.000  C
  N30      1.0000 0.78693  0.52578  0.05648  Biso   1.000  N
  H245     1.0000 0.79310  0.62260  0.05480  Biso   1.000  H
  H246     1.0000 0.83050  0.59150  0.08930  Biso   1.000  H
  N31      1.0000 0.67660  0.53340  0.05503  Biso   1.000  N
  H247     1.0000 0.68320  0.63060  0.05260  Biso   1.000  H
  H248     1.0000 0.64890  0.60590  0.08640  Biso   1.000  H
  N32      1.0000 0.73600  0.48790  0.10771  Biso   1.000  N
  H249     1.0000 0.70540  0.55640  0.13830  Biso   1.000  H
  H250     1.0000 0.77820  0.55200  0.14020  Biso   1.000  H
  C328     1.0000 0.94579  0.59975  0.31942  Biso   1.000  C
  C329     1.0000 0.01480  0.85350  0.98673  Biso   1.000  C
  C330     1.0000 0.49490  0.88520  0.98010  Biso   1.000  C
  C331     1.0000 0.00200  0.13220  0.15122  Biso   1.000  C
  C332     1.0000 0.10100  0.15020  0.18302  Biso   1.000  C
  Zn20     1.0000 0.86371  0.51619  0.02824  Biso   1.000  Zn
  C333     1.0000 0.72860  0.52260  0.03388  Biso   1.000  C
  C334     1.0000 0.78590  0.47670  0.08599  Biso   1.000  C
  C335     1.0000 0.67950  0.48640  0.08370  Biso   1.000  C
  C336     1.0000 0.91210  0.56230  0.34116  Biso   1.000  C
  C337     1.0000 0.00557  0.61350  0.33137  Biso   1.000  C
  C338     1.0000 0.01930  0.91610  0.97377  Biso   1.000  C
  C339     1.0000 0.05340  0.80760  0.97429  Biso   1.000  C
  C340     1.0000 0.50470  0.92350  0.95120  Biso   1.000  C
  C341     1.0000 0.43600  0.85880  0.98360  Biso   1.000  C
  H251     1.0000 0.96530  0.10820  0.14770  Biso   1.000  H
  C342     1.0000 0.01510  0.18230  0.12756  Biso   1.000  C
  C343     1.0000 0.11340  0.19670  0.15784  Biso   1.000  C
  H252     1.0000 0.13080  0.13980  0.20210  Biso   1.000  H
  O94      1.0000 0.81815  0.44471  0.98767  Biso   1.000  O
  O95      1.0000 0.91514  0.44694  0.00529  Biso   1.000  O
  O96      1.0000 0.91832  0.53538  0.07191  Biso   1.000  O
  O97      1.0000 0.84663  0.58890  0.99255  Biso   1.000  O
  H253     1.0000 0.72460  0.47970  0.02220  Biso   1.000  H
  H254     1.0000 0.72850  0.55540  0.01450  Biso   1.000  H
  H255     1.0000 0.82470  0.47850  0.10150  Biso   1.000  H
  H256     1.0000 0.78210  0.43320  0.07520  Biso   1.000  H
  H257     1.0000 0.64470  0.49340  0.09850  Biso   1.000  H
  H258     1.0000 0.67490  0.44300  0.07280  Biso   1.000  H
  H259     1.0000 0.87110  0.55160  0.33320  Biso   1.000  H
  C344     1.0000 0.93698  0.54000  0.37441  Biso   1.000  C
  C345     1.0000 0.03112  0.59040  0.36435  Biso   1.000  C
  H260     1.0000 0.02950  0.63910  0.31680  Biso   1.000  H
  H261     1.0000 0.99330  0.94850  0.98190  Biso   1.000  H
  C346     1.0000 0.06080  0.93170  0.94945  Biso   1.000  C
  C347     1.0000 0.09590  0.82260  0.94972  Biso   1.000  C
  H262     1.0000 0.05090  0.76450  0.98270  Biso   1.000  H
  H263     1.0000 0.54450  0.93990  0.94910  Biso   1.000  H
  C348     1.0000 0.45980  0.93870  0.92560  Biso   1.000  C
  C349     1.0000 0.38860  0.87470  0.95750  Biso   1.000  C
  H264     1.0000 0.42900  0.83100  0.00320  Biso   1.000  H
  H265     1.0000 0.98510  0.19440  0.10890  Biso   1.000  H
  C350     1.0000 0.06960  0.21420  0.13060  Biso   1.000  C
  H266     1.0000 0.15230  0.21670  0.15930  Biso   1.000  H
  C351     1.0000 0.87050  0.42510  0.98419  Biso   1.000  C
  H267     1.0000 0.91270  0.51480  0.38900  Biso   1.000  H
  C352     1.0000 0.99689  0.55393  0.38673  Biso   1.000  C
  H268     1.0000 0.07260  0.59960  0.37180  Biso   1.000  H
  H269     1.0000 0.06310  0.97490  0.94120  Biso   1.000  H
  C353     1.0000 0.09860  0.88680  0.93690  Biso   1.000  C
  H270     1.0000 0.12240  0.79050  0.94170  Biso   1.000  H
  H271     1.0000 0.46970  0.96380  0.90540  Biso   1.000  H
  C354     1.0000 0.40370  0.92060  0.92730  Biso   1.000  C
  H272     1.0000 0.34880  0.85760  0.95850  Biso   1.000  H
  C355     1.0000 0.08130  0.26400  0.10293  Biso   1.000  C
  C356     1.0000 0.88340  0.37650  0.95618  Biso   1.000  C
  O98      1.0000 0.01108  0.51003  0.05527  Biso   1.000  O
  O99      1.0000 0.05256  0.42003  0.00293  Biso   1.000  O
  C357     1.0000 0.02398  0.53137  0.42267  Biso   1.000  C
  C358     1.0000 0.14280  0.90500  0.90958  Biso   1.000  C
  C359     1.0000 0.35250  0.93360  0.89890  Biso   1.000  C
  C360     1.0000 0.13740  0.27100  0.08894  Biso   1.000  C
  C361     1.0000 0.03340  0.30270  0.08972  Biso   1.000  C
  C362     1.0000 0.84110  0.36530  0.92737  Biso   1.000  C
  C363     1.0000 0.93860  0.34340  0.95837  Biso   1.000  C
  O100     1.0000 0.14595  0.95980  0.89922  Biso   1.000  O
  O101     1.0000 0.36010  0.95960  0.87302  Biso   1.000  O
  H273     1.0000 0.17070  0.24510  0.09810  Biso   1.000  H
  C364     1.0000 0.14530  0.31470  0.06219  Biso   1.000  C
  C365     1.0000 0.04110  0.34790  0.06328  Biso   1.000  C
  H274     1.0000 0.99470  0.29810  0.09900  Biso   1.000  H
  H275     1.0000 0.80300  0.38700  0.92570  Biso   1.000  H
  C366     1.0000 0.85460  0.32200  0.90083  Biso   1.000  C
  C367     1.0000 0.95100  0.30070  0.93178  Biso   1.000  C
  H276     1.0000 0.96780  0.35060  0.97830  Biso   1.000  H
  H277     1.0000 0.18380  0.31850  0.05260  Biso   1.000  H
  C368     1.0000 0.09710  0.35360  0.04898  Biso   1.000  C
  H278     1.0000 0.00820  0.37510  0.05490  Biso   1.000  H
  H279     1.0000 0.82510  0.31410  0.88110  Biso   1.000  H
  C369     1.0000 0.90860  0.29050  0.90210  Biso   1.000  C
  H280     1.0000 0.98860  0.27800  0.93350  Biso   1.000  H
  C370     1.0000 0.10180  0.39910  0.01831  Biso   1.000  C
  C371     1.0000 0.92418  0.24420  0.87328  Biso   1.000  C
  C372     1.0000 0.87840  0.21030  0.85276  Biso   1.000  C
  C373     1.0000 0.98459  0.23330  0.86660  Biso   1.000  C
  H281     1.0000 0.83680  0.21740  0.85660  Biso   1.000  H
  C374     1.0000 0.89374  0.16630  0.82691  Biso   1.000  C
  C375     1.0000 0.99922  0.18980  0.84104  Biso   1.000  C
  H282     1.0000 0.01610  0.25640  0.88000  Biso   1.000  H
  H283     1.0000 0.86250  0.14340  0.81320  Biso   1.000  H
  C376     1.0000 0.95404  0.15540  0.82090  Biso   1.000  C
  H284     1.0000 0.04080  0.18290  0.83700  Biso   1.000  H
  C377     1.0000 0.96994  0.10607  0.79449  Biso   1.000  C
  C378     1.0000 0.49480  0.87520  0.97790  Biso   1.000  C
  C379     1.0000 0.44940  0.91860  0.98480  Biso   1.000  C
  H285     1.0000 0.45350  0.94240  0.00680  Biso   1.000  H
  C380     1.0000 0.39780  0.92850  0.96080  Biso   1.000  C
  H286     1.0000 0.36640  0.95620  0.96760  Biso   1.000  H
  C381     1.0000 0.39180  0.90110  0.92950  Biso   1.000  C
  C382     1.0000 0.43430  0.85130  0.91870  Biso   1.000  C
  H287     1.0000 0.42730  0.82740  0.89680  Biso   1.000  H
  C383     1.0000 0.48830  0.84150  0.94410  Biso   1.000  C
  H288     1.0000 0.51920  0.81240  0.93810  Biso   1.000  H
  C384     1.0000 0.33710  0.90920  0.90410  Biso   1.000  C
  O102     1.0000 0.29840  0.94600  0.90880  Biso   1.000  O
  O103     1.0000 0.32260  0.86940  0.87650  Biso   1.000  O
  O104     1.0000 0.73840  0.17380  0.16100  Biso   1.000  O
  Zn21     1.0000 0.00000  0.50000  0.50000  Biso   1.000  Zn
  Zn22     1.0000 0.00000  0.50000  0.00000  Biso   1.000  Zn
