data_image0
_cell_length_a       35.61
_cell_length_b       17.813
_cell_length_c       32.235
_cell_angle_alpha    90
_cell_angle_beta     112.749
_cell_angle_gamma    90

_symmetry_space_group_name_H-M    "P 1"
_symmetry_int_tables_number       1

loop_
  _symmetry_equiv_pos_as_xyz
  'x, y, z'

loop_
  _atom_site_label
  _atom_site_occupancy
  _atom_site_fract_x
  _atom_site_fract_y
  _atom_site_fract_z
  _atom_site_thermal_displace_type
  _atom_site_B_iso_or_equiv
  _atom_site_type_symbol
  C1       1.0000 0.16160  0.37750  0.32230  Biso   1.000  C
  C2       1.0000 0.15050  0.30880  0.33470  Biso   1.000  C
  C3       1.0000 0.11970  0.30580  0.34930  Biso   1.000  C
  H1       1.0000 0.11240  0.25900  0.35810  Biso   1.000  H
  C4       1.0000 0.09870  0.36990  0.35160  Biso   1.000  C
  C5       1.0000 0.10940  0.43620  0.33790  Biso   1.000  C
  H2       1.0000 0.09470  0.48040  0.33860  Biso   1.000  H
  C6       1.0000 0.14010  0.44100  0.32360  Biso   1.000  C
  C7       1.0000 0.15360  0.51600  0.31250  Biso   1.000  C
  H3       1.0000 0.14700  0.55490  0.33060  Biso   1.000  H
  H4       1.0000 0.18360  0.51490  0.32220  Biso   1.000  H
  C8       1.0000 0.13550  0.54000  0.26390  Biso   1.000  C
  C9       1.0000 0.10700  0.59560  0.25090  Biso   1.000  C
  H5       1.0000 0.09760  0.61680  0.27220  Biso   1.000  H
  C10      1.0000 0.09210  0.62050  0.20890  Biso   1.000  C
  C11      1.0000 0.10510  0.58960  0.17730  Biso   1.000  C
  H6       1.0000 0.09490  0.60860  0.14750  Biso   1.000  H
  C12      1.0000 0.13230  0.53230  0.18880  Biso   1.000  C
  C13      1.0000 0.14830  0.50840  0.23280  Biso   1.000  C
  C14      1.0000 0.14600  0.49790  0.15500  Biso   1.000  C
  H7       1.0000 0.15090  0.44370  0.16180  Biso   1.000  H
  H8       1.0000 0.12370  0.50230  0.12490  Biso   1.000  H
  C15      1.0000 0.18320  0.53120  0.15280  Biso   1.000  C
  C16      1.0000 0.17950  0.59320  0.12600  Biso   1.000  C
  H9       1.0000 0.15350  0.61540  0.11060  Biso   1.000  H
  C17      1.0000 0.21270  0.62270  0.12150  Biso   1.000  C
  C18      1.0000 0.24990  0.58910  0.14210  Biso   1.000  C
  H10      1.0000 0.27300  0.60800  0.13770  Biso   1.000  H
  C19      1.0000 0.25350  0.52850  0.16900  Biso   1.000  C
  C20      1.0000 0.22050  0.50140  0.17430  Biso   1.000  C
  C21      1.0000 0.29510  0.49340  0.19250  Biso   1.000  C
  H11      1.0000 0.31300  0.52960  0.21460  Biso   1.000  H
  H12      1.0000 0.29240  0.44850  0.20930  Biso   1.000  H
  C22      1.0000 0.31460  0.47080  0.16050  Biso   1.000  C
  C23      1.0000 0.34590  0.50930  0.15940  Biso   1.000  C
  H13      1.0000 0.35500  0.55230  0.17800  Biso   1.000  H
  C24      1.0000 0.36580  0.48840  0.13180  Biso   1.000  C
  C25      1.0000 0.35160  0.43020  0.10470  Biso   1.000  C
  H14      1.0000 0.36440  0.41690  0.08470  Biso   1.000  H
  C26      1.0000 0.31900  0.38820  0.10410  Biso   1.000  C
  C27      1.0000 0.30140  0.40670  0.13330  Biso   1.000  C
  C28      1.0000 0.30600  0.32280  0.07360  Biso   1.000  C
  H15      1.0000 0.31110  0.27670  0.09210  Biso   1.000  H
  H16      1.0000 0.32310  0.32030  0.05580  Biso   1.000  H
  C29      1.0000 0.26210  0.32310  0.04180  Biso   1.000  C
  C30      1.0000 0.25030  0.36330  0.00300  Biso   1.000  C
  H17      1.0000 0.26940  0.39260  0.99630  Biso   1.000  H
  C31      1.0000 0.21060  0.36080  0.97410  Biso   1.000  C
  C32      1.0000 0.18390  0.31360  0.98230  Biso   1.000  C
  H18      1.0000 0.15640  0.31090  0.96150  Biso   1.000  H
  C33      1.0000 0.19660  0.27020  0.02040  Biso   1.000  C
  C34      1.0000 0.23550  0.27900  0.05100  Biso   1.000  C
  C35      1.0000 0.16730  0.21720  0.02590  Biso   1.000  C
  H19      1.0000 0.18110  0.16860  0.03670  Biso   1.000  H
  H20      1.0000 0.14510  0.20840  0.99630  Biso   1.000  H
  C36      1.0000 0.14940  0.24400  0.05810  Biso   1.000  C
  C37      1.0000 0.11570  0.28510  0.04400  Biso   1.000  C
  H21      1.0000 0.10160  0.29390  0.01270  Biso   1.000  H
  C38      1.0000 0.10130  0.31450  0.07350  Biso   1.000  C
  C39      1.0000 0.12230  0.30280  0.11790  Biso   1.000  C
  H22      1.0000 0.11270  0.32500  0.13880  Biso   1.000  H
  C40      1.0000 0.15640  0.26060  0.13350  Biso   1.000  C
  C41      1.0000 0.16940  0.22860  0.10320  Biso   1.000  C
  C42      1.0000 0.18220  0.25570  0.18330  Biso   1.000  C
  H23      1.0000 0.20760  0.22860  0.18720  Biso   1.000  H
  H24      1.0000 0.18990  0.30730  0.19490  Biso   1.000  H
  C43      1.0000 0.16330  0.21840  0.21090  Biso   1.000  C
  C44      1.0000 0.13060  0.17000  0.19450  Biso   1.000  C
  H25      1.0000 0.12010  0.15550  0.16380  Biso   1.000  H
  C45      1.0000 0.11380  0.14400  0.22180  Biso   1.000  C
  C46      1.0000 0.12680  0.16740  0.26590  Biso   1.000  C
  H26      1.0000 0.11280  0.15140  0.28400  Biso   1.000  H
  C47      1.0000 0.15920  0.21270  0.28320  Biso   1.000  C
  C48      1.0000 0.17900  0.23730  0.25610  Biso   1.000  C
  C49      1.0000 0.17290  0.23900  0.33100  Biso   1.000  C
  H27      1.0000 0.16820  0.19880  0.34960  Biso   1.000  H
  H28      1.0000 0.20250  0.24950  0.34290  Biso   1.000  H
  O1       1.0000 0.19310  0.38300  0.31090  Biso   1.000  O
  O2       1.0000 0.17640  0.45550  0.24340  Biso   1.000  O
  H29      1.0000 0.18400  0.44520  0.27090  Biso   1.000  H
  O3       1.0000 0.22610  0.44310  0.20280  Biso   1.000  O
  H30      1.0000 0.20360  0.43060  0.20360  Biso   1.000  H
  O4       1.0000 0.27170  0.36900  0.13800  Biso   1.000  O
  H31      1.0000 0.26530  0.33260  0.12010  Biso   1.000  H
  O5       1.0000 0.24910  0.24630  0.09100  Biso   1.000  O
  H32      1.0000 0.23050  0.22000  0.09350  Biso   1.000  H
  O6       1.0000 0.20170  0.18610  0.11720  Biso   1.000  O
  H33      1.0000 0.20610  0.17010  0.09490  Biso   1.000  H
  O7       1.0000 0.21240  0.27750  0.27150  Biso   1.000  O
  H34      1.0000 0.21900  0.28570  0.29910  Biso   1.000  H
  S1       1.0000 0.06147  0.36470  0.37288  Biso   1.000  S
  S2       1.0000 0.05663  0.69300  0.19103  Biso   1.000  S
  S3       1.0000 0.20852  0.70502  0.08971  Biso   1.000  S
  S4       1.0000 0.40830  0.53790  0.13330  Biso   1.000  S
  S5       1.0000 0.19109  0.41310  0.92470  Biso   1.000  S
  S6       1.0000 0.05658  0.36490  0.05350  Biso   1.000  S
  S7       1.0000 0.07324  0.08280  0.20141  Biso   1.000  S
  O8       1.0000 0.03440  0.30930  0.34930  Biso   1.000  O
  O9       1.0000 0.04150  0.43470  0.36430  Biso   1.000  O
  O10      1.0000 0.08100  0.34810  0.41870  Biso   1.000  O
  O11      1.0000 0.07730  0.75530  0.18050  Biso   1.000  O
  O12      1.0000 0.04650  0.71370  0.22740  Biso   1.000  O
  O13      1.0000 0.02280  0.66330  0.15590  Biso   1.000  O
  O14      1.0000 0.23790  0.69880  0.06980  Biso   1.000  O
  O15      1.0000 0.21710  0.76590  0.12010  Biso   1.000  O
  O16      1.0000 0.16790  0.70510  0.05710  Biso   1.000  O
  O17      1.0000 0.41340  0.51790  0.09320  Biso   1.000  O
  O18      1.0000 0.39870  0.61450  0.13540  Biso   1.000  O
  O19      1.0000 0.44240  0.51110  0.17190  Biso   1.000  O
  O20      1.0000 0.15870  0.45750  0.92790  Biso   1.000  O
  O21      1.0000 0.22300  0.45640  0.92410  Biso   1.000  O
  O22      1.0000 0.17490  0.36090  0.88850  Biso   1.000  O
  O23      1.0000 0.04810  0.38500  0.08870  Biso   1.000  O
  O24      1.0000 0.06070  0.42010  0.02490  Biso   1.000  O
  O25      1.0000 0.02670  0.31460  0.02280  Biso   1.000  O
  O26      1.0000 0.03760  0.12400  0.18390  Biso   1.000  O
  O27      1.0000 0.08090  0.03610  0.17080  Biso   1.000  O
  O28      1.0000 0.07370  0.03920  0.23820  Biso   1.000  O
  Ba1      1.0000 0.98690  0.63393  0.06691  Biso   1.000  Ba
  O29      1.0000 0.53470  0.67580  0.30000  Biso   1.000  O
  Ba2      1.0000 0.50311  0.55257  0.24032  Biso   1.000  Ba
  C50      1.0000 0.66160  0.87750  0.32230  Biso   1.000  C
  C51      1.0000 0.65050  0.80880  0.33470  Biso   1.000  C
  C52      1.0000 0.61970  0.80580  0.34930  Biso   1.000  C
  H35      1.0000 0.61240  0.75900  0.35810  Biso   1.000  H
  C53      1.0000 0.59870  0.86990  0.35160  Biso   1.000  C
  C54      1.0000 0.60940  0.93620  0.33790  Biso   1.000  C
  H36      1.0000 0.59470  0.98040  0.33860  Biso   1.000  H
  C55      1.0000 0.64010  0.94100  0.32360  Biso   1.000  C
  C56      1.0000 0.65360  0.01600  0.31250  Biso   1.000  C
  H37      1.0000 0.64700  0.05490  0.33060  Biso   1.000  H
  H38      1.0000 0.68360  0.01490  0.32220  Biso   1.000  H
  C57      1.0000 0.63550  0.04000  0.26390  Biso   1.000  C
  C58      1.0000 0.60700  0.09560  0.25090  Biso   1.000  C
  H39      1.0000 0.59760  0.11680  0.27220  Biso   1.000  H
  C59      1.0000 0.59210  0.12050  0.20890  Biso   1.000  C
  C60      1.0000 0.60510  0.08960  0.17730  Biso   1.000  C
  H40      1.0000 0.59490  0.10860  0.14750  Biso   1.000  H
  C61      1.0000 0.63230  0.03230  0.18880  Biso   1.000  C
  C62      1.0000 0.64830  0.00840  0.23280  Biso   1.000  C
  C63      1.0000 0.64600  0.99790  0.15500  Biso   1.000  C
  H41      1.0000 0.65090  0.94370  0.16180  Biso   1.000  H
  H42      1.0000 0.62370  0.00230  0.12490  Biso   1.000  H
  C64      1.0000 0.68320  0.03120  0.15280  Biso   1.000  C
  C65      1.0000 0.67950  0.09320  0.12600  Biso   1.000  C
  H43      1.0000 0.65350  0.11540  0.11060  Biso   1.000  H
  C66      1.0000 0.71270  0.12270  0.12150  Biso   1.000  C
  C67      1.0000 0.74990  0.08910  0.14210  Biso   1.000  C
  H44      1.0000 0.77300  0.10800  0.13770  Biso   1.000  H
  C68      1.0000 0.75350  0.02850  0.16900  Biso   1.000  C
  C69      1.0000 0.72050  0.00140  0.17430  Biso   1.000  C
  C70      1.0000 0.79510  0.99340  0.19250  Biso   1.000  C
  H45      1.0000 0.81300  0.02960  0.21460  Biso   1.000  H
  H46      1.0000 0.79240  0.94850  0.20930  Biso   1.000  H
  C71      1.0000 0.81460  0.97080  0.16050  Biso   1.000  C
  C72      1.0000 0.84590  0.00930  0.15940  Biso   1.000  C
  H47      1.0000 0.85500  0.05230  0.17800  Biso   1.000  H
  C73      1.0000 0.86580  0.98840  0.13180  Biso   1.000  C
  C74      1.0000 0.85160  0.93020  0.10470  Biso   1.000  C
  H48      1.0000 0.86440  0.91690  0.08470  Biso   1.000  H
  C75      1.0000 0.81900  0.88820  0.10410  Biso   1.000  C
  C76      1.0000 0.80140  0.90670  0.13330  Biso   1.000  C
  C77      1.0000 0.80600  0.82280  0.07360  Biso   1.000  C
  H49      1.0000 0.81110  0.77670  0.09210  Biso   1.000  H
  H50      1.0000 0.82310  0.82030  0.05580  Biso   1.000  H
  C78      1.0000 0.76210  0.82310  0.04180  Biso   1.000  C
  C79      1.0000 0.75030  0.86330  0.00300  Biso   1.000  C
  H51      1.0000 0.76940  0.89260  0.99630  Biso   1.000  H
  C80      1.0000 0.71060  0.86080  0.97410  Biso   1.000  C
  C81      1.0000 0.68390  0.81360  0.98230  Biso   1.000  C
  H52      1.0000 0.65640  0.81090  0.96150  Biso   1.000  H
  C82      1.0000 0.69660  0.77020  0.02040  Biso   1.000  C
  C83      1.0000 0.73550  0.77900  0.05100  Biso   1.000  C
  C84      1.0000 0.66730  0.71720  0.02590  Biso   1.000  C
  H53      1.0000 0.68110  0.66860  0.03670  Biso   1.000  H
  H54      1.0000 0.64510  0.70840  0.99630  Biso   1.000  H
  C85      1.0000 0.64940  0.74400  0.05810  Biso   1.000  C
  C86      1.0000 0.61570  0.78510  0.04400  Biso   1.000  C
  H55      1.0000 0.60160  0.79390  0.01270  Biso   1.000  H
  C87      1.0000 0.60130  0.81450  0.07350  Biso   1.000  C
  C88      1.0000 0.62230  0.80280  0.11790  Biso   1.000  C
  H56      1.0000 0.61270  0.82500  0.13880  Biso   1.000  H
  C89      1.0000 0.65640  0.76060  0.13350  Biso   1.000  C
  C90      1.0000 0.66940  0.72860  0.10320  Biso   1.000  C
  C91      1.0000 0.68220  0.75570  0.18330  Biso   1.000  C
  H57      1.0000 0.70760  0.72860  0.18720  Biso   1.000  H
  H58      1.0000 0.68990  0.80730  0.19490  Biso   1.000  H
  C92      1.0000 0.66330  0.71840  0.21090  Biso   1.000  C
  C93      1.0000 0.63060  0.67000  0.19450  Biso   1.000  C
  H59      1.0000 0.62010  0.65550  0.16380  Biso   1.000  H
  C94      1.0000 0.61380  0.64400  0.22180  Biso   1.000  C
  C95      1.0000 0.62680  0.66740  0.26590  Biso   1.000  C
  H60      1.0000 0.61280  0.65140  0.28400  Biso   1.000  H
  C96      1.0000 0.65920  0.71270  0.28320  Biso   1.000  C
  C97      1.0000 0.67900  0.73730  0.25610  Biso   1.000  C
  C98      1.0000 0.67290  0.73900  0.33100  Biso   1.000  C
  H61      1.0000 0.66820  0.69880  0.34960  Biso   1.000  H
  H62      1.0000 0.70250  0.74950  0.34290  Biso   1.000  H
  O30      1.0000 0.69310  0.88300  0.31090  Biso   1.000  O
  O31      1.0000 0.67640  0.95550  0.24340  Biso   1.000  O
  H63      1.0000 0.68400  0.94520  0.27090  Biso   1.000  H
  O32      1.0000 0.72610  0.94310  0.20280  Biso   1.000  O
  H64      1.0000 0.70360  0.93060  0.20360  Biso   1.000  H
  O33      1.0000 0.77170  0.86900  0.13800  Biso   1.000  O
  H65      1.0000 0.76530  0.83260  0.12010  Biso   1.000  H
  O34      1.0000 0.74910  0.74630  0.09100  Biso   1.000  O
  H66      1.0000 0.73050  0.72000  0.09350  Biso   1.000  H
  O35      1.0000 0.70170  0.68610  0.11720  Biso   1.000  O
  H67      1.0000 0.70610  0.67010  0.09490  Biso   1.000  H
  O36      1.0000 0.71240  0.77750  0.27150  Biso   1.000  O
  H68      1.0000 0.71900  0.78570  0.29910  Biso   1.000  H
  S8       1.0000 0.56147  0.86470  0.37288  Biso   1.000  S
  S9       1.0000 0.55663  0.19300  0.19103  Biso   1.000  S
  S10      1.0000 0.70852  0.20502  0.08971  Biso   1.000  S
  S11      1.0000 0.90830  0.03790  0.13330  Biso   1.000  S
  S12      1.0000 0.69109  0.91310  0.92470  Biso   1.000  S
  S13      1.0000 0.55658  0.86490  0.05350  Biso   1.000  S
  S14      1.0000 0.57324  0.58280  0.20141  Biso   1.000  S
  O37      1.0000 0.53440  0.80930  0.34930  Biso   1.000  O
  O38      1.0000 0.54150  0.93470  0.36430  Biso   1.000  O
  O39      1.0000 0.58100  0.84810  0.41870  Biso   1.000  O
  O40      1.0000 0.57730  0.25530  0.18050  Biso   1.000  O
  O41      1.0000 0.54650  0.21370  0.22740  Biso   1.000  O
  O42      1.0000 0.52280  0.16330  0.15590  Biso   1.000  O
  O43      1.0000 0.73790  0.19880  0.06980  Biso   1.000  O
  O44      1.0000 0.71710  0.26590  0.12010  Biso   1.000  O
  O45      1.0000 0.66790  0.20510  0.05710  Biso   1.000  O
  O46      1.0000 0.91340  0.01790  0.09320  Biso   1.000  O
  O47      1.0000 0.89870  0.11450  0.13540  Biso   1.000  O
  O48      1.0000 0.94240  0.01110  0.17190  Biso   1.000  O
  O49      1.0000 0.65870  0.95750  0.92790  Biso   1.000  O
  O50      1.0000 0.72300  0.95640  0.92410  Biso   1.000  O
  O51      1.0000 0.67490  0.86090  0.88850  Biso   1.000  O
  O52      1.0000 0.54810  0.88500  0.08870  Biso   1.000  O
  O53      1.0000 0.56070  0.92010  0.02490  Biso   1.000  O
  O54      1.0000 0.52670  0.81460  0.02280  Biso   1.000  O
  O55      1.0000 0.53760  0.62400  0.18390  Biso   1.000  O
  O56      1.0000 0.58090  0.53610  0.17080  Biso   1.000  O
  O57      1.0000 0.57370  0.53920  0.23820  Biso   1.000  O
  Ba3      1.0000 0.48690  0.13393  0.06691  Biso   1.000  Ba
  O58      1.0000 0.03470  0.17580  0.30000  Biso   1.000  O
  Ba4      1.0000 0.00311  0.05257  0.24032  Biso   1.000  Ba
  C99      1.0000 0.83840  0.37750  0.17770  Biso   1.000  C
  C100     1.0000 0.84950  0.30880  0.16530  Biso   1.000  C
  C101     1.0000 0.88030  0.30580  0.15070  Biso   1.000  C
  H69      1.0000 0.88760  0.25900  0.14190  Biso   1.000  H
  C102     1.0000 0.90130  0.36990  0.14840  Biso   1.000  C
  C103     1.0000 0.89060  0.43620  0.16210  Biso   1.000  C
  H70      1.0000 0.90530  0.48040  0.16140  Biso   1.000  H
  C104     1.0000 0.85990  0.44100  0.17640  Biso   1.000  C
  C105     1.0000 0.84640  0.51600  0.18750  Biso   1.000  C
  H71      1.0000 0.85300  0.55490  0.16940  Biso   1.000  H
  H72      1.0000 0.81640  0.51490  0.17780  Biso   1.000  H
  C106     1.0000 0.86450  0.54000  0.23610  Biso   1.000  C
  C107     1.0000 0.89300  0.59560  0.24910  Biso   1.000  C
  H73      1.0000 0.90240  0.61680  0.22780  Biso   1.000  H
  C108     1.0000 0.90790  0.62050  0.29110  Biso   1.000  C
  C109     1.0000 0.89490  0.58960  0.32270  Biso   1.000  C
  H74      1.0000 0.90510  0.60860  0.35250  Biso   1.000  H
  C110     1.0000 0.86770  0.53230  0.31120  Biso   1.000  C
  C111     1.0000 0.85170  0.50840  0.26720  Biso   1.000  C
  C112     1.0000 0.85400  0.49790  0.34500  Biso   1.000  C
  H75      1.0000 0.84910  0.44370  0.33820  Biso   1.000  H
  H76      1.0000 0.87630  0.50230  0.37510  Biso   1.000  H
  C113     1.0000 0.81680  0.53120  0.34720  Biso   1.000  C
  C114     1.0000 0.82050  0.59320  0.37400  Biso   1.000  C
  H77      1.0000 0.84650  0.61540  0.38940  Biso   1.000  H
  C115     1.0000 0.78730  0.62270  0.37850  Biso   1.000  C
  C116     1.0000 0.75010  0.58910  0.35790  Biso   1.000  C
  H78      1.0000 0.72700  0.60800  0.36230  Biso   1.000  H
  C117     1.0000 0.74650  0.52850  0.33100  Biso   1.000  C
  C118     1.0000 0.77950  0.50140  0.32570  Biso   1.000  C
  C119     1.0000 0.70490  0.49340  0.30750  Biso   1.000  C
  H79      1.0000 0.68700  0.52960  0.28540  Biso   1.000  H
  H80      1.0000 0.70760  0.44850  0.29070  Biso   1.000  H
  C120     1.0000 0.68540  0.47080  0.33950  Biso   1.000  C
  C121     1.0000 0.65410  0.50930  0.34060  Biso   1.000  C
  H81      1.0000 0.64500  0.55230  0.32200  Biso   1.000  H
  C122     1.0000 0.63420  0.48840  0.36820  Biso   1.000  C
  C123     1.0000 0.64840  0.43020  0.39530  Biso   1.000  C
  H82      1.0000 0.63560  0.41690  0.41530  Biso   1.000  H
  C124     1.0000 0.68100  0.38820  0.39590  Biso   1.000  C
  C125     1.0000 0.69860  0.40670  0.36670  Biso   1.000  C
  C126     1.0000 0.69400  0.32280  0.42640  Biso   1.000  C
  H83      1.0000 0.68890  0.27670  0.40790  Biso   1.000  H
  H84      1.0000 0.67690  0.32030  0.44420  Biso   1.000  H
  C127     1.0000 0.73790  0.32310  0.45820  Biso   1.000  C
  C128     1.0000 0.74970  0.36330  0.49700  Biso   1.000  C
  H85      1.0000 0.73060  0.39260  0.50370  Biso   1.000  H
  C129     1.0000 0.78940  0.36080  0.52590  Biso   1.000  C
  C130     1.0000 0.81610  0.31360  0.51770  Biso   1.000  C
  H86      1.0000 0.84360  0.31090  0.53850  Biso   1.000  H
  C131     1.0000 0.80340  0.27020  0.47960  Biso   1.000  C
  C132     1.0000 0.76450  0.27900  0.44900  Biso   1.000  C
  C133     1.0000 0.83270  0.21720  0.47410  Biso   1.000  C
  H87      1.0000 0.81890  0.16860  0.46330  Biso   1.000  H
  H88      1.0000 0.85490  0.20840  0.50370  Biso   1.000  H
  C134     1.0000 0.85060  0.24400  0.44190  Biso   1.000  C
  C135     1.0000 0.88430  0.28510  0.45600  Biso   1.000  C
  H89      1.0000 0.89840  0.29390  0.48730  Biso   1.000  H
  C136     1.0000 0.89870  0.31450  0.42650  Biso   1.000  C
  C137     1.0000 0.87770  0.30280  0.38210  Biso   1.000  C
  H90      1.0000 0.88730  0.32500  0.36120  Biso   1.000  H
  C138     1.0000 0.84360  0.26060  0.36650  Biso   1.000  C
  C139     1.0000 0.83060  0.22860  0.39680  Biso   1.000  C
  C140     1.0000 0.81780  0.25570  0.31670  Biso   1.000  C
  H91      1.0000 0.79240  0.22860  0.31280  Biso   1.000  H
  H92      1.0000 0.81010  0.30730  0.30510  Biso   1.000  H
  C141     1.0000 0.83670  0.21840  0.28910  Biso   1.000  C
  C142     1.0000 0.86940  0.17000  0.30550  Biso   1.000  C
  H93      1.0000 0.87990  0.15550  0.33620  Biso   1.000  H
  C143     1.0000 0.88620  0.14400  0.27820  Biso   1.000  C
  C144     1.0000 0.87320  0.16740  0.23410  Biso   1.000  C
  H94      1.0000 0.88720  0.15140  0.21600  Biso   1.000  H
  C145     1.0000 0.84080  0.21270  0.21680  Biso   1.000  C
  C146     1.0000 0.82100  0.23730  0.24390  Biso   1.000  C
  C147     1.0000 0.82710  0.23900  0.16900  Biso   1.000  C
  H95      1.0000 0.83180  0.19880  0.15040  Biso   1.000  H
  H96      1.0000 0.79750  0.24950  0.15710  Biso   1.000  H
  O59      1.0000 0.80690  0.38300  0.18910  Biso   1.000  O
  O60      1.0000 0.82360  0.45550  0.25660  Biso   1.000  O
  H97      1.0000 0.81600  0.44520  0.22910  Biso   1.000  H
  O61      1.0000 0.77390  0.44310  0.29720  Biso   1.000  O
  H98      1.0000 0.79640  0.43060  0.29640  Biso   1.000  H
  O62      1.0000 0.72830  0.36900  0.36200  Biso   1.000  O
  H99      1.0000 0.73470  0.33260  0.37990  Biso   1.000  H
  O63      1.0000 0.75090  0.24630  0.40900  Biso   1.000  O
  H100     1.0000 0.76950  0.22000  0.40650  Biso   1.000  H
  O64      1.0000 0.79830  0.18610  0.38280  Biso   1.000  O
  H101     1.0000 0.79390  0.17010  0.40510  Biso   1.000  H
  O65      1.0000 0.78760  0.27750  0.22850  Biso   1.000  O
  H102     1.0000 0.78100  0.28570  0.20090  Biso   1.000  H
  S15      1.0000 0.93853  0.36470  0.12712  Biso   1.000  S
  S16      1.0000 0.94337  0.69300  0.30897  Biso   1.000  S
  S17      1.0000 0.79148  0.70502  0.41029  Biso   1.000  S
  S18      1.0000 0.59170  0.53790  0.36670  Biso   1.000  S
  S19      1.0000 0.80891  0.41310  0.57530  Biso   1.000  S
  S20      1.0000 0.94342  0.36490  0.44650  Biso   1.000  S
  S21      1.0000 0.92676  0.08280  0.29859  Biso   1.000  S
  O66      1.0000 0.96560  0.30930  0.15070  Biso   1.000  O
  O67      1.0000 0.95850  0.43470  0.13570  Biso   1.000  O
  O68      1.0000 0.91900  0.34810  0.08130  Biso   1.000  O
  O69      1.0000 0.92270  0.75530  0.31950  Biso   1.000  O
  O70      1.0000 0.95350  0.71370  0.27260  Biso   1.000  O
  O71      1.0000 0.97720  0.66330  0.34410  Biso   1.000  O
  O72      1.0000 0.76210  0.69880  0.43020  Biso   1.000  O
  O73      1.0000 0.78290  0.76590  0.37990  Biso   1.000  O
  O74      1.0000 0.83210  0.70510  0.44290  Biso   1.000  O
  O75      1.0000 0.58660  0.51790  0.40680  Biso   1.000  O
  O76      1.0000 0.60130  0.61450  0.36460  Biso   1.000  O
  O77      1.0000 0.55760  0.51110  0.32810  Biso   1.000  O
  O78      1.0000 0.84130  0.45750  0.57210  Biso   1.000  O
  O79      1.0000 0.77700  0.45640  0.57590  Biso   1.000  O
  O80      1.0000 0.82510  0.36090  0.61150  Biso   1.000  O
  O81      1.0000 0.95190  0.38500  0.41130  Biso   1.000  O
  O82      1.0000 0.93930  0.42010  0.47510  Biso   1.000  O
  O83      1.0000 0.97330  0.31460  0.47720  Biso   1.000  O
  O84      1.0000 0.96240  0.12400  0.31610  Biso   1.000  O
  O85      1.0000 0.91910  0.03610  0.32920  Biso   1.000  O
  O86      1.0000 0.92630  0.03920  0.26180  Biso   1.000  O
  Ba5      1.0000 0.01310  0.63393  0.43309  Biso   1.000  Ba
  O87      1.0000 0.46530  0.67580  0.20000  Biso   1.000  O
  Ba6      1.0000 0.49689  0.55257  0.25968  Biso   1.000  Ba
  C148     1.0000 0.33840  0.87750  0.17770  Biso   1.000  C
  C149     1.0000 0.34950  0.80880  0.16530  Biso   1.000  C
  C150     1.0000 0.38030  0.80580  0.15070  Biso   1.000  C
  H103     1.0000 0.38760  0.75900  0.14190  Biso   1.000  H
  C151     1.0000 0.40130  0.86990  0.14840  Biso   1.000  C
  C152     1.0000 0.39060  0.93620  0.16210  Biso   1.000  C
  H104     1.0000 0.40530  0.98040  0.16140  Biso   1.000  H
  C153     1.0000 0.35990  0.94100  0.17640  Biso   1.000  C
  C154     1.0000 0.34640  0.01600  0.18750  Biso   1.000  C
  H105     1.0000 0.35300  0.05490  0.16940  Biso   1.000  H
  H106     1.0000 0.31640  0.01490  0.17780  Biso   1.000  H
  C155     1.0000 0.36450  0.04000  0.23610  Biso   1.000  C
  C156     1.0000 0.39300  0.09560  0.24910  Biso   1.000  C
  H107     1.0000 0.40240  0.11680  0.22780  Biso   1.000  H
  C157     1.0000 0.40790  0.12050  0.29110  Biso   1.000  C
  C158     1.0000 0.39490  0.08960  0.32270  Biso   1.000  C
  H108     1.0000 0.40510  0.10860  0.35250  Biso   1.000  H
  C159     1.0000 0.36770  0.03230  0.31120  Biso   1.000  C
  C160     1.0000 0.35170  0.00840  0.26720  Biso   1.000  C
  C161     1.0000 0.35400  0.99790  0.34500  Biso   1.000  C
  H109     1.0000 0.34910  0.94370  0.33820  Biso   1.000  H
  H110     1.0000 0.37630  0.00230  0.37510  Biso   1.000  H
  C162     1.0000 0.31680  0.03120  0.34720  Biso   1.000  C
  C163     1.0000 0.32050  0.09320  0.37400  Biso   1.000  C
  H111     1.0000 0.34650  0.11540  0.38940  Biso   1.000  H
  C164     1.0000 0.28730  0.12270  0.37850  Biso   1.000  C
  C165     1.0000 0.25010  0.08910  0.35790  Biso   1.000  C
  H112     1.0000 0.22700  0.10800  0.36230  Biso   1.000  H
  C166     1.0000 0.24650  0.02850  0.33100  Biso   1.000  C
  C167     1.0000 0.27950  0.00140  0.32570  Biso   1.000  C
  C168     1.0000 0.20490  0.99340  0.30750  Biso   1.000  C
  H113     1.0000 0.18700  0.02960  0.28540  Biso   1.000  H
  H114     1.0000 0.20760  0.94850  0.29070  Biso   1.000  H
  C169     1.0000 0.18540  0.97080  0.33950  Biso   1.000  C
  C170     1.0000 0.15410  0.00930  0.34060  Biso   1.000  C
  H115     1.0000 0.14500  0.05230  0.32200  Biso   1.000  H
  C171     1.0000 0.13420  0.98840  0.36820  Biso   1.000  C
  C172     1.0000 0.14840  0.93020  0.39530  Biso   1.000  C
  H116     1.0000 0.13560  0.91690  0.41530  Biso   1.000  H
  C173     1.0000 0.18100  0.88820  0.39590  Biso   1.000  C
  C174     1.0000 0.19860  0.90670  0.36670  Biso   1.000  C
  C175     1.0000 0.19400  0.82280  0.42640  Biso   1.000  C
  H117     1.0000 0.18890  0.77670  0.40790  Biso   1.000  H
  H118     1.0000 0.17690  0.82030  0.44420  Biso   1.000  H
  C176     1.0000 0.23790  0.82310  0.45820  Biso   1.000  C
  C177     1.0000 0.24970  0.86330  0.49700  Biso   1.000  C
  H119     1.0000 0.23060  0.89260  0.50370  Biso   1.000  H
  C178     1.0000 0.28940  0.86080  0.52590  Biso   1.000  C
  C179     1.0000 0.31610  0.81360  0.51770  Biso   1.000  C
  H120     1.0000 0.34360  0.81090  0.53850  Biso   1.000  H
  C180     1.0000 0.30340  0.77020  0.47960  Biso   1.000  C
  C181     1.0000 0.26450  0.77900  0.44900  Biso   1.000  C
  C182     1.0000 0.33270  0.71720  0.47410  Biso   1.000  C
  H121     1.0000 0.31890  0.66860  0.46330  Biso   1.000  H
  H122     1.0000 0.35490  0.70840  0.50370  Biso   1.000  H
  C183     1.0000 0.35060  0.74400  0.44190  Biso   1.000  C
  C184     1.0000 0.38430  0.78510  0.45600  Biso   1.000  C
  H123     1.0000 0.39840  0.79390  0.48730  Biso   1.000  H
  C185     1.0000 0.39870  0.81450  0.42650  Biso   1.000  C
  C186     1.0000 0.37770  0.80280  0.38210  Biso   1.000  C
  H124     1.0000 0.38730  0.82500  0.36120  Biso   1.000  H
  C187     1.0000 0.34360  0.76060  0.36650  Biso   1.000  C
  C188     1.0000 0.33060  0.72860  0.39680  Biso   1.000  C
  C189     1.0000 0.31780  0.75570  0.31670  Biso   1.000  C
  H125     1.0000 0.29240  0.72860  0.31280  Biso   1.000  H
  H126     1.0000 0.31010  0.80730  0.30510  Biso   1.000  H
  C190     1.0000 0.33670  0.71840  0.28910  Biso   1.000  C
  C191     1.0000 0.36940  0.67000  0.30550  Biso   1.000  C
  H127     1.0000 0.37990  0.65550  0.33620  Biso   1.000  H
  C192     1.0000 0.38620  0.64400  0.27820  Biso   1.000  C
  C193     1.0000 0.37320  0.66740  0.23410  Biso   1.000  C
  H128     1.0000 0.38720  0.65140  0.21600  Biso   1.000  H
  C194     1.0000 0.34080  0.71270  0.21680  Biso   1.000  C
  C195     1.0000 0.32100  0.73730  0.24390  Biso   1.000  C
  C196     1.0000 0.32710  0.73900  0.16900  Biso   1.000  C
  H129     1.0000 0.33180  0.69880  0.15040  Biso   1.000  H
  H130     1.0000 0.29750  0.74950  0.15710  Biso   1.000  H
  O88      1.0000 0.30690  0.88300  0.18910  Biso   1.000  O
  O89      1.0000 0.32360  0.95550  0.25660  Biso   1.000  O
  H131     1.0000 0.31600  0.94520  0.22910  Biso   1.000  H
  O90      1.0000 0.27390  0.94310  0.29720  Biso   1.000  O
  H132     1.0000 0.29640  0.93060  0.29640  Biso   1.000  H
  O91      1.0000 0.22830  0.86900  0.36200  Biso   1.000  O
  H133     1.0000 0.23470  0.83260  0.37990  Biso   1.000  H
  O92      1.0000 0.25090  0.74630  0.40900  Biso   1.000  O
  H134     1.0000 0.26950  0.72000  0.40650  Biso   1.000  H
  O93      1.0000 0.29830  0.68610  0.38280  Biso   1.000  O
  H135     1.0000 0.29390  0.67010  0.40510  Biso   1.000  H
  O94      1.0000 0.28760  0.77750  0.22850  Biso   1.000  O
  H136     1.0000 0.28100  0.78570  0.20090  Biso   1.000  H
  S22      1.0000 0.43853  0.86470  0.12712  Biso   1.000  S
  S23      1.0000 0.44337  0.19300  0.30897  Biso   1.000  S
  S24      1.0000 0.29148  0.20502  0.41029  Biso   1.000  S
  S25      1.0000 0.09170  0.03790  0.36670  Biso   1.000  S
  S26      1.0000 0.30891  0.91310  0.57530  Biso   1.000  S
  S27      1.0000 0.44342  0.86490  0.44650  Biso   1.000  S
  S28      1.0000 0.42676  0.58280  0.29859  Biso   1.000  S
  O95      1.0000 0.46560  0.80930  0.15070  Biso   1.000  O
  O96      1.0000 0.45850  0.93470  0.13570  Biso   1.000  O
  O97      1.0000 0.41900  0.84810  0.08130  Biso   1.000  O
  O98      1.0000 0.42270  0.25530  0.31950  Biso   1.000  O
  O99      1.0000 0.45350  0.21370  0.27260  Biso   1.000  O
  O100     1.0000 0.47720  0.16330  0.34410  Biso   1.000  O
  O101     1.0000 0.26210  0.19880  0.43020  Biso   1.000  O
  O102     1.0000 0.28290  0.26590  0.37990  Biso   1.000  O
  O103     1.0000 0.33210  0.20510  0.44290  Biso   1.000  O
  O104     1.0000 0.08660  0.01790  0.40680  Biso   1.000  O
  O105     1.0000 0.10130  0.11450  0.36460  Biso   1.000  O
  O106     1.0000 0.05760  0.01110  0.32810  Biso   1.000  O
  O107     1.0000 0.34130  0.95750  0.57210  Biso   1.000  O
  O108     1.0000 0.27700  0.95640  0.57590  Biso   1.000  O
  O109     1.0000 0.32510  0.86090  0.61150  Biso   1.000  O
  O110     1.0000 0.45190  0.88500  0.41130  Biso   1.000  O
  O111     1.0000 0.43930  0.92010  0.47510  Biso   1.000  O
  O112     1.0000 0.47330  0.81460  0.47720  Biso   1.000  O
  O113     1.0000 0.46240  0.62400  0.31610  Biso   1.000  O
  O114     1.0000 0.41910  0.53610  0.32920  Biso   1.000  O
  O115     1.0000 0.42630  0.53920  0.26180  Biso   1.000  O
  Ba7      1.0000 0.51310  0.13393  0.43309  Biso   1.000  Ba
  O116     1.0000 0.96530  0.17580  0.20000  Biso   1.000  O
  Ba8      1.0000 0.99689  0.05257  0.25968  Biso   1.000  Ba
  C197     1.0000 0.83840  0.62250  0.67770  Biso   1.000  C
  C198     1.0000 0.84950  0.69120  0.66530  Biso   1.000  C
  C199     1.0000 0.88030  0.69420  0.65070  Biso   1.000  C
  H137     1.0000 0.88760  0.74100  0.64190  Biso   1.000  H
  C200     1.0000 0.90130  0.63010  0.64840  Biso   1.000  C
  C201     1.0000 0.89060  0.56380  0.66210  Biso   1.000  C
  H138     1.0000 0.90530  0.51960  0.66140  Biso   1.000  H
  C202     1.0000 0.85990  0.55900  0.67640  Biso   1.000  C
  C203     1.0000 0.84640  0.48400  0.68750  Biso   1.000  C
  H139     1.0000 0.85300  0.44510  0.66940  Biso   1.000  H
  H140     1.0000 0.81640  0.48510  0.67780  Biso   1.000  H
  C204     1.0000 0.86450  0.46000  0.73610  Biso   1.000  C
  C205     1.0000 0.89300  0.40440  0.74910  Biso   1.000  C
  H141     1.0000 0.90240  0.38320  0.72780  Biso   1.000  H
  C206     1.0000 0.90790  0.37950  0.79110  Biso   1.000  C
  C207     1.0000 0.89490  0.41040  0.82270  Biso   1.000  C
  H142     1.0000 0.90510  0.39140  0.85250  Biso   1.000  H
  C208     1.0000 0.86770  0.46770  0.81120  Biso   1.000  C
  C209     1.0000 0.85170  0.49160  0.76720  Biso   1.000  C
  C210     1.0000 0.85400  0.50210  0.84500  Biso   1.000  C
  H143     1.0000 0.84910  0.55630  0.83820  Biso   1.000  H
  H144     1.0000 0.87630  0.49770  0.87510  Biso   1.000  H
  C211     1.0000 0.81680  0.46880  0.84720  Biso   1.000  C
  C212     1.0000 0.82050  0.40680  0.87400  Biso   1.000  C
  H145     1.0000 0.84650  0.38460  0.88940  Biso   1.000  H
  C213     1.0000 0.78730  0.37730  0.87850  Biso   1.000  C
  C214     1.0000 0.75010  0.41090  0.85790  Biso   1.000  C
  H146     1.0000 0.72700  0.39200  0.86230  Biso   1.000  H
  C215     1.0000 0.74650  0.47150  0.83100  Biso   1.000  C
  C216     1.0000 0.77950  0.49860  0.82570  Biso   1.000  C
  C217     1.0000 0.70490  0.50660  0.80750  Biso   1.000  C
  H147     1.0000 0.68700  0.47040  0.78540  Biso   1.000  H
  H148     1.0000 0.70760  0.55150  0.79070  Biso   1.000  H
  C218     1.0000 0.68540  0.52920  0.83950  Biso   1.000  C
  C219     1.0000 0.65410  0.49070  0.84060  Biso   1.000  C
  H149     1.0000 0.64500  0.44770  0.82200  Biso   1.000  H
  C220     1.0000 0.63420  0.51160  0.86820  Biso   1.000  C
  C221     1.0000 0.64840  0.56980  0.89530  Biso   1.000  C
  H150     1.0000 0.63560  0.58310  0.91530  Biso   1.000  H
  C222     1.0000 0.68100  0.61180  0.89590  Biso   1.000  C
  C223     1.0000 0.69860  0.59330  0.86670  Biso   1.000  C
  C224     1.0000 0.69400  0.67720  0.92640  Biso   1.000  C
  H151     1.0000 0.68890  0.72330  0.90790  Biso   1.000  H
  H152     1.0000 0.67690  0.67970  0.94420  Biso   1.000  H
  C225     1.0000 0.73790  0.67690  0.95820  Biso   1.000  C
  C226     1.0000 0.74970  0.63670  0.99700  Biso   1.000  C
  H153     1.0000 0.73060  0.60740  0.00370  Biso   1.000  H
  C227     1.0000 0.78940  0.63920  0.02590  Biso   1.000  C
  C228     1.0000 0.81610  0.68640  0.01770  Biso   1.000  C
  H154     1.0000 0.84360  0.68910  0.03850  Biso   1.000  H
  C229     1.0000 0.80340  0.72980  0.97960  Biso   1.000  C
  C230     1.0000 0.76450  0.72100  0.94900  Biso   1.000  C
  C231     1.0000 0.83270  0.78280  0.97410  Biso   1.000  C
  H155     1.0000 0.81890  0.83140  0.96330  Biso   1.000  H
  H156     1.0000 0.85490  0.79160  0.00370  Biso   1.000  H
  C232     1.0000 0.85060  0.75600  0.94190  Biso   1.000  C
  C233     1.0000 0.88430  0.71490  0.95600  Biso   1.000  C
  H157     1.0000 0.89840  0.70610  0.98730  Biso   1.000  H
  C234     1.0000 0.89870  0.68550  0.92650  Biso   1.000  C
  C235     1.0000 0.87770  0.69720  0.88210  Biso   1.000  C
  H158     1.0000 0.88730  0.67500  0.86120  Biso   1.000  H
  C236     1.0000 0.84360  0.73940  0.86650  Biso   1.000  C
  C237     1.0000 0.83060  0.77140  0.89680  Biso   1.000  C
  C238     1.0000 0.81780  0.74430  0.81670  Biso   1.000  C
  H159     1.0000 0.79240  0.77140  0.81280  Biso   1.000  H
  H160     1.0000 0.81010  0.69270  0.80510  Biso   1.000  H
  C239     1.0000 0.83670  0.78160  0.78910  Biso   1.000  C
  C240     1.0000 0.86940  0.83000  0.80550  Biso   1.000  C
  H161     1.0000 0.87990  0.84450  0.83620  Biso   1.000  H
  C241     1.0000 0.88620  0.85600  0.77820  Biso   1.000  C
  C242     1.0000 0.87320  0.83260  0.73410  Biso   1.000  C
  H162     1.0000 0.88720  0.84860  0.71600  Biso   1.000  H
  C243     1.0000 0.84080  0.78730  0.71680  Biso   1.000  C
  C244     1.0000 0.82100  0.76270  0.74390  Biso   1.000  C
  C245     1.0000 0.82710  0.76100  0.66900  Biso   1.000  C
  H163     1.0000 0.83180  0.80120  0.65040  Biso   1.000  H
  H164     1.0000 0.79750  0.75050  0.65710  Biso   1.000  H
  O117     1.0000 0.80690  0.61700  0.68910  Biso   1.000  O
  O118     1.0000 0.82360  0.54450  0.75660  Biso   1.000  O
  H165     1.0000 0.81600  0.55480  0.72910  Biso   1.000  H
  O119     1.0000 0.77390  0.55690  0.79720  Biso   1.000  O
  H166     1.0000 0.79640  0.56940  0.79640  Biso   1.000  H
  O120     1.0000 0.72830  0.63100  0.86200  Biso   1.000  O
  H167     1.0000 0.73470  0.66740  0.87990  Biso   1.000  H
  O121     1.0000 0.75090  0.75370  0.90900  Biso   1.000  O
  H168     1.0000 0.76950  0.78000  0.90650  Biso   1.000  H
  O122     1.0000 0.79830  0.81390  0.88280  Biso   1.000  O
  H169     1.0000 0.79390  0.82990  0.90510  Biso   1.000  H
  O123     1.0000 0.78760  0.72250  0.72850  Biso   1.000  O
  H170     1.0000 0.78100  0.71430  0.70090  Biso   1.000  H
  S29      1.0000 0.93853  0.63530  0.62712  Biso   1.000  S
  S30      1.0000 0.94337  0.30700  0.80897  Biso   1.000  S
  S31      1.0000 0.79148  0.29498  0.91029  Biso   1.000  S
  S32      1.0000 0.59170  0.46210  0.86670  Biso   1.000  S
  S33      1.0000 0.80891  0.58690  0.07530  Biso   1.000  S
  S34      1.0000 0.94342  0.63510  0.94650  Biso   1.000  S
  S35      1.0000 0.92676  0.91720  0.79859  Biso   1.000  S
  O124     1.0000 0.96560  0.69070  0.65070  Biso   1.000  O
  O125     1.0000 0.95850  0.56530  0.63570  Biso   1.000  O
  O126     1.0000 0.91900  0.65190  0.58130  Biso   1.000  O
  O127     1.0000 0.92270  0.24470  0.81950  Biso   1.000  O
  O128     1.0000 0.95350  0.28630  0.77260  Biso   1.000  O
  O129     1.0000 0.97720  0.33670  0.84410  Biso   1.000  O
  O130     1.0000 0.76210  0.30120  0.93020  Biso   1.000  O
  O131     1.0000 0.78290  0.23410  0.87990  Biso   1.000  O
  O132     1.0000 0.83210  0.29490  0.94290  Biso   1.000  O
  O133     1.0000 0.58660  0.48210  0.90680  Biso   1.000  O
  O134     1.0000 0.60130  0.38550  0.86460  Biso   1.000  O
  O135     1.0000 0.55760  0.48890  0.82810  Biso   1.000  O
  O136     1.0000 0.84130  0.54250  0.07210  Biso   1.000  O
  O137     1.0000 0.77700  0.54360  0.07590  Biso   1.000  O
  O138     1.0000 0.82510  0.63910  0.11150  Biso   1.000  O
  O139     1.0000 0.95190  0.61500  0.91130  Biso   1.000  O
  O140     1.0000 0.93930  0.57990  0.97510  Biso   1.000  O
  O141     1.0000 0.97330  0.68540  0.97720  Biso   1.000  O
  O142     1.0000 0.96240  0.87600  0.81610  Biso   1.000  O
  O143     1.0000 0.91910  0.96390  0.82920  Biso   1.000  O
  O144     1.0000 0.92630  0.96080  0.76180  Biso   1.000  O
  Ba9      1.0000 0.01310  0.36607  0.93309  Biso   1.000  Ba
  O145     1.0000 0.46530  0.32420  0.70000  Biso   1.000  O
  Ba10     1.0000 0.49689  0.44743  0.75968  Biso   1.000  Ba
  C246     1.0000 0.33840  0.12250  0.67770  Biso   1.000  C
  C247     1.0000 0.34950  0.19120  0.66530  Biso   1.000  C
  C248     1.0000 0.38030  0.19420  0.65070  Biso   1.000  C
  H171     1.0000 0.38760  0.24100  0.64190  Biso   1.000  H
  C249     1.0000 0.40130  0.13010  0.64840  Biso   1.000  C
  C250     1.0000 0.39060  0.06380  0.66210  Biso   1.000  C
  H172     1.0000 0.40530  0.01960  0.66140  Biso   1.000  H
  C251     1.0000 0.35990  0.05900  0.67640  Biso   1.000  C
  C252     1.0000 0.34640  0.98400  0.68750  Biso   1.000  C
  H173     1.0000 0.35300  0.94510  0.66940  Biso   1.000  H
  H174     1.0000 0.31640  0.98510  0.67780  Biso   1.000  H
  C253     1.0000 0.36450  0.96000  0.73610  Biso   1.000  C
  C254     1.0000 0.39300  0.90440  0.74910  Biso   1.000  C
  H175     1.0000 0.40240  0.88320  0.72780  Biso   1.000  H
  C255     1.0000 0.40790  0.87950  0.79110  Biso   1.000  C
  C256     1.0000 0.39490  0.91040  0.82270  Biso   1.000  C
  H176     1.0000 0.40510  0.89140  0.85250  Biso   1.000  H
  C257     1.0000 0.36770  0.96770  0.81120  Biso   1.000  C
  C258     1.0000 0.35170  0.99160  0.76720  Biso   1.000  C
  C259     1.0000 0.35400  0.00210  0.84500  Biso   1.000  C
  H177     1.0000 0.34910  0.05630  0.83820  Biso   1.000  H
  H178     1.0000 0.37630  0.99770  0.87510  Biso   1.000  H
  C260     1.0000 0.31680  0.96880  0.84720  Biso   1.000  C
  C261     1.0000 0.32050  0.90680  0.87400  Biso   1.000  C
  H179     1.0000 0.34650  0.88460  0.88940  Biso   1.000  H
  C262     1.0000 0.28730  0.87730  0.87850  Biso   1.000  C
  C263     1.0000 0.25010  0.91090  0.85790  Biso   1.000  C
  H180     1.0000 0.22700  0.89200  0.86230  Biso   1.000  H
  C264     1.0000 0.24650  0.97150  0.83100  Biso   1.000  C
  C265     1.0000 0.27950  0.99860  0.82570  Biso   1.000  C
  C266     1.0000 0.20490  0.00660  0.80750  Biso   1.000  C
  H181     1.0000 0.18700  0.97040  0.78540  Biso   1.000  H
  H182     1.0000 0.20760  0.05150  0.79070  Biso   1.000  H
  C267     1.0000 0.18540  0.02920  0.83950  Biso   1.000  C
  C268     1.0000 0.15410  0.99070  0.84060  Biso   1.000  C
  H183     1.0000 0.14500  0.94770  0.82200  Biso   1.000  H
  C269     1.0000 0.13420  0.01160  0.86820  Biso   1.000  C
  C270     1.0000 0.14840  0.06980  0.89530  Biso   1.000  C
  H184     1.0000 0.13560  0.08310  0.91530  Biso   1.000  H
  C271     1.0000 0.18100  0.11180  0.89590  Biso   1.000  C
  C272     1.0000 0.19860  0.09330  0.86670  Biso   1.000  C
  C273     1.0000 0.19400  0.17720  0.92640  Biso   1.000  C
  H185     1.0000 0.18890  0.22330  0.90790  Biso   1.000  H
  H186     1.0000 0.17690  0.17970  0.94420  Biso   1.000  H
  C274     1.0000 0.23790  0.17690  0.95820  Biso   1.000  C
  C275     1.0000 0.24970  0.13670  0.99700  Biso   1.000  C
  H187     1.0000 0.23060  0.10740  0.00370  Biso   1.000  H
  C276     1.0000 0.28940  0.13920  0.02590  Biso   1.000  C
  C277     1.0000 0.31610  0.18640  0.01770  Biso   1.000  C
  H188     1.0000 0.34360  0.18910  0.03850  Biso   1.000  H
  C278     1.0000 0.30340  0.22980  0.97960  Biso   1.000  C
  C279     1.0000 0.26450  0.22100  0.94900  Biso   1.000  C
  C280     1.0000 0.33270  0.28280  0.97410  Biso   1.000  C
  H189     1.0000 0.31890  0.33140  0.96330  Biso   1.000  H
  H190     1.0000 0.35490  0.29160  0.00370  Biso   1.000  H
  C281     1.0000 0.35060  0.25600  0.94190  Biso   1.000  C
  C282     1.0000 0.38430  0.21490  0.95600  Biso   1.000  C
  H191     1.0000 0.39840  0.20610  0.98730  Biso   1.000  H
  C283     1.0000 0.39870  0.18550  0.92650  Biso   1.000  C
  C284     1.0000 0.37770  0.19720  0.88210  Biso   1.000  C
  H192     1.0000 0.38730  0.17500  0.86120  Biso   1.000  H
  C285     1.0000 0.34360  0.23940  0.86650  Biso   1.000  C
  C286     1.0000 0.33060  0.27140  0.89680  Biso   1.000  C
  C287     1.0000 0.31780  0.24430  0.81670  Biso   1.000  C
  H193     1.0000 0.29240  0.27140  0.81280  Biso   1.000  H
  H194     1.0000 0.31010  0.19270  0.80510  Biso   1.000  H
  C288     1.0000 0.33670  0.28160  0.78910  Biso   1.000  C
  C289     1.0000 0.36940  0.33000  0.80550  Biso   1.000  C
  H195     1.0000 0.37990  0.34450  0.83620  Biso   1.000  H
  C290     1.0000 0.38620  0.35600  0.77820  Biso   1.000  C
  C291     1.0000 0.37320  0.33260  0.73410  Biso   1.000  C
  H196     1.0000 0.38720  0.34860  0.71600  Biso   1.000  H
  C292     1.0000 0.34080  0.28730  0.71680  Biso   1.000  C
  C293     1.0000 0.32100  0.26270  0.74390  Biso   1.000  C
  C294     1.0000 0.32710  0.26100  0.66900  Biso   1.000  C
  H197     1.0000 0.33180  0.30120  0.65040  Biso   1.000  H
  H198     1.0000 0.29750  0.25050  0.65710  Biso   1.000  H
  O146     1.0000 0.30690  0.11700  0.68910  Biso   1.000  O
  O147     1.0000 0.32360  0.04450  0.75660  Biso   1.000  O
  H199     1.0000 0.31600  0.05480  0.72910  Biso   1.000  H
  O148     1.0000 0.27390  0.05690  0.79720  Biso   1.000  O
  H200     1.0000 0.29640  0.06940  0.79640  Biso   1.000  H
  O149     1.0000 0.22830  0.13100  0.86200  Biso   1.000  O
  H201     1.0000 0.23470  0.16740  0.87990  Biso   1.000  H
  O150     1.0000 0.25090  0.25370  0.90900  Biso   1.000  O
  H202     1.0000 0.26950  0.28000  0.90650  Biso   1.000  H
  O151     1.0000 0.29830  0.31390  0.88280  Biso   1.000  O
  H203     1.0000 0.29390  0.32990  0.90510  Biso   1.000  H
  O152     1.0000 0.28760  0.22250  0.72850  Biso   1.000  O
  H204     1.0000 0.28100  0.21430  0.70090  Biso   1.000  H
  S36      1.0000 0.43853  0.13530  0.62712  Biso   1.000  S
  S37      1.0000 0.44337  0.80700  0.80897  Biso   1.000  S
  S38      1.0000 0.29148  0.79498  0.91029  Biso   1.000  S
  S39      1.0000 0.09170  0.96210  0.86670  Biso   1.000  S
  S40      1.0000 0.30891  0.08690  0.07530  Biso   1.000  S
  S41      1.0000 0.44342  0.13510  0.94650  Biso   1.000  S
  S42      1.0000 0.42676  0.41720  0.79859  Biso   1.000  S
  O153     1.0000 0.46560  0.19070  0.65070  Biso   1.000  O
  O154     1.0000 0.45850  0.06530  0.63570  Biso   1.000  O
  O155     1.0000 0.41900  0.15190  0.58130  Biso   1.000  O
  O156     1.0000 0.42270  0.74470  0.81950  Biso   1.000  O
  O157     1.0000 0.45350  0.78630  0.77260  Biso   1.000  O
  O158     1.0000 0.47720  0.83670  0.84410  Biso   1.000  O
  O159     1.0000 0.26210  0.80120  0.93020  Biso   1.000  O
  O160     1.0000 0.28290  0.73410  0.87990  Biso   1.000  O
  O161     1.0000 0.33210  0.79490  0.94290  Biso   1.000  O
  O162     1.0000 0.08660  0.98210  0.90680  Biso   1.000  O
  O163     1.0000 0.10130  0.88550  0.86460  Biso   1.000  O
  O164     1.0000 0.05760  0.98890  0.82810  Biso   1.000  O
  O165     1.0000 0.34130  0.04250  0.07210  Biso   1.000  O
  O166     1.0000 0.27700  0.04360  0.07590  Biso   1.000  O
  O167     1.0000 0.32510  0.13910  0.11150  Biso   1.000  O
  O168     1.0000 0.45190  0.11500  0.91130  Biso   1.000  O
  O169     1.0000 0.43930  0.07990  0.97510  Biso   1.000  O
  O170     1.0000 0.47330  0.18540  0.97720  Biso   1.000  O
  O171     1.0000 0.46240  0.37600  0.81610  Biso   1.000  O
  O172     1.0000 0.41910  0.46390  0.82920  Biso   1.000  O
  O173     1.0000 0.42630  0.46080  0.76180  Biso   1.000  O
  Ba11     1.0000 0.51310  0.86607  0.93309  Biso   1.000  Ba
  O174     1.0000 0.96530  0.82420  0.70000  Biso   1.000  O
  Ba12     1.0000 0.99689  0.94743  0.75968  Biso   1.000  Ba
  C295     1.0000 0.16160  0.62250  0.82230  Biso   1.000  C
  C296     1.0000 0.15050  0.69120  0.83470  Biso   1.000  C
  C297     1.0000 0.11970  0.69420  0.84930  Biso   1.000  C
  H205     1.0000 0.11240  0.74100  0.85810  Biso   1.000  H
  C298     1.0000 0.09870  0.63010  0.85160  Biso   1.000  C
  C299     1.0000 0.10940  0.56380  0.83790  Biso   1.000  C
  H206     1.0000 0.09470  0.51960  0.83860  Biso   1.000  H
  C300     1.0000 0.14010  0.55900  0.82360  Biso   1.000  C
  C301     1.0000 0.15360  0.48400  0.81250  Biso   1.000  C
  H207     1.0000 0.14700  0.44510  0.83060  Biso   1.000  H
  H208     1.0000 0.18360  0.48510  0.82220  Biso   1.000  H
  C302     1.0000 0.13550  0.46000  0.76390  Biso   1.000  C
  C303     1.0000 0.10700  0.40440  0.75090  Biso   1.000  C
  H209     1.0000 0.09760  0.38320  0.77220  Biso   1.000  H
  C304     1.0000 0.09210  0.37950  0.70890  Biso   1.000  C
  C305     1.0000 0.10510  0.41040  0.67730  Biso   1.000  C
  H210     1.0000 0.09490  0.39140  0.64750  Biso   1.000  H
  C306     1.0000 0.13230  0.46770  0.68880  Biso   1.000  C
  C307     1.0000 0.14830  0.49160  0.73280  Biso   1.000  C
  C308     1.0000 0.14600  0.50210  0.65500  Biso   1.000  C
  H211     1.0000 0.15090  0.55630  0.66180  Biso   1.000  H
  H212     1.0000 0.12370  0.49770  0.62490  Biso   1.000  H
  C309     1.0000 0.18320  0.46880  0.65280  Biso   1.000  C
  C310     1.0000 0.17950  0.40680  0.62600  Biso   1.000  C
  H213     1.0000 0.15350  0.38460  0.61060  Biso   1.000  H
  C311     1.0000 0.21270  0.37730  0.62150  Biso   1.000  C
  C312     1.0000 0.24990  0.41090  0.64210  Biso   1.000  C
  H214     1.0000 0.27300  0.39200  0.63770  Biso   1.000  H
  C313     1.0000 0.25350  0.47150  0.66900  Biso   1.000  C
  C314     1.0000 0.22050  0.49860  0.67430  Biso   1.000  C
  C315     1.0000 0.29510  0.50660  0.69250  Biso   1.000  C
  H215     1.0000 0.31300  0.47040  0.71460  Biso   1.000  H
  H216     1.0000 0.29240  0.55150  0.70930  Biso   1.000  H
  C316     1.0000 0.31460  0.52920  0.66050  Biso   1.000  C
  C317     1.0000 0.34590  0.49070  0.65940  Biso   1.000  C
  H217     1.0000 0.35500  0.44770  0.67800  Biso   1.000  H
  C318     1.0000 0.36580  0.51160  0.63180  Biso   1.000  C
  C319     1.0000 0.35160  0.56980  0.60470  Biso   1.000  C
  H218     1.0000 0.36440  0.58310  0.58470  Biso   1.000  H
  C320     1.0000 0.31900  0.61180  0.60410  Biso   1.000  C
  C321     1.0000 0.30140  0.59330  0.63330  Biso   1.000  C
  C322     1.0000 0.30600  0.67720  0.57360  Biso   1.000  C
  H219     1.0000 0.31110  0.72330  0.59210  Biso   1.000  H
  H220     1.0000 0.32310  0.67970  0.55580  Biso   1.000  H
  C323     1.0000 0.26210  0.67690  0.54180  Biso   1.000  C
  C324     1.0000 0.25030  0.63670  0.50300  Biso   1.000  C
  H221     1.0000 0.26940  0.60740  0.49630  Biso   1.000  H
  C325     1.0000 0.21060  0.63920  0.47410  Biso   1.000  C
  C326     1.0000 0.18390  0.68640  0.48230  Biso   1.000  C
  H222     1.0000 0.15640  0.68910  0.46150  Biso   1.000  H
  C327     1.0000 0.19660  0.72980  0.52040  Biso   1.000  C
  C328     1.0000 0.23550  0.72100  0.55100  Biso   1.000  C
  C329     1.0000 0.16730  0.78280  0.52590  Biso   1.000  C
  H223     1.0000 0.18110  0.83140  0.53670  Biso   1.000  H
  H224     1.0000 0.14510  0.79160  0.49630  Biso   1.000  H
  C330     1.0000 0.14940  0.75600  0.55810  Biso   1.000  C
  C331     1.0000 0.11570  0.71490  0.54400  Biso   1.000  C
  H225     1.0000 0.10160  0.70610  0.51270  Biso   1.000  H
  C332     1.0000 0.10130  0.68550  0.57350  Biso   1.000  C
  C333     1.0000 0.12230  0.69720  0.61790  Biso   1.000  C
  H226     1.0000 0.11270  0.67500  0.63880  Biso   1.000  H
  C334     1.0000 0.15640  0.73940  0.63350  Biso   1.000  C
  C335     1.0000 0.16940  0.77140  0.60320  Biso   1.000  C
  C336     1.0000 0.18220  0.74430  0.68330  Biso   1.000  C
  H227     1.0000 0.20760  0.77140  0.68720  Biso   1.000  H
  H228     1.0000 0.18990  0.69270  0.69490  Biso   1.000  H
  C337     1.0000 0.16330  0.78160  0.71090  Biso   1.000  C
  C338     1.0000 0.13060  0.83000  0.69450  Biso   1.000  C
  H229     1.0000 0.12010  0.84450  0.66380  Biso   1.000  H
  C339     1.0000 0.11380  0.85600  0.72180  Biso   1.000  C
  C340     1.0000 0.12680  0.83260  0.76590  Biso   1.000  C
  H230     1.0000 0.11280  0.84860  0.78400  Biso   1.000  H
  C341     1.0000 0.15920  0.78730  0.78320  Biso   1.000  C
  C342     1.0000 0.17900  0.76270  0.75610  Biso   1.000  C
  C343     1.0000 0.17290  0.76100  0.83100  Biso   1.000  C
  H231     1.0000 0.16820  0.80120  0.84960  Biso   1.000  H
  H232     1.0000 0.20250  0.75050  0.84290  Biso   1.000  H
  O175     1.0000 0.19310  0.61700  0.81090  Biso   1.000  O
  O176     1.0000 0.17640  0.54450  0.74340  Biso   1.000  O
  H233     1.0000 0.18400  0.55480  0.77090  Biso   1.000  H
  O177     1.0000 0.22610  0.55690  0.70280  Biso   1.000  O
  H234     1.0000 0.20360  0.56940  0.70360  Biso   1.000  H
  O178     1.0000 0.27170  0.63100  0.63800  Biso   1.000  O
  H235     1.0000 0.26530  0.66740  0.62010  Biso   1.000  H
  O179     1.0000 0.24910  0.75370  0.59100  Biso   1.000  O
  H236     1.0000 0.23050  0.78000  0.59350  Biso   1.000  H
  O180     1.0000 0.20170  0.81390  0.61720  Biso   1.000  O
  H237     1.0000 0.20610  0.82990  0.59490  Biso   1.000  H
  O181     1.0000 0.21240  0.72250  0.77150  Biso   1.000  O
  H238     1.0000 0.21900  0.71430  0.79910  Biso   1.000  H
  S43      1.0000 0.06147  0.63530  0.87288  Biso   1.000  S
  S44      1.0000 0.05663  0.30700  0.69103  Biso   1.000  S
  S45      1.0000 0.20852  0.29498  0.58971  Biso   1.000  S
  S46      1.0000 0.40830  0.46210  0.63330  Biso   1.000  S
  S47      1.0000 0.19109  0.58690  0.42470  Biso   1.000  S
  S48      1.0000 0.05658  0.63510  0.55350  Biso   1.000  S
  S49      1.0000 0.07324  0.91720  0.70141  Biso   1.000  S
  O182     1.0000 0.03440  0.69070  0.84930  Biso   1.000  O
  O183     1.0000 0.04150  0.56530  0.86430  Biso   1.000  O
  O184     1.0000 0.08100  0.65190  0.91870  Biso   1.000  O
  O185     1.0000 0.07730  0.24470  0.68050  Biso   1.000  O
  O186     1.0000 0.04650  0.28630  0.72740  Biso   1.000  O
  O187     1.0000 0.02280  0.33670  0.65590  Biso   1.000  O
  O188     1.0000 0.23790  0.30120  0.56980  Biso   1.000  O
  O189     1.0000 0.21710  0.23410  0.62010  Biso   1.000  O
  O190     1.0000 0.16790  0.29490  0.55710  Biso   1.000  O
  O191     1.0000 0.41340  0.48210  0.59320  Biso   1.000  O
  O192     1.0000 0.39870  0.38550  0.63540  Biso   1.000  O
  O193     1.0000 0.44240  0.48890  0.67190  Biso   1.000  O
  O194     1.0000 0.15870  0.54250  0.42790  Biso   1.000  O
  O195     1.0000 0.22300  0.54360  0.42410  Biso   1.000  O
  O196     1.0000 0.17490  0.63910  0.38850  Biso   1.000  O
  O197     1.0000 0.04810  0.61500  0.58870  Biso   1.000  O
  O198     1.0000 0.06070  0.57990  0.52490  Biso   1.000  O
  O199     1.0000 0.02670  0.68540  0.52280  Biso   1.000  O
  O200     1.0000 0.03760  0.87600  0.68390  Biso   1.000  O
  O201     1.0000 0.08090  0.96390  0.67080  Biso   1.000  O
  O202     1.0000 0.07370  0.96080  0.73820  Biso   1.000  O
  Ba13     1.0000 0.98690  0.36607  0.56691  Biso   1.000  Ba
  O203     1.0000 0.53470  0.32420  0.80000  Biso   1.000  O
  Ba14     1.0000 0.50311  0.44743  0.74032  Biso   1.000  Ba
  C344     1.0000 0.66160  0.12250  0.82230  Biso   1.000  C
  C345     1.0000 0.65050  0.19120  0.83470  Biso   1.000  C
  C346     1.0000 0.61970  0.19420  0.84930  Biso   1.000  C
  H239     1.0000 0.61240  0.24100  0.85810  Biso   1.000  H
  C347     1.0000 0.59870  0.13010  0.85160  Biso   1.000  C
  C348     1.0000 0.60940  0.06380  0.83790  Biso   1.000  C
  H240     1.0000 0.59470  0.01960  0.83860  Biso   1.000  H
  C349     1.0000 0.64010  0.05900  0.82360  Biso   1.000  C
  C350     1.0000 0.65360  0.98400  0.81250  Biso   1.000  C
  H241     1.0000 0.64700  0.94510  0.83060  Biso   1.000  H
  H242     1.0000 0.68360  0.98510  0.82220  Biso   1.000  H
  C351     1.0000 0.63550  0.96000  0.76390  Biso   1.000  C
  C352     1.0000 0.60700  0.90440  0.75090  Biso   1.000  C
  H243     1.0000 0.59760  0.88320  0.77220  Biso   1.000  H
  C353     1.0000 0.59210  0.87950  0.70890  Biso   1.000  C
  C354     1.0000 0.60510  0.91040  0.67730  Biso   1.000  C
  H244     1.0000 0.59490  0.89140  0.64750  Biso   1.000  H
  C355     1.0000 0.63230  0.96770  0.68880  Biso   1.000  C
  C356     1.0000 0.64830  0.99160  0.73280  Biso   1.000  C
  C357     1.0000 0.64600  0.00210  0.65500  Biso   1.000  C
  H245     1.0000 0.65090  0.05630  0.66180  Biso   1.000  H
  H246     1.0000 0.62370  0.99770  0.62490  Biso   1.000  H
  C358     1.0000 0.68320  0.96880  0.65280  Biso   1.000  C
  C359     1.0000 0.67950  0.90680  0.62600  Biso   1.000  C
  H247     1.0000 0.65350  0.88460  0.61060  Biso   1.000  H
  C360     1.0000 0.71270  0.87730  0.62150  Biso   1.000  C
  C361     1.0000 0.74990  0.91090  0.64210  Biso   1.000  C
  H248     1.0000 0.77300  0.89200  0.63770  Biso   1.000  H
  C362     1.0000 0.75350  0.97150  0.66900  Biso   1.000  C
  C363     1.0000 0.72050  0.99860  0.67430  Biso   1.000  C
  C364     1.0000 0.79510  0.00660  0.69250  Biso   1.000  C
  H249     1.0000 0.81300  0.97040  0.71460  Biso   1.000  H
  H250     1.0000 0.79240  0.05150  0.70930  Biso   1.000  H
  C365     1.0000 0.81460  0.02920  0.66050  Biso   1.000  C
  C366     1.0000 0.84590  0.99070  0.65940  Biso   1.000  C
  H251     1.0000 0.85500  0.94770  0.67800  Biso   1.000  H
  C367     1.0000 0.86580  0.01160  0.63180  Biso   1.000  C
  C368     1.0000 0.85160  0.06980  0.60470  Biso   1.000  C
  H252     1.0000 0.86440  0.08310  0.58470  Biso   1.000  H
  C369     1.0000 0.81900  0.11180  0.60410  Biso   1.000  C
  C370     1.0000 0.80140  0.09330  0.63330  Biso   1.000  C
  C371     1.0000 0.80600  0.17720  0.57360  Biso   1.000  C
  H253     1.0000 0.81110  0.22330  0.59210  Biso   1.000  H
  H254     1.0000 0.82310  0.17970  0.55580  Biso   1.000  H
  C372     1.0000 0.76210  0.17690  0.54180  Biso   1.000  C
  C373     1.0000 0.75030  0.13670  0.50300  Biso   1.000  C
  H255     1.0000 0.76940  0.10740  0.49630  Biso   1.000  H
  C374     1.0000 0.71060  0.13920  0.47410  Biso   1.000  C
  C375     1.0000 0.68390  0.18640  0.48230  Biso   1.000  C
  H256     1.0000 0.65640  0.18910  0.46150  Biso   1.000  H
  C376     1.0000 0.69660  0.22980  0.52040  Biso   1.000  C
  C377     1.0000 0.73550  0.22100  0.55100  Biso   1.000  C
  C378     1.0000 0.66730  0.28280  0.52590  Biso   1.000  C
  H257     1.0000 0.68110  0.33140  0.53670  Biso   1.000  H
  H258     1.0000 0.64510  0.29160  0.49630  Biso   1.000  H
  C379     1.0000 0.64940  0.25600  0.55810  Biso   1.000  C
  C380     1.0000 0.61570  0.21490  0.54400  Biso   1.000  C
  H259     1.0000 0.60160  0.20610  0.51270  Biso   1.000  H
  C381     1.0000 0.60130  0.18550  0.57350  Biso   1.000  C
  C382     1.0000 0.62230  0.19720  0.61790  Biso   1.000  C
  H260     1.0000 0.61270  0.17500  0.63880  Biso   1.000  H
  C383     1.0000 0.65640  0.23940  0.63350  Biso   1.000  C
  C384     1.0000 0.66940  0.27140  0.60320  Biso   1.000  C
  C385     1.0000 0.68220  0.24430  0.68330  Biso   1.000  C
  H261     1.0000 0.70760  0.27140  0.68720  Biso   1.000  H
  H262     1.0000 0.68990  0.19270  0.69490  Biso   1.000  H
  C386     1.0000 0.66330  0.28160  0.71090  Biso   1.000  C
  C387     1.0000 0.63060  0.33000  0.69450  Biso   1.000  C
  H263     1.0000 0.62010  0.34450  0.66380  Biso   1.000  H
  C388     1.0000 0.61380  0.35600  0.72180  Biso   1.000  C
  C389     1.0000 0.62680  0.33260  0.76590  Biso   1.000  C
  H264     1.0000 0.61280  0.34860  0.78400  Biso   1.000  H
  C390     1.0000 0.65920  0.28730  0.78320  Biso   1.000  C
  C391     1.0000 0.67900  0.26270  0.75610  Biso   1.000  C
  C392     1.0000 0.67290  0.26100  0.83100  Biso   1.000  C
  H265     1.0000 0.66820  0.30120  0.84960  Biso   1.000  H
  H266     1.0000 0.70250  0.25050  0.84290  Biso   1.000  H
  O204     1.0000 0.69310  0.11700  0.81090  Biso   1.000  O
  O205     1.0000 0.67640  0.04450  0.74340  Biso   1.000  O
  H267     1.0000 0.68400  0.05480  0.77090  Biso   1.000  H
  O206     1.0000 0.72610  0.05690  0.70280  Biso   1.000  O
  H268     1.0000 0.70360  0.06940  0.70360  Biso   1.000  H
  O207     1.0000 0.77170  0.13100  0.63800  Biso   1.000  O
  H269     1.0000 0.76530  0.16740  0.62010  Biso   1.000  H
  O208     1.0000 0.74910  0.25370  0.59100  Biso   1.000  O
  H270     1.0000 0.73050  0.28000  0.59350  Biso   1.000  H
  O209     1.0000 0.70170  0.31390  0.61720  Biso   1.000  O
  H271     1.0000 0.70610  0.32990  0.59490  Biso   1.000  H
  O210     1.0000 0.71240  0.22250  0.77150  Biso   1.000  O
  H272     1.0000 0.71900  0.21430  0.79910  Biso   1.000  H
  S50      1.0000 0.56147  0.13530  0.87288  Biso   1.000  S
  S51      1.0000 0.55663  0.80700  0.69103  Biso   1.000  S
  S52      1.0000 0.70852  0.79498  0.58971  Biso   1.000  S
  S53      1.0000 0.90830  0.96210  0.63330  Biso   1.000  S
  S54      1.0000 0.69109  0.08690  0.42470  Biso   1.000  S
  S55      1.0000 0.55658  0.13510  0.55350  Biso   1.000  S
  S56      1.0000 0.57324  0.41720  0.70141  Biso   1.000  S
  O211     1.0000 0.53440  0.19070  0.84930  Biso   1.000  O
  O212     1.0000 0.54150  0.06530  0.86430  Biso   1.000  O
  O213     1.0000 0.58100  0.15190  0.91870  Biso   1.000  O
  O214     1.0000 0.57730  0.74470  0.68050  Biso   1.000  O
  O215     1.0000 0.54650  0.78630  0.72740  Biso   1.000  O
  O216     1.0000 0.52280  0.83670  0.65590  Biso   1.000  O
  O217     1.0000 0.73790  0.80120  0.56980  Biso   1.000  O
  O218     1.0000 0.71710  0.73410  0.62010  Biso   1.000  O
  O219     1.0000 0.66790  0.79490  0.55710  Biso   1.000  O
  O220     1.0000 0.91340  0.98210  0.59320  Biso   1.000  O
  O221     1.0000 0.89870  0.88550  0.63540  Biso   1.000  O
  O222     1.0000 0.94240  0.98890  0.67190  Biso   1.000  O
  O223     1.0000 0.65870  0.04250  0.42790  Biso   1.000  O
  O224     1.0000 0.72300  0.04360  0.42410  Biso   1.000  O
  O225     1.0000 0.67490  0.13910  0.38850  Biso   1.000  O
  O226     1.0000 0.54810  0.11500  0.58870  Biso   1.000  O
  O227     1.0000 0.56070  0.07990  0.52490  Biso   1.000  O
  O228     1.0000 0.52670  0.18540  0.52280  Biso   1.000  O
  O229     1.0000 0.53760  0.37600  0.68390  Biso   1.000  O
  O230     1.0000 0.58090  0.46390  0.67080  Biso   1.000  O
  O231     1.0000 0.57370  0.46080  0.73820  Biso   1.000  O
  Ba15     1.0000 0.48690  0.86607  0.56691  Biso   1.000  Ba
  O232     1.0000 0.03470  0.82420  0.80000  Biso   1.000  O
  Ba16     1.0000 0.00311  0.94743  0.74032  Biso   1.000  Ba
  O233     1.0000 0.50000  0.40530  0.25000  Biso   1.000  O
  O234     1.0000 0.00000  0.90530  0.25000  Biso   1.000  O
  O235     1.0000 0.50000  0.59470  0.75000  Biso   1.000  O
  O236     1.0000 0.00000  0.09470  0.75000  Biso   1.000  O
