data_image0
_cell_length_a       24.2756
_cell_length_b       24.2756
_cell_length_c       35.4381
_cell_angle_alpha    90
_cell_angle_beta     90
_cell_angle_gamma    120

_symmetry_space_group_name_H-M    "P 1"
_symmetry_int_tables_number       1

loop_
  _symmetry_equiv_pos_as_xyz
  'x, y, z'

loop_
  _atom_site_label
  _atom_site_occupancy
  _atom_site_fract_x
  _atom_site_fract_y
  _atom_site_fract_z
  _atom_site_thermal_displace_type
  _atom_site_B_iso_or_equiv
  _atom_site_type_symbol
  Fe1      1.0000 0.11415  0.21491  0.31766  Biso   1.000  Fe
  O1       1.0000 0.04120  0.08286  0.22050  Biso   1.000  O
  O2       1.0000 0.08030  0.16060  0.27615  Biso   1.000  O
  C1       1.0000 0.06250  0.05490  0.43120  Biso   1.000  C
  C2       1.0000 0.08370  0.11250  0.40590  Biso   1.000  C
  C3       1.0000 0.09890  0.10250  0.36660  Biso   1.000  C
  O3       1.0000 0.12630  0.15340  0.34580  Biso   1.000  O
  O4       1.0000 0.08630  0.05020  0.35490  Biso   1.000  O
  N1       1.0000 0.15320  0.31540  0.20905  Biso   1.000  N
  C4       1.0000 0.13460  0.29730  0.16830  Biso   1.000  C
  C5       1.0000 0.06380  0.26990  0.16010  Biso   1.000  C
  C6       1.0000 0.01920  0.20900  0.18020  Biso   1.000  C
  O5       1.0000 0.03470  0.20230  0.21324  Biso   1.000  O
  O6       1.0000 0.03010  0.20050  0.33701  Biso   1.000  O
  C7       1.0000 0.22340  0.34150  0.21480  Biso   1.000  C
  C8       1.0000 0.25140  0.30640  0.19470  Biso   1.000  C
  C9       1.0000 0.22270  0.23700  0.20320  Biso   1.000  C
  O7       1.0000 0.16840  0.20890  0.21881  Biso   1.000  O
  O8       1.0000 0.21000  0.25390  0.30607  Biso   1.000  O
  C10      1.0000 0.13180  0.36050  0.22340  Biso   1.000  C
  C11      1.0000 0.15870  0.39160  0.26080  Biso   1.000  C
  C12      1.0000 0.14390  0.34760  0.29390  Biso   1.000  C
  O9       1.0000 0.12230  0.28930  0.28633  Biso   1.000  O
  O10      1.0000 0.15550  0.36940  0.32685  Biso   1.000  O
  Fe2      1.0000 0.19400  0.55071  0.42606  Biso   1.000  Fe
  Fe3      1.0000 0.31064  0.52918  0.42805  Biso   1.000  Fe
  Fe4      1.0000 0.19995  0.44907  0.36146  Biso   1.000  Fe
  Fe5      1.0000 0.10886  0.58869  0.48899  Biso   1.000  Fe
  O11      1.0000 0.28060  0.58450  0.45703  Biso   1.000  O
  O12      1.0000 0.25260  0.63810  0.39898  Biso   1.000  O
  O13      1.0000 0.23490  0.51010  0.40006  Biso   1.000  O
  O14      1.0000 0.17250  0.60740  0.45329  Biso   1.000  O
  C13      1.0000 0.34390  0.61400  0.24980  Biso   1.000  C
  C14      1.0000 0.29930  0.54990  0.26740  Biso   1.000  C
  C15      1.0000 0.30500  0.54540  0.30890  Biso   1.000  C
  O15      1.0000 0.27010  0.49020  0.32384  Biso   1.000  O
  O16      1.0000 0.34330  0.59470  0.32682  Biso   1.000  O
  C16      1.0000 0.28690  0.68540  0.60420  Biso   1.000  C
  C17      1.0000 0.22220  0.65150  0.58590  Biso   1.000  C
  C18      1.0000 0.22100  0.66430  0.54440  Biso   1.000  C
  O17      1.0000 0.16620  0.64230  0.53046  Biso   1.000  O
  O18      1.0000 0.27360  0.69610  0.52840  Biso   1.000  O
  N2       1.0000 0.12960  0.35310  0.46880  Biso   1.000  N
  C19      1.0000 0.13090  0.37510  0.50830  Biso   1.000  C
  C20      1.0000 0.09400  0.40880  0.51530  Biso   1.000  C
  C21      1.0000 0.12060  0.47260  0.49440  Biso   1.000  C
  O19      1.0000 0.14330  0.47690  0.46152  Biso   1.000  O
  O20      1.0000 0.11330  0.51430  0.51081  Biso   1.000  O
  C22      1.0000 0.16790  0.31970  0.46570  Biso   1.000  C
  C23      1.0000 0.23150  0.34930  0.48600  Biso   1.000  C
  C24      1.0000 0.28090  0.41590  0.47380  Biso   1.000  C
  O21      1.0000 0.26180  0.45260  0.46178  Biso   1.000  O
  O22      1.0000 0.09210  0.66170  0.47718  Biso   1.000  O
  C25      1.0000 0.06380  0.30560  0.45100  Biso   1.000  C
  C26      1.0000 0.03160  0.33610  0.43020  Biso   1.000  C
  C27      1.0000 0.06610  0.37000  0.39500  Biso   1.000  C
  O23      1.0000 0.12680  0.39300  0.39553  Biso   1.000  O
  O24      1.0000 0.03530  0.37830  0.36990  Biso   1.000  O
  N3       1.0000 0.44650  0.47450  0.37220  Biso   1.000  N
  C28      1.0000 0.39580  0.40510  0.36780  Biso   1.000  C
  C29      1.0000 0.33280  0.38630  0.36760  Biso   1.000  C
  C30      1.0000 0.30270  0.42350  0.38140  Biso   1.000  C
  O25      1.0000 0.33860  0.47860  0.39494  Biso   1.000  O
  O26      1.0000 0.24260  0.39830  0.37896  Biso   1.000  O
  C31      1.0000 0.51360  0.49260  0.37690  Biso   1.000  C
  C32      1.0000 0.53020  0.47640  0.41580  Biso   1.000  C
  C33      1.0000 0.51780  0.50840  0.44980  Biso   1.000  C
  O27      1.0000 0.04360  0.53300  0.44851  Biso   1.000  O
  O28      1.0000 0.02810  0.55680  0.52315  Biso   1.000  O
  C34      1.0000 0.43580  0.49480  0.33290  Biso   1.000  C
  C35      1.0000 0.48010  0.56210  0.32240  Biso   1.000  C
  C36      1.0000 0.48710  0.61330  0.34940  Biso   1.000  C
  O29      1.0000 0.12850  0.52880  0.38383  Biso   1.000  O
  O30      1.0000 0.15660  0.48920  0.33472  Biso   1.000  O
  H1       1.0000 0.04090  0.08220  0.19230  Biso   1.000  H
  H2       1.0000 0.09500  0.04170  0.43040  Biso   1.000  H
  H3       1.0000 0.05990  0.06710  0.45750  Biso   1.000  H
  H4       1.0000 0.04950  0.12350  0.40510  Biso   1.000  H
  H5       1.0000 0.12180  0.14900  0.41710  Biso   1.000  H
  C37      1.0000 0.05610  0.99420  0.43680  Biso   1.000  C
  H6       1.0000 0.09680  0.03460  0.43390  Biso   1.000  H
  H7       1.0000 0.04920  0.98300  0.46400  Biso   1.000  H
  C38      1.0000 0.05700  0.11430  0.41480  Biso   1.000  C
  H8       1.0000 0.06360  0.15530  0.42450  Biso   1.000  H
  H9       1.0000 0.09730  0.11370  0.41910  Biso   1.000  H
  C39      1.0000 0.04630  0.11180  0.37540  Biso   1.000  C
  O31      1.0000 0.10160  0.14580  0.35570  Biso   1.000  O
  O32      1.0000 0.99170  0.06900  0.35900  Biso   1.000  O
  H10      1.0000 0.13200  0.27830  0.22320  Biso   1.000  H
  H11      1.0000 0.14680  0.26550  0.16090  Biso   1.000  H
  H12      1.0000 0.15920  0.33540  0.15240  Biso   1.000  H
  H13      1.0000 0.05210  0.30220  0.16690  Biso   1.000  H
  H14      1.0000 0.05710  0.26240  0.13260  Biso   1.000  H
  H15      1.0000 0.23150  0.34130  0.24210  Biso   1.000  H
  H16      1.0000 0.24620  0.38630  0.20620  Biso   1.000  H
  H17      1.0000 0.24790  0.31110  0.16720  Biso   1.000  H
  H18      1.0000 0.29730  0.32760  0.20080  Biso   1.000  H
  H19      1.0000 0.14330  0.39430  0.20430  Biso   1.000  H
  H20      1.0000 0.08480  0.33670  0.22540  Biso   1.000  H
  H21      1.0000 0.14270  0.42100  0.26640  Biso   1.000  H
  H22      1.0000 0.20550  0.41760  0.25820  Biso   1.000  H
  H23      1.0000 0.27990  0.58450  0.48520  Biso   1.000  H
  H24      1.0000 0.36020  0.61460  0.37080  Biso   1.000  H
  H25      1.0000 0.38830  0.62550  0.25570  Biso   1.000  H
  H26      1.0000 0.33890  0.61020  0.22210  Biso   1.000  H
  H27      1.0000 0.25510  0.53880  0.26160  Biso   1.000  H
  H28      1.0000 0.30680  0.51760  0.25520  Biso   1.000  H
  H29      1.0000 0.26830  0.57380  0.59990  Biso   1.000  H
  H30      1.0000 0.32180  0.60310  0.63180  Biso   1.000  H
  H31      1.0000 0.39480  0.59900  0.58940  Biso   1.000  H
  H32      1.0000 0.33620  0.53040  0.59920  Biso   1.000  H
  H33      1.0000 0.14880  0.38890  0.45350  Biso   1.000  H
  H34      1.0000 0.17580  0.40420  0.51550  Biso   1.000  H
  H35      1.0000 0.11420  0.33780  0.52520  Biso   1.000  H
  H36      1.0000 0.09390  0.41650  0.54280  Biso   1.000  H
  H37      1.0000 0.04930  0.38060  0.50740  Biso   1.000  H
  H38      1.0000 0.17570  0.31640  0.43860  Biso   1.000  H
  H39      1.0000 0.14140  0.27580  0.47540  Biso   1.000  H
  H40      1.0000 0.22360  0.35040  0.51340  Biso   1.000  H
  H41      1.0000 0.24970  0.32120  0.48260  Biso   1.000  H
  H42      1.0000 0.06980  0.27750  0.43330  Biso   1.000  H
  H43      1.0000 0.03510  0.27850  0.47130  Biso   1.000  H
  H44      1.0000 0.98780  0.30290  0.42350  Biso   1.000  H
  H45      1.0000 0.02850  0.36680  0.44720  Biso   1.000  H
  H46      1.0000 0.43960  0.49960  0.38930  Biso   1.000  H
  H47      1.0000 0.43600  0.49960  0.38700  Biso   1.000  H
  C40      1.0000 0.39870  0.40690  0.38240  Biso   1.000  C
  H48      1.0000 0.39680  0.40240  0.41020  Biso   1.000  H
  H49      1.0000 0.41310  0.37830  0.37210  Biso   1.000  H
  H50      1.0000 0.40480  0.39020  0.34380  Biso   1.000  H
  H51      1.0000 0.40250  0.38140  0.38830  Biso   1.000  H
  H52      1.0000 0.33480  0.38880  0.33970  Biso   1.000  H
  H53      1.0000 0.30450  0.34110  0.37450  Biso   1.000  H
  H54      1.0000 0.31180  0.34580  0.38190  Biso   1.000  H
  H55      1.0000 0.31880  0.37510  0.34110  Biso   1.000  H
  H56      1.0000 0.54020  0.53900  0.37280  Biso   1.000  H
  H57      1.0000 0.52480  0.47100  0.35720  Biso   1.000  H
  C41      1.0000 0.49300  0.44800  0.39260  Biso   1.000  C
  H58      1.0000 0.46330  0.40590  0.40330  Biso   1.000  H
  H59      1.0000 0.51580  0.44140  0.37180  Biso   1.000  H
  H60      1.0000 0.50520  0.42970  0.41930  Biso   1.000  H
  H61      1.0000 0.57570  0.48880  0.41580  Biso   1.000  H
  H62      1.0000 0.56780  0.51030  0.40260  Biso   1.000  H
  H63      1.0000 0.54310  0.44680  0.42640  Biso   1.000  H
  H64      1.0000 0.43940  0.46710  0.31370  Biso   1.000  H
  H65      1.0000 0.39170  0.48730  0.33170  Biso   1.000  H
  C42      1.0000 0.48100  0.50140  0.34160  Biso   1.000  C
  H66      1.0000 0.46750  0.46790  0.32210  Biso   1.000  H
  H67      1.0000 0.52590  0.51510  0.34790  Biso   1.000  H
  H68      1.0000 0.46620  0.57020  0.29780  Biso   1.000  H
  H69      1.0000 0.52270  0.56710  0.31860  Biso   1.000  H
  H70      1.0000 0.51480  0.58130  0.30360  Biso   1.000  H
  H71      1.0000 0.43940  0.54620  0.30870  Biso   1.000  H
  Fe6      1.0000 0.78509  0.89924  0.31766  Biso   1.000  Fe
  O33      1.0000 0.91714  0.95834  0.22050  Biso   1.000  O
  O34      1.0000 0.83940  0.91970  0.27615  Biso   1.000  O
  C43      1.0000 0.94510  0.00760  0.43120  Biso   1.000  C
  C44      1.0000 0.88750  0.97120  0.40590  Biso   1.000  C
  C45      1.0000 0.89750  0.99640  0.36660  Biso   1.000  C
  O35      1.0000 0.84660  0.97290  0.34580  Biso   1.000  O
  O36      1.0000 0.94980  0.03610  0.35490  Biso   1.000  O
  N4       1.0000 0.68460  0.83780  0.20905  Biso   1.000  N
  C46      1.0000 0.70270  0.83730  0.16830  Biso   1.000  C
  C47      1.0000 0.73010  0.79390  0.16010  Biso   1.000  C
  C48      1.0000 0.79100  0.81020  0.18020  Biso   1.000  C
  O37      1.0000 0.79770  0.83240  0.21324  Biso   1.000  O
  O38      1.0000 0.79950  0.82960  0.33701  Biso   1.000  O
  C49      1.0000 0.65850  0.88190  0.21480  Biso   1.000  C
  C50      1.0000 0.69360  0.94500  0.19470  Biso   1.000  C
  C51      1.0000 0.76300  0.98570  0.20320  Biso   1.000  C
  O39      1.0000 0.79110  0.95950  0.21881  Biso   1.000  O
  O40      1.0000 0.74610  0.95610  0.30607  Biso   1.000  O
  C52      1.0000 0.63950  0.77130  0.22340  Biso   1.000  C
  C53      1.0000 0.60840  0.76710  0.26080  Biso   1.000  C
  C54      1.0000 0.65240  0.79630  0.29390  Biso   1.000  C
  O41      1.0000 0.71070  0.83300  0.28633  Biso   1.000  O
  O42      1.0000 0.63060  0.78610  0.32685  Biso   1.000  O
  Fe7      1.0000 0.44929  0.64329  0.42606  Biso   1.000  Fe
  Fe8      1.0000 0.47082  0.78146  0.42805  Biso   1.000  Fe
  Fe9      1.0000 0.55093  0.75088  0.36146  Biso   1.000  Fe
  Fe10     1.0000 0.41131  0.52017  0.48899  Biso   1.000  Fe
  O43      1.0000 0.41550  0.69610  0.45703  Biso   1.000  O
  O44      1.0000 0.36190  0.61450  0.39898  Biso   1.000  O
  O45      1.0000 0.48990  0.72480  0.40006  Biso   1.000  O
  O46      1.0000 0.39260  0.56510  0.45329  Biso   1.000  O
  C55      1.0000 0.38600  0.72990  0.24980  Biso   1.000  C
  C56      1.0000 0.45010  0.74940  0.26740  Biso   1.000  C
  C57      1.0000 0.45460  0.75960  0.30890  Biso   1.000  C
  O47      1.0000 0.50980  0.77990  0.32384  Biso   1.000  O
  O48      1.0000 0.40530  0.74860  0.32682  Biso   1.000  O
  C58      1.0000 0.31460  0.60150  0.60420  Biso   1.000  C
  C59      1.0000 0.34850  0.57070  0.58590  Biso   1.000  C
  C60      1.0000 0.33570  0.55670  0.54440  Biso   1.000  C
  O49      1.0000 0.35770  0.52390  0.53046  Biso   1.000  O
  O50      1.0000 0.30390  0.57750  0.52840  Biso   1.000  O
  N5       1.0000 0.64690  0.77650  0.46880  Biso   1.000  N
  C61      1.0000 0.62490  0.75580  0.50830  Biso   1.000  C
  C62      1.0000 0.59120  0.68520  0.51530  Biso   1.000  C
  C63      1.0000 0.52740  0.64800  0.49440  Biso   1.000  C
  O51      1.0000 0.52310  0.66640  0.46152  Biso   1.000  O
  O52      1.0000 0.48570  0.59900  0.51081  Biso   1.000  O
  C64      1.0000 0.68030  0.84820  0.46570  Biso   1.000  C
  C65      1.0000 0.65070  0.88220  0.48600  Biso   1.000  C
  C66      1.0000 0.58410  0.86500  0.47380  Biso   1.000  C
  O53      1.0000 0.54740  0.80920  0.46178  Biso   1.000  O
  O54      1.0000 0.33830  0.43040  0.47718  Biso   1.000  O
  C67      1.0000 0.69440  0.75820  0.45100  Biso   1.000  C
  C68      1.0000 0.66390  0.69550  0.43020  Biso   1.000  C
  C69      1.0000 0.63000  0.69610  0.39500  Biso   1.000  C
  O55      1.0000 0.60700  0.73380  0.39553  Biso   1.000  O
  O56      1.0000 0.62170  0.65700  0.36990  Biso   1.000  O
  N6       1.0000 0.52550  0.97200  0.37220  Biso   1.000  N
  C70      1.0000 0.59490  0.99070  0.36780  Biso   1.000  C
  C71      1.0000 0.61370  0.94650  0.36760  Biso   1.000  C
  C72      1.0000 0.57650  0.87920  0.38140  Biso   1.000  C
  O57      1.0000 0.52140  0.86000  0.39494  Biso   1.000  O
  O58      1.0000 0.60170  0.84430  0.37896  Biso   1.000  O
  C73      1.0000 0.50740  0.02100  0.37690  Biso   1.000  C
  C74      1.0000 0.52360  0.05380  0.41580  Biso   1.000  C
  C75      1.0000 0.49160  0.00940  0.44980  Biso   1.000  C
  O59      1.0000 0.46700  0.51060  0.44851  Biso   1.000  O
  O60      1.0000 0.44320  0.47130  0.52315  Biso   1.000  O
  C76      1.0000 0.50520  0.94100  0.33290  Biso   1.000  C
  C77      1.0000 0.43790  0.91800  0.32240  Biso   1.000  C
  C78      1.0000 0.38670  0.87380  0.34940  Biso   1.000  C
  O61      1.0000 0.47120  0.59970  0.38383  Biso   1.000  O
  O62      1.0000 0.51080  0.66740  0.33472  Biso   1.000  O
  H72      1.0000 0.91780  0.95870  0.19230  Biso   1.000  H
  H73      1.0000 0.95830  0.05330  0.43040  Biso   1.000  H
  H74      1.0000 0.93290  0.99280  0.45750  Biso   1.000  H
  H75      1.0000 0.87650  0.92600  0.40510  Biso   1.000  H
  H76      1.0000 0.85100  0.97280  0.41710  Biso   1.000  H
  C79      1.0000 0.00580  0.06190  0.43680  Biso   1.000  C
  H77      1.0000 0.96540  0.06220  0.43390  Biso   1.000  H
  H78      1.0000 0.01700  0.06620  0.46400  Biso   1.000  H
  C80      1.0000 0.88570  0.94270  0.41480  Biso   1.000  C
  H79      1.0000 0.84470  0.90830  0.42450  Biso   1.000  H
  H80      1.0000 0.88630  0.98360  0.41910  Biso   1.000  H
  C81      1.0000 0.88820  0.93450  0.37540  Biso   1.000  C
  O63      1.0000 0.85420  0.95580  0.35570  Biso   1.000  O
  O64      1.0000 0.93100  0.92270  0.35900  Biso   1.000  O
  H81      1.0000 0.72170  0.85370  0.22320  Biso   1.000  H
  H82      1.0000 0.73450  0.88130  0.16090  Biso   1.000  H
  H83      1.0000 0.66460  0.82380  0.15240  Biso   1.000  H
  H84      1.0000 0.69780  0.74990  0.16690  Biso   1.000  H
  H85      1.0000 0.73760  0.79470  0.13260  Biso   1.000  H
  H86      1.0000 0.65870  0.89020  0.24210  Biso   1.000  H
  H87      1.0000 0.61370  0.85990  0.20620  Biso   1.000  H
  H88      1.0000 0.68890  0.93680  0.16720  Biso   1.000  H
  H89      1.0000 0.67240  0.96970  0.20080  Biso   1.000  H
  H90      1.0000 0.60570  0.74900  0.20430  Biso   1.000  H
  H91      1.0000 0.66330  0.74810  0.22540  Biso   1.000  H
  H92      1.0000 0.57900  0.72170  0.26640  Biso   1.000  H
  H93      1.0000 0.58240  0.78790  0.25820  Biso   1.000  H
  H94      1.0000 0.41550  0.69540  0.48520  Biso   1.000  H
  H95      1.0000 0.38540  0.74560  0.37080  Biso   1.000  H
  H96      1.0000 0.37450  0.76280  0.25570  Biso   1.000  H
  H97      1.0000 0.38980  0.72870  0.22210  Biso   1.000  H
  H98      1.0000 0.46120  0.71630  0.26160  Biso   1.000  H
  H99      1.0000 0.48240  0.78920  0.25520  Biso   1.000  H
  H100     1.0000 0.42620  0.69450  0.59990  Biso   1.000  H
  H101     1.0000 0.39690  0.71870  0.63180  Biso   1.000  H
  H102     1.0000 0.40100  0.79580  0.58940  Biso   1.000  H
  H103     1.0000 0.46960  0.80580  0.59920  Biso   1.000  H
  H104     1.0000 0.61110  0.75990  0.45350  Biso   1.000  H
  H105     1.0000 0.59580  0.77160  0.51550  Biso   1.000  H
  H106     1.0000 0.66220  0.77640  0.52520  Biso   1.000  H
  H107     1.0000 0.58350  0.67740  0.54280  Biso   1.000  H
  H108     1.0000 0.61940  0.66870  0.50740  Biso   1.000  H
  H109     1.0000 0.68360  0.85930  0.43860  Biso   1.000  H
  H110     1.0000 0.72420  0.86560  0.47540  Biso   1.000  H
  H111     1.0000 0.64960  0.87320  0.51340  Biso   1.000  H
  H112     1.0000 0.67880  0.92850  0.48260  Biso   1.000  H
  H113     1.0000 0.72250  0.79230  0.43330  Biso   1.000  H
  H114     1.0000 0.72150  0.75660  0.47130  Biso   1.000  H
  H115     1.0000 0.69710  0.68490  0.42350  Biso   1.000  H
  H116     1.0000 0.63320  0.66170  0.44720  Biso   1.000  H
  H117     1.0000 0.50040  0.94000  0.38930  Biso   1.000  H
  H118     1.0000 0.50040  0.93640  0.38700  Biso   1.000  H
  C82      1.0000 0.59310  0.99180  0.38240  Biso   1.000  C
  H119     1.0000 0.59760  0.99440  0.41020  Biso   1.000  H
  H120     1.0000 0.62170  0.03480  0.37210  Biso   1.000  H
  H121     1.0000 0.60980  0.01460  0.34380  Biso   1.000  H
  H122     1.0000 0.61860  0.02110  0.38830  Biso   1.000  H
  H123     1.0000 0.61120  0.94600  0.33970  Biso   1.000  H
  H124     1.0000 0.65890  0.96340  0.37450  Biso   1.000  H
  H125     1.0000 0.65420  0.96600  0.38190  Biso   1.000  H
  H126     1.0000 0.62490  0.94370  0.34110  Biso   1.000  H
  H127     1.0000 0.46100  0.00120  0.37280  Biso   1.000  H
  H128     1.0000 0.52900  0.05380  0.35720  Biso   1.000  H
  C83      1.0000 0.55200  0.04500  0.39260  Biso   1.000  C
  H129     1.0000 0.59410  0.05740  0.40330  Biso   1.000  H
  H130     1.0000 0.55860  0.07440  0.37180  Biso   1.000  H
  H131     1.0000 0.57030  0.07550  0.41930  Biso   1.000  H
  H132     1.0000 0.51120  0.08690  0.41580  Biso   1.000  H
  H133     1.0000 0.48970  0.05750  0.40260  Biso   1.000  H
  H134     1.0000 0.55320  0.09630  0.42640  Biso   1.000  H
  H135     1.0000 0.53290  0.97230  0.31370  Biso   1.000  H
  H136     1.0000 0.51270  0.90440  0.33170  Biso   1.000  H
  C84      1.0000 0.49860  0.97960  0.34160  Biso   1.000  C
  H137     1.0000 0.53210  0.99960  0.32210  Biso   1.000  H
  H138     1.0000 0.48490  0.01080  0.34790  Biso   1.000  H
  H139     1.0000 0.42980  0.89600  0.29780  Biso   1.000  H
  H140     1.0000 0.43290  0.95560  0.31860  Biso   1.000  H
  H141     1.0000 0.41870  0.93350  0.30360  Biso   1.000  H
  H142     1.0000 0.45380  0.89320  0.30870  Biso   1.000  H
  Fe11     1.0000 0.10076  0.88585  0.31766  Biso   1.000  Fe
  O65      1.0000 0.04166  0.95880  0.22050  Biso   1.000  O
  O66      1.0000 0.08030  0.91970  0.27615  Biso   1.000  O
  C85      1.0000 0.99240  0.93750  0.43120  Biso   1.000  C
  C86      1.0000 0.02880  0.91630  0.40590  Biso   1.000  C
  C87      1.0000 0.00360  0.90110  0.36660  Biso   1.000  C
  O67      1.0000 0.02710  0.87370  0.34580  Biso   1.000  O
  O68      1.0000 0.96390  0.91370  0.35490  Biso   1.000  O
  N7       1.0000 0.16220  0.84680  0.20905  Biso   1.000  N
  C88      1.0000 0.16270  0.86540  0.16830  Biso   1.000  C
  C89      1.0000 0.20610  0.93620  0.16010  Biso   1.000  C
  C90      1.0000 0.18980  0.98080  0.18020  Biso   1.000  C
  O69      1.0000 0.16760  0.96530  0.21324  Biso   1.000  O
  O70      1.0000 0.17040  0.96990  0.33701  Biso   1.000  O
  C91      1.0000 0.11810  0.77660  0.21480  Biso   1.000  C
  C92      1.0000 0.05500  0.74860  0.19470  Biso   1.000  C
  C93      1.0000 0.01430  0.77730  0.20320  Biso   1.000  C
  O71      1.0000 0.04050  0.83160  0.21881  Biso   1.000  O
  O72      1.0000 0.04390  0.79000  0.30607  Biso   1.000  O
  C94      1.0000 0.22870  0.86820  0.22340  Biso   1.000  C
  C95      1.0000 0.23290  0.84130  0.26080  Biso   1.000  C
  C96      1.0000 0.20370  0.85610  0.29390  Biso   1.000  C
  O73      1.0000 0.16700  0.87770  0.28633  Biso   1.000  O
  O74      1.0000 0.21390  0.84450  0.32685  Biso   1.000  O
  Fe12     1.0000 0.35671  0.80600  0.42606  Biso   1.000  Fe
  Fe13     1.0000 0.21854  0.68936  0.42805  Biso   1.000  Fe
  Fe14     1.0000 0.24912  0.80005  0.36146  Biso   1.000  Fe
  Fe15     1.0000 0.47983  0.89114  0.48899  Biso   1.000  Fe
  O75      1.0000 0.30390  0.71940  0.45703  Biso   1.000  O
  O76      1.0000 0.38550  0.74740  0.39898  Biso   1.000  O
  O77      1.0000 0.27520  0.76510  0.40006  Biso   1.000  O
  O78      1.0000 0.43490  0.82750  0.45329  Biso   1.000  O
  C97      1.0000 0.27010  0.65610  0.24980  Biso   1.000  C
  C98      1.0000 0.25060  0.70070  0.26740  Biso   1.000  C
  C99      1.0000 0.24040  0.69500  0.30890  Biso   1.000  C
  O79      1.0000 0.22010  0.72990  0.32384  Biso   1.000  O
  O80      1.0000 0.25140  0.65670  0.32682  Biso   1.000  O
  C100     1.0000 0.39850  0.71310  0.60420  Biso   1.000  C
  C101     1.0000 0.42930  0.77780  0.58590  Biso   1.000  C
  C102     1.0000 0.44330  0.77900  0.54440  Biso   1.000  C
  O81      1.0000 0.47610  0.83380  0.53046  Biso   1.000  O
  O82      1.0000 0.42250  0.72640  0.52840  Biso   1.000  O
  N8       1.0000 0.22350  0.87040  0.46880  Biso   1.000  N
  C103     1.0000 0.24420  0.86910  0.50830  Biso   1.000  C
  C104     1.0000 0.31480  0.90600  0.51530  Biso   1.000  C
  C105     1.0000 0.35200  0.87940  0.49440  Biso   1.000  C
  O83      1.0000 0.33360  0.85670  0.46152  Biso   1.000  O
  O84      1.0000 0.40100  0.88670  0.51081  Biso   1.000  O
  C106     1.0000 0.15180  0.83210  0.46570  Biso   1.000  C
  C107     1.0000 0.11780  0.76850  0.48600  Biso   1.000  C
  C108     1.0000 0.13500  0.71910  0.47380  Biso   1.000  C
  O85      1.0000 0.19080  0.73820  0.46178  Biso   1.000  O
  O86      1.0000 0.56960  0.90790  0.47718  Biso   1.000  O
  C109     1.0000 0.24180  0.93620  0.45100  Biso   1.000  C
  C110     1.0000 0.30450  0.96840  0.43020  Biso   1.000  C
  C111     1.0000 0.30390  0.93390  0.39500  Biso   1.000  C
  O87      1.0000 0.26620  0.87320  0.39553  Biso   1.000  O
  O88      1.0000 0.34300  0.96470  0.36990  Biso   1.000  O
  N9       1.0000 0.02800  0.55350  0.37220  Biso   1.000  N
  C112     1.0000 0.00930  0.60420  0.36780  Biso   1.000  C
  C113     1.0000 0.05350  0.66720  0.36760  Biso   1.000  C
  C114     1.0000 0.12080  0.69730  0.38140  Biso   1.000  C
  O89      1.0000 0.14000  0.66140  0.39494  Biso   1.000  O
  O90      1.0000 0.15570  0.75740  0.37896  Biso   1.000  O
  C115     1.0000 0.97900  0.48640  0.37690  Biso   1.000  C
  C116     1.0000 0.94620  0.46980  0.41580  Biso   1.000  C
  C117     1.0000 0.99060  0.48220  0.44980  Biso   1.000  C
  O91      1.0000 0.48940  0.95640  0.44851  Biso   1.000  O
  O92      1.0000 0.52870  0.97190  0.52315  Biso   1.000  O
  C118     1.0000 0.05900  0.56420  0.33290  Biso   1.000  C
  C119     1.0000 0.08200  0.51990  0.32240  Biso   1.000  C
  C120     1.0000 0.12620  0.51290  0.34940  Biso   1.000  C
  O93      1.0000 0.40030  0.87150  0.38383  Biso   1.000  O
  O94      1.0000 0.33260  0.84340  0.33472  Biso   1.000  O
  H143     1.0000 0.04130  0.95910  0.19230  Biso   1.000  H
  H144     1.0000 0.94670  0.90500  0.43040  Biso   1.000  H
  H145     1.0000 0.00720  0.94010  0.45750  Biso   1.000  H
  H146     1.0000 0.07400  0.95050  0.40510  Biso   1.000  H
  H147     1.0000 0.02720  0.87820  0.41710  Biso   1.000  H
  C121     1.0000 0.93810  0.94390  0.43680  Biso   1.000  C
  H148     1.0000 0.93780  0.90320  0.43390  Biso   1.000  H
  H149     1.0000 0.93380  0.95080  0.46400  Biso   1.000  H
  C122     1.0000 0.05730  0.94300  0.41480  Biso   1.000  C
  H150     1.0000 0.09170  0.93640  0.42450  Biso   1.000  H
  H151     1.0000 0.01640  0.90270  0.41910  Biso   1.000  H
  C123     1.0000 0.06550  0.95370  0.37540  Biso   1.000  C
  O95      1.0000 0.04420  0.89840  0.35570  Biso   1.000  O
  O96      1.0000 0.07730  0.00830  0.35900  Biso   1.000  O
  H152     1.0000 0.14630  0.86800  0.22320  Biso   1.000  H
  H153     1.0000 0.11870  0.85320  0.16090  Biso   1.000  H
  H154     1.0000 0.17620  0.84080  0.15240  Biso   1.000  H
  H155     1.0000 0.25010  0.94790  0.16690  Biso   1.000  H
  H156     1.0000 0.20530  0.94290  0.13260  Biso   1.000  H
  H157     1.0000 0.10980  0.76850  0.24210  Biso   1.000  H
  H158     1.0000 0.14010  0.75380  0.20620  Biso   1.000  H
  H159     1.0000 0.06320  0.75210  0.16720  Biso   1.000  H
  H160     1.0000 0.03030  0.70270  0.20080  Biso   1.000  H
  H161     1.0000 0.25100  0.85670  0.20430  Biso   1.000  H
  H162     1.0000 0.25190  0.91520  0.22540  Biso   1.000  H
  H163     1.0000 0.27830  0.85730  0.26640  Biso   1.000  H
  H164     1.0000 0.21210  0.79450  0.25820  Biso   1.000  H
  H165     1.0000 0.30460  0.72010  0.48520  Biso   1.000  H
  H166     1.0000 0.25440  0.63980  0.37080  Biso   1.000  H
  H167     1.0000 0.23720  0.61170  0.25570  Biso   1.000  H
  H168     1.0000 0.27130  0.66110  0.22210  Biso   1.000  H
  H169     1.0000 0.28370  0.74490  0.26160  Biso   1.000  H
  H170     1.0000 0.21080  0.69320  0.25520  Biso   1.000  H
  H171     1.0000 0.30550  0.73170  0.59990  Biso   1.000  H
  H172     1.0000 0.28130  0.67820  0.63180  Biso   1.000  H
  H173     1.0000 0.20420  0.60520  0.58940  Biso   1.000  H
  H174     1.0000 0.19420  0.66380  0.59920  Biso   1.000  H
  H175     1.0000 0.24010  0.85120  0.45350  Biso   1.000  H
  H176     1.0000 0.22840  0.82420  0.51550  Biso   1.000  H
  H177     1.0000 0.22360  0.88580  0.52520  Biso   1.000  H
  H178     1.0000 0.32260  0.90610  0.54280  Biso   1.000  H
  H179     1.0000 0.33130  0.95070  0.50740  Biso   1.000  H
  H180     1.0000 0.14070  0.82430  0.43860  Biso   1.000  H
  H181     1.0000 0.13440  0.85860  0.47540  Biso   1.000  H
  H182     1.0000 0.12680  0.77640  0.51340  Biso   1.000  H
  H183     1.0000 0.07150  0.75030  0.48260  Biso   1.000  H
  H184     1.0000 0.20770  0.93020  0.43330  Biso   1.000  H
  H185     1.0000 0.24340  0.96490  0.47130  Biso   1.000  H
  H186     1.0000 0.31510  0.01220  0.42350  Biso   1.000  H
  H187     1.0000 0.33830  0.97150  0.44720  Biso   1.000  H
  H188     1.0000 0.06000  0.56040  0.38930  Biso   1.000  H
  H189     1.0000 0.06360  0.56400  0.38700  Biso   1.000  H
  C124     1.0000 0.00820  0.60130  0.38240  Biso   1.000  C
  H190     1.0000 0.00560  0.60320  0.41020  Biso   1.000  H
  H191     1.0000 0.96520  0.58690  0.37210  Biso   1.000  H
  H192     1.0000 0.98540  0.59520  0.34380  Biso   1.000  H
  H193     1.0000 0.97890  0.59750  0.38830  Biso   1.000  H
  H194     1.0000 0.05400  0.66520  0.33970  Biso   1.000  H
  H195     1.0000 0.03660  0.69550  0.37450  Biso   1.000  H
  H196     1.0000 0.03400  0.68820  0.38190  Biso   1.000  H
  H197     1.0000 0.05630  0.68120  0.34110  Biso   1.000  H
  H198     1.0000 0.99880  0.45980  0.37280  Biso   1.000  H
  H199     1.0000 0.94620  0.47520  0.35720  Biso   1.000  H
  C125     1.0000 0.95500  0.50700  0.39260  Biso   1.000  C
  H200     1.0000 0.94260  0.53670  0.40330  Biso   1.000  H
  H201     1.0000 0.92560  0.48420  0.37180  Biso   1.000  H
  H202     1.0000 0.92450  0.49480  0.41930  Biso   1.000  H
  H203     1.0000 0.91310  0.42430  0.41580  Biso   1.000  H
  H204     1.0000 0.94250  0.43220  0.40260  Biso   1.000  H
  H205     1.0000 0.90370  0.45690  0.42640  Biso   1.000  H
  H206     1.0000 0.02770  0.56060  0.31370  Biso   1.000  H
  H207     1.0000 0.09560  0.60830  0.33170  Biso   1.000  H
  C126     1.0000 0.02040  0.51900  0.34160  Biso   1.000  C
  H208     1.0000 0.00040  0.53250  0.32210  Biso   1.000  H
  H209     1.0000 0.98920  0.47410  0.34790  Biso   1.000  H
  H210     1.0000 0.10400  0.53380  0.29780  Biso   1.000  H
  H211     1.0000 0.04440  0.47730  0.31860  Biso   1.000  H
  H212     1.0000 0.06650  0.48520  0.30360  Biso   1.000  H
  H213     1.0000 0.10680  0.56060  0.30870  Biso   1.000  H
  Fe16     1.0000 0.21491  0.11415  0.18234  Biso   1.000  Fe
  O97      1.0000 0.08286  0.04120  0.27950  Biso   1.000  O
  O98      1.0000 0.16060  0.08030  0.22385  Biso   1.000  O
  C127     1.0000 0.05490  0.06250  0.06880  Biso   1.000  C
  C128     1.0000 0.11250  0.08370  0.09410  Biso   1.000  C
  C129     1.0000 0.10250  0.09890  0.13340  Biso   1.000  C
  O99      1.0000 0.15340  0.12630  0.15420  Biso   1.000  O
  O100     1.0000 0.05020  0.08630  0.14510  Biso   1.000  O
  N10      1.0000 0.31540  0.15320  0.29095  Biso   1.000  N
  C130     1.0000 0.29730  0.13460  0.33170  Biso   1.000  C
  C131     1.0000 0.26990  0.06380  0.33990  Biso   1.000  C
  C132     1.0000 0.20900  0.01920  0.31980  Biso   1.000  C
  O101     1.0000 0.20230  0.03470  0.28676  Biso   1.000  O
  O102     1.0000 0.20050  0.03010  0.16299  Biso   1.000  O
  C133     1.0000 0.34150  0.22340  0.28520  Biso   1.000  C
  C134     1.0000 0.30640  0.25140  0.30530  Biso   1.000  C
  C135     1.0000 0.23700  0.22270  0.29680  Biso   1.000  C
  O103     1.0000 0.20890  0.16840  0.28119  Biso   1.000  O
  O104     1.0000 0.25390  0.21000  0.19393  Biso   1.000  O
  C136     1.0000 0.36050  0.13180  0.27660  Biso   1.000  C
  C137     1.0000 0.39160  0.15870  0.23920  Biso   1.000  C
  C138     1.0000 0.34760  0.14390  0.20610  Biso   1.000  C
  O105     1.0000 0.28930  0.12230  0.21367  Biso   1.000  O
  O106     1.0000 0.36940  0.15550  0.17315  Biso   1.000  O
  Fe17     1.0000 0.55071  0.19400  0.07394  Biso   1.000  Fe
  Fe18     1.0000 0.52918  0.31064  0.07195  Biso   1.000  Fe
  Fe19     1.0000 0.44907  0.19995  0.13854  Biso   1.000  Fe
  Fe20     1.0000 0.58869  0.10886  0.01101  Biso   1.000  Fe
  O107     1.0000 0.58450  0.28060  0.04297  Biso   1.000  O
  O108     1.0000 0.63810  0.25260  0.10102  Biso   1.000  O
  O109     1.0000 0.51010  0.23490  0.09994  Biso   1.000  O
  O110     1.0000 0.60740  0.17250  0.04671  Biso   1.000  O
  C139     1.0000 0.61400  0.34390  0.25020  Biso   1.000  C
  C140     1.0000 0.54990  0.29930  0.23260  Biso   1.000  C
  C141     1.0000 0.54540  0.30500  0.19110  Biso   1.000  C
  O111     1.0000 0.49020  0.27010  0.17616  Biso   1.000  O
  O112     1.0000 0.59470  0.34330  0.17318  Biso   1.000  O
  C142     1.0000 0.68540  0.28690  0.89580  Biso   1.000  C
  C143     1.0000 0.65150  0.22220  0.91410  Biso   1.000  C
  C144     1.0000 0.66430  0.22100  0.95560  Biso   1.000  C
  O113     1.0000 0.64230  0.16620  0.96954  Biso   1.000  O
  O114     1.0000 0.69610  0.27360  0.97160  Biso   1.000  O
  N11      1.0000 0.35310  0.12960  0.03120  Biso   1.000  N
  C145     1.0000 0.37510  0.13090  0.99170  Biso   1.000  C
  C146     1.0000 0.40880  0.09400  0.98470  Biso   1.000  C
  C147     1.0000 0.47260  0.12060  0.00560  Biso   1.000  C
  O115     1.0000 0.47690  0.14330  0.03848  Biso   1.000  O
  O116     1.0000 0.51430  0.11330  0.98919  Biso   1.000  O
  C148     1.0000 0.31970  0.16790  0.03430  Biso   1.000  C
  C149     1.0000 0.34930  0.23150  0.01400  Biso   1.000  C
  C150     1.0000 0.41590  0.28090  0.02620  Biso   1.000  C
  O117     1.0000 0.45260  0.26180  0.03822  Biso   1.000  O
  O118     1.0000 0.66170  0.09210  0.02282  Biso   1.000  O
  C151     1.0000 0.30560  0.06380  0.04900  Biso   1.000  C
  C152     1.0000 0.33610  0.03160  0.06980  Biso   1.000  C
  C153     1.0000 0.37000  0.06610  0.10500  Biso   1.000  C
  O119     1.0000 0.39300  0.12680  0.10447  Biso   1.000  O
  O120     1.0000 0.37830  0.03530  0.13010  Biso   1.000  O
  N12      1.0000 0.47450  0.44650  0.12780  Biso   1.000  N
  C154     1.0000 0.40510  0.39580  0.13220  Biso   1.000  C
  C155     1.0000 0.38630  0.33280  0.13240  Biso   1.000  C
  C156     1.0000 0.42350  0.30270  0.11860  Biso   1.000  C
  O121     1.0000 0.47860  0.33860  0.10506  Biso   1.000  O
  O122     1.0000 0.39830  0.24260  0.12104  Biso   1.000  O
  C157     1.0000 0.49260  0.51360  0.12310  Biso   1.000  C
  C158     1.0000 0.47640  0.53020  0.08420  Biso   1.000  C
  C159     1.0000 0.50840  0.51780  0.05020  Biso   1.000  C
  O123     1.0000 0.53300  0.04360  0.05149  Biso   1.000  O
  O124     1.0000 0.55680  0.02810  0.97685  Biso   1.000  O
  C160     1.0000 0.49480  0.43580  0.16710  Biso   1.000  C
  C161     1.0000 0.56210  0.48010  0.17760  Biso   1.000  C
  C162     1.0000 0.61330  0.48710  0.15060  Biso   1.000  C
  O125     1.0000 0.52880  0.12850  0.11617  Biso   1.000  O
  O126     1.0000 0.48920  0.15660  0.16528  Biso   1.000  O
  H214     1.0000 0.08220  0.04090  0.30770  Biso   1.000  H
  H215     1.0000 0.04170  0.09500  0.06960  Biso   1.000  H
  H216     1.0000 0.06710  0.05990  0.04250  Biso   1.000  H
  H217     1.0000 0.12350  0.04950  0.09490  Biso   1.000  H
  H218     1.0000 0.14900  0.12180  0.08290  Biso   1.000  H
  C163     1.0000 0.99420  0.05610  0.06320  Biso   1.000  C
  H219     1.0000 0.03460  0.09680  0.06610  Biso   1.000  H
  H220     1.0000 0.98300  0.04920  0.03600  Biso   1.000  H
  C164     1.0000 0.11430  0.05700  0.08520  Biso   1.000  C
  H221     1.0000 0.15530  0.06360  0.07550  Biso   1.000  H
  H222     1.0000 0.11370  0.09730  0.08090  Biso   1.000  H
  C165     1.0000 0.11180  0.04630  0.12460  Biso   1.000  C
  O127     1.0000 0.14580  0.10160  0.14430  Biso   1.000  O
  O128     1.0000 0.06900  0.99170  0.14100  Biso   1.000  O
  H223     1.0000 0.27830  0.13200  0.27680  Biso   1.000  H
  H224     1.0000 0.26550  0.14680  0.33910  Biso   1.000  H
  H225     1.0000 0.33540  0.15920  0.34760  Biso   1.000  H
  H226     1.0000 0.30220  0.05210  0.33310  Biso   1.000  H
  H227     1.0000 0.26240  0.05710  0.36740  Biso   1.000  H
  H228     1.0000 0.34130  0.23150  0.25790  Biso   1.000  H
  H229     1.0000 0.38630  0.24620  0.29380  Biso   1.000  H
  H230     1.0000 0.31110  0.24790  0.33280  Biso   1.000  H
  H231     1.0000 0.32760  0.29730  0.29920  Biso   1.000  H
  H232     1.0000 0.39430  0.14330  0.29570  Biso   1.000  H
  H233     1.0000 0.33670  0.08480  0.27460  Biso   1.000  H
  H234     1.0000 0.42100  0.14270  0.23360  Biso   1.000  H
  H235     1.0000 0.41760  0.20550  0.24180  Biso   1.000  H
  H236     1.0000 0.58450  0.27990  0.01480  Biso   1.000  H
  H237     1.0000 0.61460  0.36020  0.12920  Biso   1.000  H
  H238     1.0000 0.62550  0.38830  0.24430  Biso   1.000  H
  H239     1.0000 0.61020  0.33890  0.27790  Biso   1.000  H
  H240     1.0000 0.53880  0.25510  0.23840  Biso   1.000  H
  H241     1.0000 0.51760  0.30680  0.24480  Biso   1.000  H
  H242     1.0000 0.57380  0.26830  0.90010  Biso   1.000  H
  H243     1.0000 0.60310  0.32180  0.86820  Biso   1.000  H
  H244     1.0000 0.59900  0.39480  0.91060  Biso   1.000  H
  H245     1.0000 0.53040  0.33620  0.90080  Biso   1.000  H
  H246     1.0000 0.38890  0.14880  0.04650  Biso   1.000  H
  H247     1.0000 0.40420  0.17580  0.98450  Biso   1.000  H
  H248     1.0000 0.33780  0.11420  0.97480  Biso   1.000  H
  H249     1.0000 0.41650  0.09390  0.95720  Biso   1.000  H
  H250     1.0000 0.38060  0.04930  0.99260  Biso   1.000  H
  H251     1.0000 0.31640  0.17570  0.06140  Biso   1.000  H
  H252     1.0000 0.27580  0.14140  0.02460  Biso   1.000  H
  H253     1.0000 0.35040  0.22360  0.98660  Biso   1.000  H
  H254     1.0000 0.32120  0.24970  0.01740  Biso   1.000  H
  H255     1.0000 0.27750  0.06980  0.06670  Biso   1.000  H
  H256     1.0000 0.27850  0.03510  0.02870  Biso   1.000  H
  H257     1.0000 0.30290  0.98780  0.07650  Biso   1.000  H
  H258     1.0000 0.36680  0.02850  0.05280  Biso   1.000  H
  H259     1.0000 0.49960  0.43960  0.11070  Biso   1.000  H
  H260     1.0000 0.49960  0.43600  0.11300  Biso   1.000  H
  C166     1.0000 0.40690  0.39870  0.11760  Biso   1.000  C
  H261     1.0000 0.40240  0.39680  0.08980  Biso   1.000  H
  H262     1.0000 0.37830  0.41310  0.12790  Biso   1.000  H
  H263     1.0000 0.39020  0.40480  0.15620  Biso   1.000  H
  H264     1.0000 0.38140  0.40250  0.11170  Biso   1.000  H
  H265     1.0000 0.38880  0.33480  0.16030  Biso   1.000  H
  H266     1.0000 0.34110  0.30450  0.12550  Biso   1.000  H
  H267     1.0000 0.34580  0.31180  0.11810  Biso   1.000  H
  H268     1.0000 0.37510  0.31880  0.15890  Biso   1.000  H
  H269     1.0000 0.53900  0.54020  0.12720  Biso   1.000  H
  H270     1.0000 0.47100  0.52480  0.14280  Biso   1.000  H
  C167     1.0000 0.44800  0.49300  0.10740  Biso   1.000  C
  H271     1.0000 0.40590  0.46330  0.09670  Biso   1.000  H
  H272     1.0000 0.44140  0.51580  0.12820  Biso   1.000  H
  H273     1.0000 0.42970  0.50520  0.08070  Biso   1.000  H
  H274     1.0000 0.48880  0.57570  0.08420  Biso   1.000  H
  H275     1.0000 0.51030  0.56780  0.09740  Biso   1.000  H
  H276     1.0000 0.44680  0.54310  0.07360  Biso   1.000  H
  H277     1.0000 0.46710  0.43940  0.18630  Biso   1.000  H
  H278     1.0000 0.48730  0.39170  0.16830  Biso   1.000  H
  C168     1.0000 0.50140  0.48100  0.15840  Biso   1.000  C
  H279     1.0000 0.46790  0.46750  0.17790  Biso   1.000  H
  H280     1.0000 0.51510  0.52590  0.15210  Biso   1.000  H
  H281     1.0000 0.57020  0.46620  0.20220  Biso   1.000  H
  H282     1.0000 0.56710  0.52270  0.18140  Biso   1.000  H
  H283     1.0000 0.58130  0.51480  0.19640  Biso   1.000  H
  H284     1.0000 0.54620  0.43940  0.19130  Biso   1.000  H
  Fe21     1.0000 0.89924  0.78509  0.18234  Biso   1.000  Fe
  O129     1.0000 0.95834  0.91714  0.27950  Biso   1.000  O
  O130     1.0000 0.91970  0.83940  0.22385  Biso   1.000  O
  C169     1.0000 0.00760  0.94510  0.06880  Biso   1.000  C
  C170     1.0000 0.97120  0.88750  0.09410  Biso   1.000  C
  C171     1.0000 0.99640  0.89750  0.13340  Biso   1.000  C
  O131     1.0000 0.97290  0.84660  0.15420  Biso   1.000  O
  O132     1.0000 0.03610  0.94980  0.14510  Biso   1.000  O
  N13      1.0000 0.83780  0.68460  0.29095  Biso   1.000  N
  C172     1.0000 0.83730  0.70270  0.33170  Biso   1.000  C
  C173     1.0000 0.79390  0.73010  0.33990  Biso   1.000  C
  C174     1.0000 0.81020  0.79100  0.31980  Biso   1.000  C
  O133     1.0000 0.83240  0.79770  0.28676  Biso   1.000  O
  O134     1.0000 0.82960  0.79950  0.16299  Biso   1.000  O
  C175     1.0000 0.88190  0.65850  0.28520  Biso   1.000  C
  C176     1.0000 0.94500  0.69360  0.30530  Biso   1.000  C
  C177     1.0000 0.98570  0.76300  0.29680  Biso   1.000  C
  O135     1.0000 0.95950  0.79110  0.28119  Biso   1.000  O
  O136     1.0000 0.95610  0.74610  0.19393  Biso   1.000  O
  C178     1.0000 0.77130  0.63950  0.27660  Biso   1.000  C
  C179     1.0000 0.76710  0.60840  0.23920  Biso   1.000  C
  C180     1.0000 0.79630  0.65240  0.20610  Biso   1.000  C
  O137     1.0000 0.83300  0.71070  0.21367  Biso   1.000  O
  O138     1.0000 0.78610  0.63060  0.17315  Biso   1.000  O
  Fe22     1.0000 0.64329  0.44929  0.07394  Biso   1.000  Fe
  Fe23     1.0000 0.78146  0.47082  0.07195  Biso   1.000  Fe
  Fe24     1.0000 0.75088  0.55093  0.13854  Biso   1.000  Fe
  Fe25     1.0000 0.52017  0.41131  0.01101  Biso   1.000  Fe
  O139     1.0000 0.69610  0.41550  0.04297  Biso   1.000  O
  O140     1.0000 0.61450  0.36190  0.10102  Biso   1.000  O
  O141     1.0000 0.72480  0.48990  0.09994  Biso   1.000  O
  O142     1.0000 0.56510  0.39260  0.04671  Biso   1.000  O
  C181     1.0000 0.72990  0.38600  0.25020  Biso   1.000  C
  C182     1.0000 0.74940  0.45010  0.23260  Biso   1.000  C
  C183     1.0000 0.75960  0.45460  0.19110  Biso   1.000  C
  O143     1.0000 0.77990  0.50980  0.17616  Biso   1.000  O
  O144     1.0000 0.74860  0.40530  0.17318  Biso   1.000  O
  C184     1.0000 0.60150  0.31460  0.89580  Biso   1.000  C
  C185     1.0000 0.57070  0.34850  0.91410  Biso   1.000  C
  C186     1.0000 0.55670  0.33570  0.95560  Biso   1.000  C
  O145     1.0000 0.52390  0.35770  0.96954  Biso   1.000  O
  O146     1.0000 0.57750  0.30390  0.97160  Biso   1.000  O
  N14      1.0000 0.77650  0.64690  0.03120  Biso   1.000  N
  C187     1.0000 0.75580  0.62490  0.99170  Biso   1.000  C
  C188     1.0000 0.68520  0.59120  0.98470  Biso   1.000  C
  C189     1.0000 0.64800  0.52740  0.00560  Biso   1.000  C
  O147     1.0000 0.66640  0.52310  0.03848  Biso   1.000  O
  O148     1.0000 0.59900  0.48570  0.98919  Biso   1.000  O
  C190     1.0000 0.84820  0.68030  0.03430  Biso   1.000  C
  C191     1.0000 0.88220  0.65070  0.01400  Biso   1.000  C
  C192     1.0000 0.86500  0.58410  0.02620  Biso   1.000  C
  O149     1.0000 0.80920  0.54740  0.03822  Biso   1.000  O
  O150     1.0000 0.43040  0.33830  0.02282  Biso   1.000  O
  C193     1.0000 0.75820  0.69440  0.04900  Biso   1.000  C
  C194     1.0000 0.69550  0.66390  0.06980  Biso   1.000  C
  C195     1.0000 0.69610  0.63000  0.10500  Biso   1.000  C
  O151     1.0000 0.73380  0.60700  0.10447  Biso   1.000  O
  O152     1.0000 0.65700  0.62170  0.13010  Biso   1.000  O
  N15      1.0000 0.97200  0.52550  0.12780  Biso   1.000  N
  C196     1.0000 0.99070  0.59490  0.13220  Biso   1.000  C
  C197     1.0000 0.94650  0.61370  0.13240  Biso   1.000  C
  C198     1.0000 0.87920  0.57650  0.11860  Biso   1.000  C
  O153     1.0000 0.86000  0.52140  0.10506  Biso   1.000  O
  O154     1.0000 0.84430  0.60170  0.12104  Biso   1.000  O
  C199     1.0000 0.02100  0.50740  0.12310  Biso   1.000  C
  C200     1.0000 0.05380  0.52360  0.08420  Biso   1.000  C
  C201     1.0000 0.00940  0.49160  0.05020  Biso   1.000  C
  O155     1.0000 0.51060  0.46700  0.05149  Biso   1.000  O
  O156     1.0000 0.47130  0.44320  0.97685  Biso   1.000  O
  C202     1.0000 0.94100  0.50520  0.16710  Biso   1.000  C
  C203     1.0000 0.91800  0.43790  0.17760  Biso   1.000  C
  C204     1.0000 0.87380  0.38670  0.15060  Biso   1.000  C
  O157     1.0000 0.59970  0.47120  0.11617  Biso   1.000  O
  O158     1.0000 0.66740  0.51080  0.16528  Biso   1.000  O
  H285     1.0000 0.95870  0.91780  0.30770  Biso   1.000  H
  H286     1.0000 0.05330  0.95830  0.06960  Biso   1.000  H
  H287     1.0000 0.99280  0.93290  0.04250  Biso   1.000  H
  H288     1.0000 0.92600  0.87650  0.09490  Biso   1.000  H
  H289     1.0000 0.97280  0.85100  0.08290  Biso   1.000  H
  C205     1.0000 0.06190  0.00580  0.06320  Biso   1.000  C
  H290     1.0000 0.06220  0.96540  0.06610  Biso   1.000  H
  H291     1.0000 0.06620  0.01700  0.03600  Biso   1.000  H
  C206     1.0000 0.94270  0.88570  0.08520  Biso   1.000  C
  H292     1.0000 0.90830  0.84470  0.07550  Biso   1.000  H
  H293     1.0000 0.98360  0.88630  0.08090  Biso   1.000  H
  C207     1.0000 0.93450  0.88820  0.12460  Biso   1.000  C
  O159     1.0000 0.95580  0.85420  0.14430  Biso   1.000  O
  O160     1.0000 0.92270  0.93100  0.14100  Biso   1.000  O
  H294     1.0000 0.85370  0.72170  0.27680  Biso   1.000  H
  H295     1.0000 0.88130  0.73450  0.33910  Biso   1.000  H
  H296     1.0000 0.82380  0.66460  0.34760  Biso   1.000  H
  H297     1.0000 0.74990  0.69780  0.33310  Biso   1.000  H
  H298     1.0000 0.79470  0.73760  0.36740  Biso   1.000  H
  H299     1.0000 0.89020  0.65870  0.25790  Biso   1.000  H
  H300     1.0000 0.85990  0.61370  0.29380  Biso   1.000  H
  H301     1.0000 0.93680  0.68890  0.33280  Biso   1.000  H
  H302     1.0000 0.96970  0.67240  0.29920  Biso   1.000  H
  H303     1.0000 0.74900  0.60570  0.29570  Biso   1.000  H
  H304     1.0000 0.74810  0.66330  0.27460  Biso   1.000  H
  H305     1.0000 0.72170  0.57900  0.23360  Biso   1.000  H
  H306     1.0000 0.78790  0.58240  0.24180  Biso   1.000  H
  H307     1.0000 0.69540  0.41550  0.01480  Biso   1.000  H
  H308     1.0000 0.74560  0.38540  0.12920  Biso   1.000  H
  H309     1.0000 0.76280  0.37450  0.24430  Biso   1.000  H
  H310     1.0000 0.72870  0.38980  0.27790  Biso   1.000  H
  H311     1.0000 0.71630  0.46120  0.23840  Biso   1.000  H
  H312     1.0000 0.78920  0.48240  0.24480  Biso   1.000  H
  H313     1.0000 0.69450  0.42620  0.90010  Biso   1.000  H
  H314     1.0000 0.71870  0.39690  0.86820  Biso   1.000  H
  H315     1.0000 0.79580  0.40100  0.91060  Biso   1.000  H
  H316     1.0000 0.80580  0.46960  0.90080  Biso   1.000  H
  H317     1.0000 0.75990  0.61110  0.04650  Biso   1.000  H
  H318     1.0000 0.77160  0.59580  0.98450  Biso   1.000  H
  H319     1.0000 0.77640  0.66220  0.97480  Biso   1.000  H
  H320     1.0000 0.67740  0.58350  0.95720  Biso   1.000  H
  H321     1.0000 0.66870  0.61940  0.99260  Biso   1.000  H
  H322     1.0000 0.85930  0.68360  0.06140  Biso   1.000  H
  H323     1.0000 0.86560  0.72420  0.02460  Biso   1.000  H
  H324     1.0000 0.87320  0.64960  0.98660  Biso   1.000  H
  H325     1.0000 0.92850  0.67880  0.01740  Biso   1.000  H
  H326     1.0000 0.79230  0.72250  0.06670  Biso   1.000  H
  H327     1.0000 0.75660  0.72150  0.02870  Biso   1.000  H
  H328     1.0000 0.68490  0.69710  0.07650  Biso   1.000  H
  H329     1.0000 0.66170  0.63320  0.05280  Biso   1.000  H
  H330     1.0000 0.94000  0.50040  0.11070  Biso   1.000  H
  H331     1.0000 0.93640  0.50040  0.11300  Biso   1.000  H
  C208     1.0000 0.99180  0.59310  0.11760  Biso   1.000  C
  H332     1.0000 0.99440  0.59760  0.08980  Biso   1.000  H
  H333     1.0000 0.03480  0.62170  0.12790  Biso   1.000  H
  H334     1.0000 0.01460  0.60980  0.15620  Biso   1.000  H
  H335     1.0000 0.02110  0.61860  0.11170  Biso   1.000  H
  H336     1.0000 0.94600  0.61120  0.16030  Biso   1.000  H
  H337     1.0000 0.96340  0.65890  0.12550  Biso   1.000  H
  H338     1.0000 0.96600  0.65420  0.11810  Biso   1.000  H
  H339     1.0000 0.94370  0.62490  0.15890  Biso   1.000  H
  H340     1.0000 0.00120  0.46100  0.12720  Biso   1.000  H
  H341     1.0000 0.05380  0.52900  0.14280  Biso   1.000  H
  C209     1.0000 0.04500  0.55200  0.10740  Biso   1.000  C
  H342     1.0000 0.05740  0.59410  0.09670  Biso   1.000  H
  H343     1.0000 0.07440  0.55860  0.12820  Biso   1.000  H
  H344     1.0000 0.07550  0.57030  0.08070  Biso   1.000  H
  H345     1.0000 0.08690  0.51120  0.08420  Biso   1.000  H
  H346     1.0000 0.05750  0.48970  0.09740  Biso   1.000  H
  H347     1.0000 0.09630  0.55320  0.07360  Biso   1.000  H
  H348     1.0000 0.97230  0.53290  0.18630  Biso   1.000  H
  H349     1.0000 0.90440  0.51270  0.16830  Biso   1.000  H
  C210     1.0000 0.97960  0.49860  0.15840  Biso   1.000  C
  H350     1.0000 0.99960  0.53210  0.17790  Biso   1.000  H
  H351     1.0000 0.01080  0.48490  0.15210  Biso   1.000  H
  H352     1.0000 0.89600  0.42980  0.20220  Biso   1.000  H
  H353     1.0000 0.95560  0.43290  0.18140  Biso   1.000  H
  H354     1.0000 0.93350  0.41870  0.19640  Biso   1.000  H
  H355     1.0000 0.89320  0.45380  0.19130  Biso   1.000  H
  Fe26     1.0000 0.88585  0.10076  0.18234  Biso   1.000  Fe
  O161     1.0000 0.95880  0.04166  0.27950  Biso   1.000  O
  O162     1.0000 0.91970  0.08030  0.22385  Biso   1.000  O
  C211     1.0000 0.93750  0.99240  0.06880  Biso   1.000  C
  C212     1.0000 0.91630  0.02880  0.09410  Biso   1.000  C
  C213     1.0000 0.90110  0.00360  0.13340  Biso   1.000  C
  O163     1.0000 0.87370  0.02710  0.15420  Biso   1.000  O
  O164     1.0000 0.91370  0.96390  0.14510  Biso   1.000  O
  N16      1.0000 0.84680  0.16220  0.29095  Biso   1.000  N
  C214     1.0000 0.86540  0.16270  0.33170  Biso   1.000  C
  C215     1.0000 0.93620  0.20610  0.33990  Biso   1.000  C
  C216     1.0000 0.98080  0.18980  0.31980  Biso   1.000  C
  O165     1.0000 0.96530  0.16760  0.28676  Biso   1.000  O
  O166     1.0000 0.96990  0.17040  0.16299  Biso   1.000  O
  C217     1.0000 0.77660  0.11810  0.28520  Biso   1.000  C
  C218     1.0000 0.74860  0.05500  0.30530  Biso   1.000  C
  C219     1.0000 0.77730  0.01430  0.29680  Biso   1.000  C
  O167     1.0000 0.83160  0.04050  0.28119  Biso   1.000  O
  O168     1.0000 0.79000  0.04390  0.19393  Biso   1.000  O
  C220     1.0000 0.86820  0.22870  0.27660  Biso   1.000  C
  C221     1.0000 0.84130  0.23290  0.23920  Biso   1.000  C
  C222     1.0000 0.85610  0.20370  0.20610  Biso   1.000  C
  O169     1.0000 0.87770  0.16700  0.21367  Biso   1.000  O
  O170     1.0000 0.84450  0.21390  0.17315  Biso   1.000  O
  Fe27     1.0000 0.80600  0.35671  0.07394  Biso   1.000  Fe
  Fe28     1.0000 0.68936  0.21854  0.07195  Biso   1.000  Fe
  Fe29     1.0000 0.80005  0.24912  0.13854  Biso   1.000  Fe
  Fe30     1.0000 0.89114  0.47983  0.01101  Biso   1.000  Fe
  O171     1.0000 0.71940  0.30390  0.04297  Biso   1.000  O
  O172     1.0000 0.74740  0.38550  0.10102  Biso   1.000  O
  O173     1.0000 0.76510  0.27520  0.09994  Biso   1.000  O
  O174     1.0000 0.82750  0.43490  0.04671  Biso   1.000  O
  C223     1.0000 0.65610  0.27010  0.25020  Biso   1.000  C
  C224     1.0000 0.70070  0.25060  0.23260  Biso   1.000  C
  C225     1.0000 0.69500  0.24040  0.19110  Biso   1.000  C
  O175     1.0000 0.72990  0.22010  0.17616  Biso   1.000  O
  O176     1.0000 0.65670  0.25140  0.17318  Biso   1.000  O
  C226     1.0000 0.71310  0.39850  0.89580  Biso   1.000  C
  C227     1.0000 0.77780  0.42930  0.91410  Biso   1.000  C
  C228     1.0000 0.77900  0.44330  0.95560  Biso   1.000  C
  O177     1.0000 0.83380  0.47610  0.96954  Biso   1.000  O
  O178     1.0000 0.72640  0.42250  0.97160  Biso   1.000  O
  N17      1.0000 0.87040  0.22350  0.03120  Biso   1.000  N
  C229     1.0000 0.86910  0.24420  0.99170  Biso   1.000  C
  C230     1.0000 0.90600  0.31480  0.98470  Biso   1.000  C
  C231     1.0000 0.87940  0.35200  0.00560  Biso   1.000  C
  O179     1.0000 0.85670  0.33360  0.03848  Biso   1.000  O
  O180     1.0000 0.88670  0.40100  0.98919  Biso   1.000  O
  C232     1.0000 0.83210  0.15180  0.03430  Biso   1.000  C
  C233     1.0000 0.76850  0.11780  0.01400  Biso   1.000  C
  C234     1.0000 0.71910  0.13500  0.02620  Biso   1.000  C
  O181     1.0000 0.73820  0.19080  0.03822  Biso   1.000  O
  O182     1.0000 0.90790  0.56960  0.02282  Biso   1.000  O
  C235     1.0000 0.93620  0.24180  0.04900  Biso   1.000  C
  C236     1.0000 0.96840  0.30450  0.06980  Biso   1.000  C
  C237     1.0000 0.93390  0.30390  0.10500  Biso   1.000  C
  O183     1.0000 0.87320  0.26620  0.10447  Biso   1.000  O
  O184     1.0000 0.96470  0.34300  0.13010  Biso   1.000  O
  N18      1.0000 0.55350  0.02800  0.12780  Biso   1.000  N
  C238     1.0000 0.60420  0.00930  0.13220  Biso   1.000  C
  C239     1.0000 0.66720  0.05350  0.13240  Biso   1.000  C
  C240     1.0000 0.69730  0.12080  0.11860  Biso   1.000  C
  O185     1.0000 0.66140  0.14000  0.10506  Biso   1.000  O
  O186     1.0000 0.75740  0.15570  0.12104  Biso   1.000  O
  C241     1.0000 0.48640  0.97900  0.12310  Biso   1.000  C
  C242     1.0000 0.46980  0.94620  0.08420  Biso   1.000  C
  C243     1.0000 0.48220  0.99060  0.05020  Biso   1.000  C
  O187     1.0000 0.95640  0.48940  0.05149  Biso   1.000  O
  O188     1.0000 0.97190  0.52870  0.97685  Biso   1.000  O
  C244     1.0000 0.56420  0.05900  0.16710  Biso   1.000  C
  C245     1.0000 0.51990  0.08200  0.17760  Biso   1.000  C
  C246     1.0000 0.51290  0.12620  0.15060  Biso   1.000  C
  O189     1.0000 0.87150  0.40030  0.11617  Biso   1.000  O
  O190     1.0000 0.84340  0.33260  0.16528  Biso   1.000  O
  H356     1.0000 0.95910  0.04130  0.30770  Biso   1.000  H
  H357     1.0000 0.90500  0.94670  0.06960  Biso   1.000  H
  H358     1.0000 0.94010  0.00720  0.04250  Biso   1.000  H
  H359     1.0000 0.95050  0.07400  0.09490  Biso   1.000  H
  H360     1.0000 0.87820  0.02720  0.08290  Biso   1.000  H
  C247     1.0000 0.94390  0.93810  0.06320  Biso   1.000  C
  H361     1.0000 0.90320  0.93780  0.06610  Biso   1.000  H
  H362     1.0000 0.95080  0.93380  0.03600  Biso   1.000  H
  C248     1.0000 0.94300  0.05730  0.08520  Biso   1.000  C
  H363     1.0000 0.93640  0.09170  0.07550  Biso   1.000  H
  H364     1.0000 0.90270  0.01640  0.08090  Biso   1.000  H
  C249     1.0000 0.95370  0.06550  0.12460  Biso   1.000  C
  O191     1.0000 0.89840  0.04420  0.14430  Biso   1.000  O
  O192     1.0000 0.00830  0.07730  0.14100  Biso   1.000  O
  H365     1.0000 0.86800  0.14630  0.27680  Biso   1.000  H
  H366     1.0000 0.85320  0.11870  0.33910  Biso   1.000  H
  H367     1.0000 0.84080  0.17620  0.34760  Biso   1.000  H
  H368     1.0000 0.94790  0.25010  0.33310  Biso   1.000  H
  H369     1.0000 0.94290  0.20530  0.36740  Biso   1.000  H
  H370     1.0000 0.76850  0.10980  0.25790  Biso   1.000  H
  H371     1.0000 0.75380  0.14010  0.29380  Biso   1.000  H
  H372     1.0000 0.75210  0.06320  0.33280  Biso   1.000  H
  H373     1.0000 0.70270  0.03030  0.29920  Biso   1.000  H
  H374     1.0000 0.85670  0.25100  0.29570  Biso   1.000  H
  H375     1.0000 0.91520  0.25190  0.27460  Biso   1.000  H
  H376     1.0000 0.85730  0.27830  0.23360  Biso   1.000  H
  H377     1.0000 0.79450  0.21210  0.24180  Biso   1.000  H
  H378     1.0000 0.72010  0.30460  0.01480  Biso   1.000  H
  H379     1.0000 0.63980  0.25440  0.12920  Biso   1.000  H
  H380     1.0000 0.61170  0.23720  0.24430  Biso   1.000  H
  H381     1.0000 0.66110  0.27130  0.27790  Biso   1.000  H
  H382     1.0000 0.74490  0.28370  0.23840  Biso   1.000  H
  H383     1.0000 0.69320  0.21080  0.24480  Biso   1.000  H
  H384     1.0000 0.73170  0.30550  0.90010  Biso   1.000  H
  H385     1.0000 0.67820  0.28130  0.86820  Biso   1.000  H
  H386     1.0000 0.60520  0.20420  0.91060  Biso   1.000  H
  H387     1.0000 0.66380  0.19420  0.90080  Biso   1.000  H
  H388     1.0000 0.85120  0.24010  0.04650  Biso   1.000  H
  H389     1.0000 0.82420  0.22840  0.98450  Biso   1.000  H
  H390     1.0000 0.88580  0.22360  0.97480  Biso   1.000  H
  H391     1.0000 0.90610  0.32260  0.95720  Biso   1.000  H
  H392     1.0000 0.95070  0.33130  0.99260  Biso   1.000  H
  H393     1.0000 0.82430  0.14070  0.06140  Biso   1.000  H
  H394     1.0000 0.85860  0.13440  0.02460  Biso   1.000  H
  H395     1.0000 0.77640  0.12680  0.98660  Biso   1.000  H
  H396     1.0000 0.75030  0.07150  0.01740  Biso   1.000  H
  H397     1.0000 0.93020  0.20770  0.06670  Biso   1.000  H
  H398     1.0000 0.96490  0.24340  0.02870  Biso   1.000  H
  H399     1.0000 0.01220  0.31510  0.07650  Biso   1.000  H
  H400     1.0000 0.97150  0.33830  0.05280  Biso   1.000  H
  H401     1.0000 0.56040  0.06000  0.11070  Biso   1.000  H
  H402     1.0000 0.56400  0.06360  0.11300  Biso   1.000  H
  C250     1.0000 0.60130  0.00820  0.11760  Biso   1.000  C
  H403     1.0000 0.60320  0.00560  0.08980  Biso   1.000  H
  H404     1.0000 0.58690  0.96520  0.12790  Biso   1.000  H
  H405     1.0000 0.59520  0.98540  0.15620  Biso   1.000  H
  H406     1.0000 0.59750  0.97890  0.11170  Biso   1.000  H
  H407     1.0000 0.66520  0.05400  0.16030  Biso   1.000  H
  H408     1.0000 0.69550  0.03660  0.12550  Biso   1.000  H
  H409     1.0000 0.68820  0.03400  0.11810  Biso   1.000  H
  H410     1.0000 0.68120  0.05630  0.15890  Biso   1.000  H
  H411     1.0000 0.45980  0.99880  0.12720  Biso   1.000  H
  H412     1.0000 0.47520  0.94620  0.14280  Biso   1.000  H
  C251     1.0000 0.50700  0.95500  0.10740  Biso   1.000  C
  H413     1.0000 0.53670  0.94260  0.09670  Biso   1.000  H
  H414     1.0000 0.48420  0.92560  0.12820  Biso   1.000  H
  H415     1.0000 0.49480  0.92450  0.08070  Biso   1.000  H
  H416     1.0000 0.42430  0.91310  0.08420  Biso   1.000  H
  H417     1.0000 0.43220  0.94250  0.09740  Biso   1.000  H
  H418     1.0000 0.45690  0.90370  0.07360  Biso   1.000  H
  H419     1.0000 0.56060  0.02770  0.18630  Biso   1.000  H
  H420     1.0000 0.60830  0.09560  0.16830  Biso   1.000  H
  C252     1.0000 0.51900  0.02040  0.15840  Biso   1.000  C
  H421     1.0000 0.53250  0.00040  0.17790  Biso   1.000  H
  H422     1.0000 0.47410  0.98920  0.15210  Biso   1.000  H
  H423     1.0000 0.53380  0.10400  0.20220  Biso   1.000  H
  H424     1.0000 0.47730  0.04440  0.18140  Biso   1.000  H
  H425     1.0000 0.48520  0.06650  0.19640  Biso   1.000  H
  H426     1.0000 0.56060  0.10680  0.19130  Biso   1.000  H
  Fe31     1.0000 0.88585  0.78509  0.68234  Biso   1.000  Fe
  O193     1.0000 0.95880  0.91714  0.77950  Biso   1.000  O
  O194     1.0000 0.91970  0.83940  0.72385  Biso   1.000  O
  C253     1.0000 0.93750  0.94510  0.56880  Biso   1.000  C
  C254     1.0000 0.91630  0.88750  0.59410  Biso   1.000  C
  C255     1.0000 0.90110  0.89750  0.63340  Biso   1.000  C
  O195     1.0000 0.87370  0.84660  0.65420  Biso   1.000  O
  O196     1.0000 0.91370  0.94980  0.64510  Biso   1.000  O
  N19      1.0000 0.84680  0.68460  0.79095  Biso   1.000  N
  C256     1.0000 0.86540  0.70270  0.83170  Biso   1.000  C
  C257     1.0000 0.93620  0.73010  0.83990  Biso   1.000  C
  C258     1.0000 0.98080  0.79100  0.81980  Biso   1.000  C
  O197     1.0000 0.96530  0.79770  0.78676  Biso   1.000  O
  O198     1.0000 0.96990  0.79950  0.66299  Biso   1.000  O
  C259     1.0000 0.77660  0.65850  0.78520  Biso   1.000  C
  C260     1.0000 0.74860  0.69360  0.80530  Biso   1.000  C
  C261     1.0000 0.77730  0.76300  0.79680  Biso   1.000  C
  O199     1.0000 0.83160  0.79110  0.78119  Biso   1.000  O
  O200     1.0000 0.79000  0.74610  0.69393  Biso   1.000  O
  C262     1.0000 0.86820  0.63950  0.77660  Biso   1.000  C
  C263     1.0000 0.84130  0.60840  0.73920  Biso   1.000  C
  C264     1.0000 0.85610  0.65240  0.70610  Biso   1.000  C
  O201     1.0000 0.87770  0.71070  0.71367  Biso   1.000  O
  O202     1.0000 0.84450  0.63060  0.67315  Biso   1.000  O
  Fe32     1.0000 0.80600  0.44929  0.57394  Biso   1.000  Fe
  Fe33     1.0000 0.68936  0.47082  0.57195  Biso   1.000  Fe
  Fe34     1.0000 0.80005  0.55093  0.63854  Biso   1.000  Fe
  Fe35     1.0000 0.89114  0.41131  0.51101  Biso   1.000  Fe
  O203     1.0000 0.71940  0.41550  0.54297  Biso   1.000  O
  O204     1.0000 0.74740  0.36190  0.60102  Biso   1.000  O
  O205     1.0000 0.76510  0.48990  0.59994  Biso   1.000  O
  O206     1.0000 0.82750  0.39260  0.54671  Biso   1.000  O
  C265     1.0000 0.65610  0.38600  0.75020  Biso   1.000  C
  C266     1.0000 0.70070  0.45010  0.73260  Biso   1.000  C
  C267     1.0000 0.69500  0.45460  0.69110  Biso   1.000  C
  O207     1.0000 0.72990  0.50980  0.67616  Biso   1.000  O
  O208     1.0000 0.65670  0.40530  0.67318  Biso   1.000  O
  C268     1.0000 0.71310  0.31460  0.39580  Biso   1.000  C
  C269     1.0000 0.77780  0.34850  0.41410  Biso   1.000  C
  C270     1.0000 0.77900  0.33570  0.45560  Biso   1.000  C
  O209     1.0000 0.83380  0.35770  0.46954  Biso   1.000  O
  O210     1.0000 0.72640  0.30390  0.47160  Biso   1.000  O
  N20      1.0000 0.87040  0.64690  0.53120  Biso   1.000  N
  C271     1.0000 0.86910  0.62490  0.49170  Biso   1.000  C
  C272     1.0000 0.90600  0.59120  0.48470  Biso   1.000  C
  C273     1.0000 0.87940  0.52740  0.50560  Biso   1.000  C
  O211     1.0000 0.85670  0.52310  0.53848  Biso   1.000  O
  O212     1.0000 0.88670  0.48570  0.48919  Biso   1.000  O
  C274     1.0000 0.83210  0.68030  0.53430  Biso   1.000  C
  C275     1.0000 0.76850  0.65070  0.51400  Biso   1.000  C
  C276     1.0000 0.71910  0.58410  0.52620  Biso   1.000  C
  O213     1.0000 0.73820  0.54740  0.53822  Biso   1.000  O
  O214     1.0000 0.90790  0.33830  0.52282  Biso   1.000  O
  C277     1.0000 0.93620  0.69440  0.54900  Biso   1.000  C
  C278     1.0000 0.96840  0.66390  0.56980  Biso   1.000  C
  C279     1.0000 0.93390  0.63000  0.60500  Biso   1.000  C
  O215     1.0000 0.87320  0.60700  0.60447  Biso   1.000  O
  O216     1.0000 0.96470  0.62170  0.63010  Biso   1.000  O
  N21      1.0000 0.55350  0.52550  0.62780  Biso   1.000  N
  C280     1.0000 0.60420  0.59490  0.63220  Biso   1.000  C
  C281     1.0000 0.66720  0.61370  0.63240  Biso   1.000  C
  C282     1.0000 0.69730  0.57650  0.61860  Biso   1.000  C
  O217     1.0000 0.66140  0.52140  0.60506  Biso   1.000  O
  O218     1.0000 0.75740  0.60170  0.62104  Biso   1.000  O
  C283     1.0000 0.48640  0.50740  0.62310  Biso   1.000  C
  C284     1.0000 0.46980  0.52360  0.58420  Biso   1.000  C
  C285     1.0000 0.48220  0.49160  0.55020  Biso   1.000  C
  O219     1.0000 0.95640  0.46700  0.55149  Biso   1.000  O
  O220     1.0000 0.97190  0.44320  0.47685  Biso   1.000  O
  C286     1.0000 0.56420  0.50520  0.66710  Biso   1.000  C
  C287     1.0000 0.51990  0.43790  0.67760  Biso   1.000  C
  C288     1.0000 0.51290  0.38670  0.65060  Biso   1.000  C
  O221     1.0000 0.87150  0.47120  0.61617  Biso   1.000  O
  O222     1.0000 0.84340  0.51080  0.66528  Biso   1.000  O
  H427     1.0000 0.95910  0.91780  0.80770  Biso   1.000  H
  H428     1.0000 0.90500  0.95830  0.56960  Biso   1.000  H
  H429     1.0000 0.94010  0.93290  0.54250  Biso   1.000  H
  H430     1.0000 0.95050  0.87650  0.59490  Biso   1.000  H
  H431     1.0000 0.87820  0.85100  0.58290  Biso   1.000  H
  C289     1.0000 0.94390  0.00580  0.56320  Biso   1.000  C
  H432     1.0000 0.90320  0.96540  0.56610  Biso   1.000  H
  H433     1.0000 0.95080  0.01700  0.53600  Biso   1.000  H
  C290     1.0000 0.94300  0.88570  0.58520  Biso   1.000  C
  H434     1.0000 0.93640  0.84470  0.57550  Biso   1.000  H
  H435     1.0000 0.90270  0.88630  0.58090  Biso   1.000  H
  C291     1.0000 0.95370  0.88820  0.62460  Biso   1.000  C
  O223     1.0000 0.89840  0.85420  0.64430  Biso   1.000  O
  O224     1.0000 0.00830  0.93100  0.64100  Biso   1.000  O
  H436     1.0000 0.86800  0.72170  0.77680  Biso   1.000  H
  H437     1.0000 0.85320  0.73450  0.83910  Biso   1.000  H
  H438     1.0000 0.84080  0.66460  0.84760  Biso   1.000  H
  H439     1.0000 0.94790  0.69780  0.83310  Biso   1.000  H
  H440     1.0000 0.94290  0.73760  0.86740  Biso   1.000  H
  H441     1.0000 0.76850  0.65870  0.75790  Biso   1.000  H
  H442     1.0000 0.75380  0.61370  0.79380  Biso   1.000  H
  H443     1.0000 0.75210  0.68890  0.83280  Biso   1.000  H
  H444     1.0000 0.70270  0.67240  0.79920  Biso   1.000  H
  H445     1.0000 0.85670  0.60570  0.79570  Biso   1.000  H
  H446     1.0000 0.91520  0.66330  0.77460  Biso   1.000  H
  H447     1.0000 0.85730  0.57900  0.73360  Biso   1.000  H
  H448     1.0000 0.79450  0.58240  0.74180  Biso   1.000  H
  H449     1.0000 0.72010  0.41550  0.51480  Biso   1.000  H
  H450     1.0000 0.63980  0.38540  0.62920  Biso   1.000  H
  H451     1.0000 0.61170  0.37450  0.74430  Biso   1.000  H
  H452     1.0000 0.66110  0.38980  0.77790  Biso   1.000  H
  H453     1.0000 0.74490  0.46120  0.73840  Biso   1.000  H
  H454     1.0000 0.69320  0.48240  0.74480  Biso   1.000  H
  H455     1.0000 0.73170  0.42620  0.40010  Biso   1.000  H
  H456     1.0000 0.67820  0.39690  0.36820  Biso   1.000  H
  H457     1.0000 0.60520  0.40100  0.41060  Biso   1.000  H
  H458     1.0000 0.66380  0.46960  0.40080  Biso   1.000  H
  H459     1.0000 0.85120  0.61110  0.54650  Biso   1.000  H
  H460     1.0000 0.82420  0.59580  0.48450  Biso   1.000  H
  H461     1.0000 0.88580  0.66220  0.47480  Biso   1.000  H
  H462     1.0000 0.90610  0.58350  0.45720  Biso   1.000  H
  H463     1.0000 0.95070  0.61940  0.49260  Biso   1.000  H
  H464     1.0000 0.82430  0.68360  0.56140  Biso   1.000  H
  H465     1.0000 0.85860  0.72420  0.52460  Biso   1.000  H
  H466     1.0000 0.77640  0.64960  0.48660  Biso   1.000  H
  H467     1.0000 0.75030  0.67880  0.51740  Biso   1.000  H
  H468     1.0000 0.93020  0.72250  0.56670  Biso   1.000  H
  H469     1.0000 0.96490  0.72150  0.52870  Biso   1.000  H
  H470     1.0000 0.01220  0.69710  0.57650  Biso   1.000  H
  H471     1.0000 0.97150  0.63320  0.55280  Biso   1.000  H
  H472     1.0000 0.56040  0.50040  0.61070  Biso   1.000  H
  H473     1.0000 0.56400  0.50040  0.61300  Biso   1.000  H
  C292     1.0000 0.60130  0.59310  0.61760  Biso   1.000  C
  H474     1.0000 0.60320  0.59760  0.58980  Biso   1.000  H
  H475     1.0000 0.58690  0.62170  0.62790  Biso   1.000  H
  H476     1.0000 0.59520  0.60980  0.65620  Biso   1.000  H
  H477     1.0000 0.59750  0.61860  0.61170  Biso   1.000  H
  H478     1.0000 0.66520  0.61120  0.66030  Biso   1.000  H
  H479     1.0000 0.69550  0.65890  0.62550  Biso   1.000  H
  H480     1.0000 0.68820  0.65420  0.61810  Biso   1.000  H
  H481     1.0000 0.68120  0.62490  0.65890  Biso   1.000  H
  H482     1.0000 0.45980  0.46100  0.62720  Biso   1.000  H
  H483     1.0000 0.47520  0.52900  0.64280  Biso   1.000  H
  C293     1.0000 0.50700  0.55200  0.60740  Biso   1.000  C
  H484     1.0000 0.53670  0.59410  0.59670  Biso   1.000  H
  H485     1.0000 0.48420  0.55860  0.62820  Biso   1.000  H
  H486     1.0000 0.49480  0.57030  0.58070  Biso   1.000  H
  H487     1.0000 0.42430  0.51120  0.58420  Biso   1.000  H
  H488     1.0000 0.43220  0.48970  0.59740  Biso   1.000  H
  H489     1.0000 0.45690  0.55320  0.57360  Biso   1.000  H
  H490     1.0000 0.56060  0.53290  0.68630  Biso   1.000  H
  H491     1.0000 0.60830  0.51270  0.66830  Biso   1.000  H
  C294     1.0000 0.51900  0.49860  0.65840  Biso   1.000  C
  H492     1.0000 0.53250  0.53210  0.67790  Biso   1.000  H
  H493     1.0000 0.47410  0.48490  0.65210  Biso   1.000  H
  H494     1.0000 0.53380  0.42980  0.70220  Biso   1.000  H
  H495     1.0000 0.47730  0.43290  0.68140  Biso   1.000  H
  H496     1.0000 0.48520  0.41870  0.69640  Biso   1.000  H
  H497     1.0000 0.56060  0.45380  0.69130  Biso   1.000  H
  Fe36     1.0000 0.21491  0.10076  0.68234  Biso   1.000  Fe
  O225     1.0000 0.08286  0.04166  0.77950  Biso   1.000  O
  O226     1.0000 0.16060  0.08030  0.72385  Biso   1.000  O
  C295     1.0000 0.05490  0.99240  0.56880  Biso   1.000  C
  C296     1.0000 0.11250  0.02880  0.59410  Biso   1.000  C
  C297     1.0000 0.10250  0.00360  0.63340  Biso   1.000  C
  O227     1.0000 0.15340  0.02710  0.65420  Biso   1.000  O
  O228     1.0000 0.05020  0.96390  0.64510  Biso   1.000  O
  N22      1.0000 0.31540  0.16220  0.79095  Biso   1.000  N
  C298     1.0000 0.29730  0.16270  0.83170  Biso   1.000  C
  C299     1.0000 0.26990  0.20610  0.83990  Biso   1.000  C
  C300     1.0000 0.20900  0.18980  0.81980  Biso   1.000  C
  O229     1.0000 0.20230  0.16760  0.78676  Biso   1.000  O
  O230     1.0000 0.20050  0.17040  0.66299  Biso   1.000  O
  C301     1.0000 0.34150  0.11810  0.78520  Biso   1.000  C
  C302     1.0000 0.30640  0.05500  0.80530  Biso   1.000  C
  C303     1.0000 0.23700  0.01430  0.79680  Biso   1.000  C
  O231     1.0000 0.20890  0.04050  0.78119  Biso   1.000  O
  O232     1.0000 0.25390  0.04390  0.69393  Biso   1.000  O
  C304     1.0000 0.36050  0.22870  0.77660  Biso   1.000  C
  C305     1.0000 0.39160  0.23290  0.73920  Biso   1.000  C
  C306     1.0000 0.34760  0.20370  0.70610  Biso   1.000  C
  O233     1.0000 0.28930  0.16700  0.71367  Biso   1.000  O
  O234     1.0000 0.36940  0.21390  0.67315  Biso   1.000  O
  Fe37     1.0000 0.55071  0.35671  0.57394  Biso   1.000  Fe
  Fe38     1.0000 0.52918  0.21854  0.57195  Biso   1.000  Fe
  Fe39     1.0000 0.44907  0.24912  0.63854  Biso   1.000  Fe
  Fe40     1.0000 0.58869  0.47983  0.51101  Biso   1.000  Fe
  O235     1.0000 0.58450  0.30390  0.54297  Biso   1.000  O
  O236     1.0000 0.63810  0.38550  0.60102  Biso   1.000  O
  O237     1.0000 0.51010  0.27520  0.59994  Biso   1.000  O
  O238     1.0000 0.60740  0.43490  0.54671  Biso   1.000  O
  C307     1.0000 0.61400  0.27010  0.75020  Biso   1.000  C
  C308     1.0000 0.54990  0.25060  0.73260  Biso   1.000  C
  C309     1.0000 0.54540  0.24040  0.69110  Biso   1.000  C
  O239     1.0000 0.49020  0.22010  0.67616  Biso   1.000  O
  O240     1.0000 0.59470  0.25140  0.67318  Biso   1.000  O
  C310     1.0000 0.68540  0.39850  0.39580  Biso   1.000  C
  C311     1.0000 0.65150  0.42930  0.41410  Biso   1.000  C
  C312     1.0000 0.66430  0.44330  0.45560  Biso   1.000  C
  O241     1.0000 0.64230  0.47610  0.46954  Biso   1.000  O
  O242     1.0000 0.69610  0.42250  0.47160  Biso   1.000  O
  N23      1.0000 0.35310  0.22350  0.53120  Biso   1.000  N
  C313     1.0000 0.37510  0.24420  0.49170  Biso   1.000  C
  C314     1.0000 0.40880  0.31480  0.48470  Biso   1.000  C
  C315     1.0000 0.47260  0.35200  0.50560  Biso   1.000  C
  O243     1.0000 0.47690  0.33360  0.53848  Biso   1.000  O
  O244     1.0000 0.51430  0.40100  0.48919  Biso   1.000  O
  C316     1.0000 0.31970  0.15180  0.53430  Biso   1.000  C
  C317     1.0000 0.34930  0.11780  0.51400  Biso   1.000  C
  C318     1.0000 0.41590  0.13500  0.52620  Biso   1.000  C
  O245     1.0000 0.45260  0.19080  0.53822  Biso   1.000  O
  O246     1.0000 0.66170  0.56960  0.52282  Biso   1.000  O
  C319     1.0000 0.30560  0.24180  0.54900  Biso   1.000  C
  C320     1.0000 0.33610  0.30450  0.56980  Biso   1.000  C
  C321     1.0000 0.37000  0.30390  0.60500  Biso   1.000  C
  O247     1.0000 0.39300  0.26620  0.60447  Biso   1.000  O
  O248     1.0000 0.37830  0.34300  0.63010  Biso   1.000  O
  N24      1.0000 0.47450  0.02800  0.62780  Biso   1.000  N
  C322     1.0000 0.40510  0.00930  0.63220  Biso   1.000  C
  C323     1.0000 0.38630  0.05350  0.63240  Biso   1.000  C
  C324     1.0000 0.42350  0.12080  0.61860  Biso   1.000  C
  O249     1.0000 0.47860  0.14000  0.60506  Biso   1.000  O
  O250     1.0000 0.39830  0.15570  0.62104  Biso   1.000  O
  C325     1.0000 0.49260  0.97900  0.62310  Biso   1.000  C
  C326     1.0000 0.47640  0.94620  0.58420  Biso   1.000  C
  C327     1.0000 0.50840  0.99060  0.55020  Biso   1.000  C
  O251     1.0000 0.53300  0.48940  0.55149  Biso   1.000  O
  O252     1.0000 0.55680  0.52870  0.47685  Biso   1.000  O
  C328     1.0000 0.49480  0.05900  0.66710  Biso   1.000  C
  C329     1.0000 0.56210  0.08200  0.67760  Biso   1.000  C
  C330     1.0000 0.61330  0.12620  0.65060  Biso   1.000  C
  O253     1.0000 0.52880  0.40030  0.61617  Biso   1.000  O
  O254     1.0000 0.48920  0.33260  0.66528  Biso   1.000  O
  H498     1.0000 0.08220  0.04130  0.80770  Biso   1.000  H
  H499     1.0000 0.04170  0.94670  0.56960  Biso   1.000  H
  H500     1.0000 0.06710  0.00720  0.54250  Biso   1.000  H
  H501     1.0000 0.12350  0.07400  0.59490  Biso   1.000  H
  H502     1.0000 0.14900  0.02720  0.58290  Biso   1.000  H
  C331     1.0000 0.99420  0.93810  0.56320  Biso   1.000  C
  H503     1.0000 0.03460  0.93780  0.56610  Biso   1.000  H
  H504     1.0000 0.98300  0.93380  0.53600  Biso   1.000  H
  C332     1.0000 0.11430  0.05730  0.58520  Biso   1.000  C
  H505     1.0000 0.15530  0.09170  0.57550  Biso   1.000  H
  H506     1.0000 0.11370  0.01640  0.58090  Biso   1.000  H
  C333     1.0000 0.11180  0.06550  0.62460  Biso   1.000  C
  O255     1.0000 0.14580  0.04420  0.64430  Biso   1.000  O
  O256     1.0000 0.06900  0.07730  0.64100  Biso   1.000  O
  H507     1.0000 0.27830  0.14630  0.77680  Biso   1.000  H
  H508     1.0000 0.26550  0.11870  0.83910  Biso   1.000  H
  H509     1.0000 0.33540  0.17620  0.84760  Biso   1.000  H
  H510     1.0000 0.30220  0.25010  0.83310  Biso   1.000  H
  H511     1.0000 0.26240  0.20530  0.86740  Biso   1.000  H
  H512     1.0000 0.34130  0.10980  0.75790  Biso   1.000  H
  H513     1.0000 0.38630  0.14010  0.79380  Biso   1.000  H
  H514     1.0000 0.31110  0.06320  0.83280  Biso   1.000  H
  H515     1.0000 0.32760  0.03030  0.79920  Biso   1.000  H
  H516     1.0000 0.39430  0.25100  0.79570  Biso   1.000  H
  H517     1.0000 0.33670  0.25190  0.77460  Biso   1.000  H
  H518     1.0000 0.42100  0.27830  0.73360  Biso   1.000  H
  H519     1.0000 0.41760  0.21210  0.74180  Biso   1.000  H
  H520     1.0000 0.58450  0.30460  0.51480  Biso   1.000  H
  H521     1.0000 0.61460  0.25440  0.62920  Biso   1.000  H
  H522     1.0000 0.62550  0.23720  0.74430  Biso   1.000  H
  H523     1.0000 0.61020  0.27130  0.77790  Biso   1.000  H
  H524     1.0000 0.53880  0.28370  0.73840  Biso   1.000  H
  H525     1.0000 0.51760  0.21080  0.74480  Biso   1.000  H
  H526     1.0000 0.57380  0.30550  0.40010  Biso   1.000  H
  H527     1.0000 0.60310  0.28130  0.36820  Biso   1.000  H
  H528     1.0000 0.59900  0.20420  0.41060  Biso   1.000  H
  H529     1.0000 0.53040  0.19420  0.40080  Biso   1.000  H
  H530     1.0000 0.38890  0.24010  0.54650  Biso   1.000  H
  H531     1.0000 0.40420  0.22840  0.48450  Biso   1.000  H
  H532     1.0000 0.33780  0.22360  0.47480  Biso   1.000  H
  H533     1.0000 0.41650  0.32260  0.45720  Biso   1.000  H
  H534     1.0000 0.38060  0.33130  0.49260  Biso   1.000  H
  H535     1.0000 0.31640  0.14070  0.56140  Biso   1.000  H
  H536     1.0000 0.27580  0.13440  0.52460  Biso   1.000  H
  H537     1.0000 0.35040  0.12680  0.48660  Biso   1.000  H
  H538     1.0000 0.32120  0.07150  0.51740  Biso   1.000  H
  H539     1.0000 0.27750  0.20770  0.56670  Biso   1.000  H
  H540     1.0000 0.27850  0.24340  0.52870  Biso   1.000  H
  H541     1.0000 0.30290  0.31510  0.57650  Biso   1.000  H
  H542     1.0000 0.36680  0.33830  0.55280  Biso   1.000  H
  H543     1.0000 0.49960  0.06000  0.61070  Biso   1.000  H
  H544     1.0000 0.49960  0.06360  0.61300  Biso   1.000  H
  C334     1.0000 0.40690  0.00820  0.61760  Biso   1.000  C
  H545     1.0000 0.40240  0.00560  0.58980  Biso   1.000  H
  H546     1.0000 0.37830  0.96520  0.62790  Biso   1.000  H
  H547     1.0000 0.39020  0.98540  0.65620  Biso   1.000  H
  H548     1.0000 0.38140  0.97890  0.61170  Biso   1.000  H
  H549     1.0000 0.38880  0.05400  0.66030  Biso   1.000  H
  H550     1.0000 0.34110  0.03660  0.62550  Biso   1.000  H
  H551     1.0000 0.34580  0.03400  0.61810  Biso   1.000  H
  H552     1.0000 0.37510  0.05630  0.65890  Biso   1.000  H
  H553     1.0000 0.53900  0.99880  0.62720  Biso   1.000  H
  H554     1.0000 0.47100  0.94620  0.64280  Biso   1.000  H
  C335     1.0000 0.44800  0.95500  0.60740  Biso   1.000  C
  H555     1.0000 0.40590  0.94260  0.59670  Biso   1.000  H
  H556     1.0000 0.44140  0.92560  0.62820  Biso   1.000  H
  H557     1.0000 0.42970  0.92450  0.58070  Biso   1.000  H
  H558     1.0000 0.48880  0.91310  0.58420  Biso   1.000  H
  H559     1.0000 0.51030  0.94250  0.59740  Biso   1.000  H
  H560     1.0000 0.44680  0.90370  0.57360  Biso   1.000  H
  H561     1.0000 0.46710  0.02770  0.68630  Biso   1.000  H
  H562     1.0000 0.48730  0.09560  0.66830  Biso   1.000  H
  C336     1.0000 0.50140  0.02040  0.65840  Biso   1.000  C
  H563     1.0000 0.46790  0.00040  0.67790  Biso   1.000  H
  H564     1.0000 0.51510  0.98920  0.65210  Biso   1.000  H
  H565     1.0000 0.57020  0.10400  0.70220  Biso   1.000  H
  H566     1.0000 0.56710  0.04440  0.68140  Biso   1.000  H
  H567     1.0000 0.58130  0.06650  0.69640  Biso   1.000  H
  H568     1.0000 0.54620  0.10680  0.69130  Biso   1.000  H
  Fe41     1.0000 0.89924  0.11415  0.68234  Biso   1.000  Fe
  O257     1.0000 0.95834  0.04120  0.77950  Biso   1.000  O
  O258     1.0000 0.91970  0.08030  0.72385  Biso   1.000  O
  C337     1.0000 0.00760  0.06250  0.56880  Biso   1.000  C
  C338     1.0000 0.97120  0.08370  0.59410  Biso   1.000  C
  C339     1.0000 0.99640  0.09890  0.63340  Biso   1.000  C
  O259     1.0000 0.97290  0.12630  0.65420  Biso   1.000  O
  O260     1.0000 0.03610  0.08630  0.64510  Biso   1.000  O
  N25      1.0000 0.83780  0.15320  0.79095  Biso   1.000  N
  C340     1.0000 0.83730  0.13460  0.83170  Biso   1.000  C
  C341     1.0000 0.79390  0.06380  0.83990  Biso   1.000  C
  C342     1.0000 0.81020  0.01920  0.81980  Biso   1.000  C
  O261     1.0000 0.83240  0.03470  0.78676  Biso   1.000  O
  O262     1.0000 0.82960  0.03010  0.66299  Biso   1.000  O
  C343     1.0000 0.88190  0.22340  0.78520  Biso   1.000  C
  C344     1.0000 0.94500  0.25140  0.80530  Biso   1.000  C
  C345     1.0000 0.98570  0.22270  0.79680  Biso   1.000  C
  O263     1.0000 0.95950  0.16840  0.78119  Biso   1.000  O
  O264     1.0000 0.95610  0.21000  0.69393  Biso   1.000  O
  C346     1.0000 0.77130  0.13180  0.77660  Biso   1.000  C
  C347     1.0000 0.76710  0.15870  0.73920  Biso   1.000  C
  C348     1.0000 0.79630  0.14390  0.70610  Biso   1.000  C
  O265     1.0000 0.83300  0.12230  0.71367  Biso   1.000  O
  O266     1.0000 0.78610  0.15550  0.67315  Biso   1.000  O
  Fe42     1.0000 0.64329  0.19400  0.57394  Biso   1.000  Fe
  Fe43     1.0000 0.78146  0.31064  0.57195  Biso   1.000  Fe
  Fe44     1.0000 0.75088  0.19995  0.63854  Biso   1.000  Fe
  Fe45     1.0000 0.52017  0.10886  0.51101  Biso   1.000  Fe
  O267     1.0000 0.69610  0.28060  0.54297  Biso   1.000  O
  O268     1.0000 0.61450  0.25260  0.60102  Biso   1.000  O
  O269     1.0000 0.72480  0.23490  0.59994  Biso   1.000  O
  O270     1.0000 0.56510  0.17250  0.54671  Biso   1.000  O
  C349     1.0000 0.72990  0.34390  0.75020  Biso   1.000  C
  C350     1.0000 0.74940  0.29930  0.73260  Biso   1.000  C
  C351     1.0000 0.75960  0.30500  0.69110  Biso   1.000  C
  O271     1.0000 0.77990  0.27010  0.67616  Biso   1.000  O
  O272     1.0000 0.74860  0.34330  0.67318  Biso   1.000  O
  C352     1.0000 0.60150  0.28690  0.39580  Biso   1.000  C
  C353     1.0000 0.57070  0.22220  0.41410  Biso   1.000  C
  C354     1.0000 0.55670  0.22100  0.45560  Biso   1.000  C
  O273     1.0000 0.52390  0.16620  0.46954  Biso   1.000  O
  O274     1.0000 0.57750  0.27360  0.47160  Biso   1.000  O
  N26      1.0000 0.77650  0.12960  0.53120  Biso   1.000  N
  C355     1.0000 0.75580  0.13090  0.49170  Biso   1.000  C
  C356     1.0000 0.68520  0.09400  0.48470  Biso   1.000  C
  C357     1.0000 0.64800  0.12060  0.50560  Biso   1.000  C
  O275     1.0000 0.66640  0.14330  0.53848  Biso   1.000  O
  O276     1.0000 0.59900  0.11330  0.48919  Biso   1.000  O
  C358     1.0000 0.84820  0.16790  0.53430  Biso   1.000  C
  C359     1.0000 0.88220  0.23150  0.51400  Biso   1.000  C
  C360     1.0000 0.86500  0.28090  0.52620  Biso   1.000  C
  O277     1.0000 0.80920  0.26180  0.53822  Biso   1.000  O
  O278     1.0000 0.43040  0.09210  0.52282  Biso   1.000  O
  C361     1.0000 0.75820  0.06380  0.54900  Biso   1.000  C
  C362     1.0000 0.69550  0.03160  0.56980  Biso   1.000  C
  C363     1.0000 0.69610  0.06610  0.60500  Biso   1.000  C
  O279     1.0000 0.73380  0.12680  0.60447  Biso   1.000  O
  O280     1.0000 0.65700  0.03530  0.63010  Biso   1.000  O
  N27      1.0000 0.97200  0.44650  0.62780  Biso   1.000  N
  C364     1.0000 0.99070  0.39580  0.63220  Biso   1.000  C
  C365     1.0000 0.94650  0.33280  0.63240  Biso   1.000  C
  C366     1.0000 0.87920  0.30270  0.61860  Biso   1.000  C
  O281     1.0000 0.86000  0.33860  0.60506  Biso   1.000  O
  O282     1.0000 0.84430  0.24260  0.62104  Biso   1.000  O
  C367     1.0000 0.02100  0.51360  0.62310  Biso   1.000  C
  C368     1.0000 0.05380  0.53020  0.58420  Biso   1.000  C
  C369     1.0000 0.00940  0.51780  0.55020  Biso   1.000  C
  O283     1.0000 0.51060  0.04360  0.55149  Biso   1.000  O
  O284     1.0000 0.47130  0.02810  0.47685  Biso   1.000  O
  C370     1.0000 0.94100  0.43580  0.66710  Biso   1.000  C
  C371     1.0000 0.91800  0.48010  0.67760  Biso   1.000  C
  C372     1.0000 0.87380  0.48710  0.65060  Biso   1.000  C
  O285     1.0000 0.59970  0.12850  0.61617  Biso   1.000  O
  O286     1.0000 0.66740  0.15660  0.66528  Biso   1.000  O
  H569     1.0000 0.95870  0.04090  0.80770  Biso   1.000  H
  H570     1.0000 0.05330  0.09500  0.56960  Biso   1.000  H
  H571     1.0000 0.99280  0.05990  0.54250  Biso   1.000  H
  H572     1.0000 0.92600  0.04950  0.59490  Biso   1.000  H
  H573     1.0000 0.97280  0.12180  0.58290  Biso   1.000  H
  C373     1.0000 0.06190  0.05610  0.56320  Biso   1.000  C
  H574     1.0000 0.06220  0.09680  0.56610  Biso   1.000  H
  H575     1.0000 0.06620  0.04920  0.53600  Biso   1.000  H
  C374     1.0000 0.94270  0.05700  0.58520  Biso   1.000  C
  H576     1.0000 0.90830  0.06360  0.57550  Biso   1.000  H
  H577     1.0000 0.98360  0.09730  0.58090  Biso   1.000  H
  C375     1.0000 0.93450  0.04630  0.62460  Biso   1.000  C
  O287     1.0000 0.95580  0.10160  0.64430  Biso   1.000  O
  O288     1.0000 0.92270  0.99170  0.64100  Biso   1.000  O
  H578     1.0000 0.85370  0.13200  0.77680  Biso   1.000  H
  H579     1.0000 0.88130  0.14680  0.83910  Biso   1.000  H
  H580     1.0000 0.82380  0.15920  0.84760  Biso   1.000  H
  H581     1.0000 0.74990  0.05210  0.83310  Biso   1.000  H
  H582     1.0000 0.79470  0.05710  0.86740  Biso   1.000  H
  H583     1.0000 0.89020  0.23150  0.75790  Biso   1.000  H
  H584     1.0000 0.85990  0.24620  0.79380  Biso   1.000  H
  H585     1.0000 0.93680  0.24790  0.83280  Biso   1.000  H
  H586     1.0000 0.96970  0.29730  0.79920  Biso   1.000  H
  H587     1.0000 0.74900  0.14330  0.79570  Biso   1.000  H
  H588     1.0000 0.74810  0.08480  0.77460  Biso   1.000  H
  H589     1.0000 0.72170  0.14270  0.73360  Biso   1.000  H
  H590     1.0000 0.78790  0.20550  0.74180  Biso   1.000  H
  H591     1.0000 0.69540  0.27990  0.51480  Biso   1.000  H
  H592     1.0000 0.74560  0.36020  0.62920  Biso   1.000  H
  H593     1.0000 0.76280  0.38830  0.74430  Biso   1.000  H
  H594     1.0000 0.72870  0.33890  0.77790  Biso   1.000  H
  H595     1.0000 0.71630  0.25510  0.73840  Biso   1.000  H
  H596     1.0000 0.78920  0.30680  0.74480  Biso   1.000  H
  H597     1.0000 0.69450  0.26830  0.40010  Biso   1.000  H
  H598     1.0000 0.71870  0.32180  0.36820  Biso   1.000  H
  H599     1.0000 0.79580  0.39480  0.41060  Biso   1.000  H
  H600     1.0000 0.80580  0.33620  0.40080  Biso   1.000  H
  H601     1.0000 0.75990  0.14880  0.54650  Biso   1.000  H
  H602     1.0000 0.77160  0.17580  0.48450  Biso   1.000  H
  H603     1.0000 0.77640  0.11420  0.47480  Biso   1.000  H
  H604     1.0000 0.67740  0.09390  0.45720  Biso   1.000  H
  H605     1.0000 0.66870  0.04930  0.49260  Biso   1.000  H
  H606     1.0000 0.85930  0.17570  0.56140  Biso   1.000  H
  H607     1.0000 0.86560  0.14140  0.52460  Biso   1.000  H
  H608     1.0000 0.87320  0.22360  0.48660  Biso   1.000  H
  H609     1.0000 0.92850  0.24970  0.51740  Biso   1.000  H
  H610     1.0000 0.79230  0.06980  0.56670  Biso   1.000  H
  H611     1.0000 0.75660  0.03510  0.52870  Biso   1.000  H
  H612     1.0000 0.68490  0.98780  0.57650  Biso   1.000  H
  H613     1.0000 0.66170  0.02850  0.55280  Biso   1.000  H
  H614     1.0000 0.94000  0.43960  0.61070  Biso   1.000  H
  H615     1.0000 0.93640  0.43600  0.61300  Biso   1.000  H
  C376     1.0000 0.99180  0.39870  0.61760  Biso   1.000  C
  H616     1.0000 0.99440  0.39680  0.58980  Biso   1.000  H
  H617     1.0000 0.03480  0.41310  0.62790  Biso   1.000  H
  H618     1.0000 0.01460  0.40480  0.65620  Biso   1.000  H
  H619     1.0000 0.02110  0.40250  0.61170  Biso   1.000  H
  H620     1.0000 0.94600  0.33480  0.66030  Biso   1.000  H
  H621     1.0000 0.96340  0.30450  0.62550  Biso   1.000  H
  H622     1.0000 0.96600  0.31180  0.61810  Biso   1.000  H
  H623     1.0000 0.94370  0.31880  0.65890  Biso   1.000  H
  H624     1.0000 0.00120  0.54020  0.62720  Biso   1.000  H
  H625     1.0000 0.05380  0.52480  0.64280  Biso   1.000  H
  C377     1.0000 0.04500  0.49300  0.60740  Biso   1.000  C
  H626     1.0000 0.05740  0.46330  0.59670  Biso   1.000  H
  H627     1.0000 0.07440  0.51580  0.62820  Biso   1.000  H
  H628     1.0000 0.07550  0.50520  0.58070  Biso   1.000  H
  H629     1.0000 0.08690  0.57570  0.58420  Biso   1.000  H
  H630     1.0000 0.05750  0.56780  0.59740  Biso   1.000  H
  H631     1.0000 0.09630  0.54310  0.57360  Biso   1.000  H
  H632     1.0000 0.97230  0.43940  0.68630  Biso   1.000  H
  H633     1.0000 0.90440  0.39170  0.66830  Biso   1.000  H
  C378     1.0000 0.97960  0.48100  0.65840  Biso   1.000  C
  H634     1.0000 0.99960  0.46750  0.67790  Biso   1.000  H
  H635     1.0000 0.01080  0.52590  0.65210  Biso   1.000  H
  H636     1.0000 0.89600  0.46620  0.70220  Biso   1.000  H
  H637     1.0000 0.95560  0.52270  0.68140  Biso   1.000  H
  H638     1.0000 0.93350  0.51480  0.69640  Biso   1.000  H
  H639     1.0000 0.89320  0.43940  0.69130  Biso   1.000  H
  Fe46     1.0000 0.78509  0.88585  0.81766  Biso   1.000  Fe
  O289     1.0000 0.91714  0.95880  0.72050  Biso   1.000  O
  O290     1.0000 0.83940  0.91970  0.77615  Biso   1.000  O
  C379     1.0000 0.94510  0.93750  0.93120  Biso   1.000  C
  C380     1.0000 0.88750  0.91630  0.90590  Biso   1.000  C
  C381     1.0000 0.89750  0.90110  0.86660  Biso   1.000  C
  O291     1.0000 0.84660  0.87370  0.84580  Biso   1.000  O
  O292     1.0000 0.94980  0.91370  0.85490  Biso   1.000  O
  N28      1.0000 0.68460  0.84680  0.70905  Biso   1.000  N
  C382     1.0000 0.70270  0.86540  0.66830  Biso   1.000  C
  C383     1.0000 0.73010  0.93620  0.66010  Biso   1.000  C
  C384     1.0000 0.79100  0.98080  0.68020  Biso   1.000  C
  O293     1.0000 0.79770  0.96530  0.71324  Biso   1.000  O
  O294     1.0000 0.79950  0.96990  0.83701  Biso   1.000  O
  C385     1.0000 0.65850  0.77660  0.71480  Biso   1.000  C
  C386     1.0000 0.69360  0.74860  0.69470  Biso   1.000  C
  C387     1.0000 0.76300  0.77730  0.70320  Biso   1.000  C
  O295     1.0000 0.79110  0.83160  0.71881  Biso   1.000  O
  O296     1.0000 0.74610  0.79000  0.80607  Biso   1.000  O
  C388     1.0000 0.63950  0.86820  0.72340  Biso   1.000  C
  C389     1.0000 0.60840  0.84130  0.76080  Biso   1.000  C
  C390     1.0000 0.65240  0.85610  0.79390  Biso   1.000  C
  O297     1.0000 0.71070  0.87770  0.78633  Biso   1.000  O
  O298     1.0000 0.63060  0.84450  0.82685  Biso   1.000  O
  Fe47     1.0000 0.44929  0.80600  0.92606  Biso   1.000  Fe
  Fe48     1.0000 0.47082  0.68936  0.92805  Biso   1.000  Fe
  Fe49     1.0000 0.55093  0.80005  0.86146  Biso   1.000  Fe
  Fe50     1.0000 0.41131  0.89114  0.98899  Biso   1.000  Fe
  O299     1.0000 0.41550  0.71940  0.95703  Biso   1.000  O
  O300     1.0000 0.36190  0.74740  0.89898  Biso   1.000  O
  O301     1.0000 0.48990  0.76510  0.90006  Biso   1.000  O
  O302     1.0000 0.39260  0.82750  0.95329  Biso   1.000  O
  C391     1.0000 0.38600  0.65610  0.74980  Biso   1.000  C
  C392     1.0000 0.45010  0.70070  0.76740  Biso   1.000  C
  C393     1.0000 0.45460  0.69500  0.80890  Biso   1.000  C
  O303     1.0000 0.50980  0.72990  0.82384  Biso   1.000  O
  O304     1.0000 0.40530  0.65670  0.82682  Biso   1.000  O
  C394     1.0000 0.31460  0.71310  0.10420  Biso   1.000  C
  C395     1.0000 0.34850  0.77780  0.08590  Biso   1.000  C
  C396     1.0000 0.33570  0.77900  0.04440  Biso   1.000  C
  O305     1.0000 0.35770  0.83380  0.03046  Biso   1.000  O
  O306     1.0000 0.30390  0.72640  0.02840  Biso   1.000  O
  N29      1.0000 0.64690  0.87040  0.96880  Biso   1.000  N
  C397     1.0000 0.62490  0.86910  0.00830  Biso   1.000  C
  C398     1.0000 0.59120  0.90600  0.01530  Biso   1.000  C
  C399     1.0000 0.52740  0.87940  0.99440  Biso   1.000  C
  O307     1.0000 0.52310  0.85670  0.96152  Biso   1.000  O
  O308     1.0000 0.48570  0.88670  0.01081  Biso   1.000  O
  C400     1.0000 0.68030  0.83210  0.96570  Biso   1.000  C
  C401     1.0000 0.65070  0.76850  0.98600  Biso   1.000  C
  C402     1.0000 0.58410  0.71910  0.97380  Biso   1.000  C
  O309     1.0000 0.54740  0.73820  0.96178  Biso   1.000  O
  O310     1.0000 0.33830  0.90790  0.97718  Biso   1.000  O
  C403     1.0000 0.69440  0.93620  0.95100  Biso   1.000  C
  C404     1.0000 0.66390  0.96840  0.93020  Biso   1.000  C
  C405     1.0000 0.63000  0.93390  0.89500  Biso   1.000  C
  O311     1.0000 0.60700  0.87320  0.89553  Biso   1.000  O
  O312     1.0000 0.62170  0.96470  0.86990  Biso   1.000  O
  N30      1.0000 0.52550  0.55350  0.87220  Biso   1.000  N
  C406     1.0000 0.59490  0.60420  0.86780  Biso   1.000  C
  C407     1.0000 0.61370  0.66720  0.86760  Biso   1.000  C
  C408     1.0000 0.57650  0.69730  0.88140  Biso   1.000  C
  O313     1.0000 0.52140  0.66140  0.89494  Biso   1.000  O
  O314     1.0000 0.60170  0.75740  0.87896  Biso   1.000  O
  C409     1.0000 0.50740  0.48640  0.87690  Biso   1.000  C
  C410     1.0000 0.52360  0.46980  0.91580  Biso   1.000  C
  C411     1.0000 0.49160  0.48220  0.94980  Biso   1.000  C
  O315     1.0000 0.46700  0.95640  0.94851  Biso   1.000  O
  O316     1.0000 0.44320  0.97190  0.02315  Biso   1.000  O
  C412     1.0000 0.50520  0.56420  0.83290  Biso   1.000  C
  C413     1.0000 0.43790  0.51990  0.82240  Biso   1.000  C
  C414     1.0000 0.38670  0.51290  0.84940  Biso   1.000  C
  O317     1.0000 0.47120  0.87150  0.88383  Biso   1.000  O
  O318     1.0000 0.51080  0.84340  0.83472  Biso   1.000  O
  H640     1.0000 0.91780  0.95910  0.69230  Biso   1.000  H
  H641     1.0000 0.95830  0.90500  0.93040  Biso   1.000  H
  H642     1.0000 0.93290  0.94010  0.95750  Biso   1.000  H
  H643     1.0000 0.87650  0.95050  0.90510  Biso   1.000  H
  H644     1.0000 0.85100  0.87820  0.91710  Biso   1.000  H
  C415     1.0000 0.00580  0.94390  0.93680  Biso   1.000  C
  H645     1.0000 0.96540  0.90320  0.93390  Biso   1.000  H
  H646     1.0000 0.01700  0.95080  0.96400  Biso   1.000  H
  C416     1.0000 0.88570  0.94300  0.91480  Biso   1.000  C
  H647     1.0000 0.84470  0.93640  0.92450  Biso   1.000  H
  H648     1.0000 0.88630  0.90270  0.91910  Biso   1.000  H
  C417     1.0000 0.88820  0.95370  0.87540  Biso   1.000  C
  O319     1.0000 0.85420  0.89840  0.85570  Biso   1.000  O
  O320     1.0000 0.93100  0.00830  0.85900  Biso   1.000  O
  H649     1.0000 0.72170  0.86800  0.72320  Biso   1.000  H
  H650     1.0000 0.73450  0.85320  0.66090  Biso   1.000  H
  H651     1.0000 0.66460  0.84080  0.65240  Biso   1.000  H
  H652     1.0000 0.69780  0.94790  0.66690  Biso   1.000  H
  H653     1.0000 0.73760  0.94290  0.63260  Biso   1.000  H
  H654     1.0000 0.65870  0.76850  0.74210  Biso   1.000  H
  H655     1.0000 0.61370  0.75380  0.70620  Biso   1.000  H
  H656     1.0000 0.68890  0.75210  0.66720  Biso   1.000  H
  H657     1.0000 0.67240  0.70270  0.70080  Biso   1.000  H
  H658     1.0000 0.60570  0.85670  0.70430  Biso   1.000  H
  H659     1.0000 0.66330  0.91520  0.72540  Biso   1.000  H
  H660     1.0000 0.57900  0.85730  0.76640  Biso   1.000  H
  H661     1.0000 0.58240  0.79450  0.75820  Biso   1.000  H
  H662     1.0000 0.41550  0.72010  0.98520  Biso   1.000  H
  H663     1.0000 0.38540  0.63980  0.87080  Biso   1.000  H
  H664     1.0000 0.37450  0.61170  0.75570  Biso   1.000  H
  H665     1.0000 0.38980  0.66110  0.72210  Biso   1.000  H
  H666     1.0000 0.46120  0.74490  0.76160  Biso   1.000  H
  H667     1.0000 0.48240  0.69320  0.75520  Biso   1.000  H
  H668     1.0000 0.42620  0.73170  0.09990  Biso   1.000  H
  H669     1.0000 0.39690  0.67820  0.13180  Biso   1.000  H
  H670     1.0000 0.40100  0.60520  0.08940  Biso   1.000  H
  H671     1.0000 0.46960  0.66380  0.09920  Biso   1.000  H
  H672     1.0000 0.61110  0.85120  0.95350  Biso   1.000  H
  H673     1.0000 0.59580  0.82420  0.01550  Biso   1.000  H
  H674     1.0000 0.66220  0.88580  0.02520  Biso   1.000  H
  H675     1.0000 0.58350  0.90610  0.04280  Biso   1.000  H
  H676     1.0000 0.61940  0.95070  0.00740  Biso   1.000  H
  H677     1.0000 0.68360  0.82430  0.93860  Biso   1.000  H
  H678     1.0000 0.72420  0.85860  0.97540  Biso   1.000  H
  H679     1.0000 0.64960  0.77640  0.01340  Biso   1.000  H
  H680     1.0000 0.67880  0.75030  0.98260  Biso   1.000  H
  H681     1.0000 0.72250  0.93020  0.93330  Biso   1.000  H
  H682     1.0000 0.72150  0.96490  0.97130  Biso   1.000  H
  H683     1.0000 0.69710  0.01220  0.92350  Biso   1.000  H
  H684     1.0000 0.63320  0.97150  0.94720  Biso   1.000  H
  H685     1.0000 0.50040  0.56040  0.88930  Biso   1.000  H
  H686     1.0000 0.50040  0.56400  0.88700  Biso   1.000  H
  C418     1.0000 0.59310  0.60130  0.88240  Biso   1.000  C
  H687     1.0000 0.59760  0.60320  0.91020  Biso   1.000  H
  H688     1.0000 0.62170  0.58690  0.87210  Biso   1.000  H
  H689     1.0000 0.60980  0.59520  0.84380  Biso   1.000  H
  H690     1.0000 0.61860  0.59750  0.88830  Biso   1.000  H
  H691     1.0000 0.61120  0.66520  0.83970  Biso   1.000  H
  H692     1.0000 0.65890  0.69550  0.87450  Biso   1.000  H
  H693     1.0000 0.65420  0.68820  0.88190  Biso   1.000  H
  H694     1.0000 0.62490  0.68120  0.84110  Biso   1.000  H
  H695     1.0000 0.46100  0.45980  0.87280  Biso   1.000  H
  H696     1.0000 0.52900  0.47520  0.85720  Biso   1.000  H
  C419     1.0000 0.55200  0.50700  0.89260  Biso   1.000  C
  H697     1.0000 0.59410  0.53670  0.90330  Biso   1.000  H
  H698     1.0000 0.55860  0.48420  0.87180  Biso   1.000  H
  H699     1.0000 0.57030  0.49480  0.91930  Biso   1.000  H
  H700     1.0000 0.51120  0.42430  0.91580  Biso   1.000  H
  H701     1.0000 0.48970  0.43220  0.90260  Biso   1.000  H
  H702     1.0000 0.55320  0.45690  0.92640  Biso   1.000  H
  H703     1.0000 0.53290  0.56060  0.81370  Biso   1.000  H
  H704     1.0000 0.51270  0.60830  0.83170  Biso   1.000  H
  C420     1.0000 0.49860  0.51900  0.84160  Biso   1.000  C
  H705     1.0000 0.53210  0.53250  0.82210  Biso   1.000  H
  H706     1.0000 0.48490  0.47410  0.84790  Biso   1.000  H
  H707     1.0000 0.42980  0.53380  0.79780  Biso   1.000  H
  H708     1.0000 0.43290  0.47730  0.81860  Biso   1.000  H
  H709     1.0000 0.41870  0.48520  0.80360  Biso   1.000  H
  H710     1.0000 0.45380  0.56060  0.80870  Biso   1.000  H
  Fe51     1.0000 0.10076  0.21491  0.81766  Biso   1.000  Fe
  O321     1.0000 0.04166  0.08286  0.72050  Biso   1.000  O
  O322     1.0000 0.08030  0.16060  0.77615  Biso   1.000  O
  C421     1.0000 0.99240  0.05490  0.93120  Biso   1.000  C
  C422     1.0000 0.02880  0.11250  0.90590  Biso   1.000  C
  C423     1.0000 0.00360  0.10250  0.86660  Biso   1.000  C
  O323     1.0000 0.02710  0.15340  0.84580  Biso   1.000  O
  O324     1.0000 0.96390  0.05020  0.85490  Biso   1.000  O
  N31      1.0000 0.16220  0.31540  0.70905  Biso   1.000  N
  C424     1.0000 0.16270  0.29730  0.66830  Biso   1.000  C
  C425     1.0000 0.20610  0.26990  0.66010  Biso   1.000  C
  C426     1.0000 0.18980  0.20900  0.68020  Biso   1.000  C
  O325     1.0000 0.16760  0.20230  0.71324  Biso   1.000  O
  O326     1.0000 0.17040  0.20050  0.83701  Biso   1.000  O
  C427     1.0000 0.11810  0.34150  0.71480  Biso   1.000  C
  C428     1.0000 0.05500  0.30640  0.69470  Biso   1.000  C
  C429     1.0000 0.01430  0.23700  0.70320  Biso   1.000  C
  O327     1.0000 0.04050  0.20890  0.71881  Biso   1.000  O
  O328     1.0000 0.04390  0.25390  0.80607  Biso   1.000  O
  C430     1.0000 0.22870  0.36050  0.72340  Biso   1.000  C
  C431     1.0000 0.23290  0.39160  0.76080  Biso   1.000  C
  C432     1.0000 0.20370  0.34760  0.79390  Biso   1.000  C
  O329     1.0000 0.16700  0.28930  0.78633  Biso   1.000  O
  O330     1.0000 0.21390  0.36940  0.82685  Biso   1.000  O
  Fe52     1.0000 0.35671  0.55071  0.92606  Biso   1.000  Fe
  Fe53     1.0000 0.21854  0.52918  0.92805  Biso   1.000  Fe
  Fe54     1.0000 0.24912  0.44907  0.86146  Biso   1.000  Fe
  Fe55     1.0000 0.47983  0.58869  0.98899  Biso   1.000  Fe
  O331     1.0000 0.30390  0.58450  0.95703  Biso   1.000  O
  O332     1.0000 0.38550  0.63810  0.89898  Biso   1.000  O
  O333     1.0000 0.27520  0.51010  0.90006  Biso   1.000  O
  O334     1.0000 0.43490  0.60740  0.95329  Biso   1.000  O
  C433     1.0000 0.27010  0.61400  0.74980  Biso   1.000  C
  C434     1.0000 0.25060  0.54990  0.76740  Biso   1.000  C
  C435     1.0000 0.24040  0.54540  0.80890  Biso   1.000  C
  O335     1.0000 0.22010  0.49020  0.82384  Biso   1.000  O
  O336     1.0000 0.25140  0.59470  0.82682  Biso   1.000  O
  C436     1.0000 0.39850  0.68540  0.10420  Biso   1.000  C
  C437     1.0000 0.42930  0.65150  0.08590  Biso   1.000  C
  C438     1.0000 0.44330  0.66430  0.04440  Biso   1.000  C
  O337     1.0000 0.47610  0.64230  0.03046  Biso   1.000  O
  O338     1.0000 0.42250  0.69610  0.02840  Biso   1.000  O
  N32      1.0000 0.22350  0.35310  0.96880  Biso   1.000  N
  C439     1.0000 0.24420  0.37510  0.00830  Biso   1.000  C
  C440     1.0000 0.31480  0.40880  0.01530  Biso   1.000  C
  C441     1.0000 0.35200  0.47260  0.99440  Biso   1.000  C
  O339     1.0000 0.33360  0.47690  0.96152  Biso   1.000  O
  O340     1.0000 0.40100  0.51430  0.01081  Biso   1.000  O
  C442     1.0000 0.15180  0.31970  0.96570  Biso   1.000  C
  C443     1.0000 0.11780  0.34930  0.98600  Biso   1.000  C
  C444     1.0000 0.13500  0.41590  0.97380  Biso   1.000  C
  O341     1.0000 0.19080  0.45260  0.96178  Biso   1.000  O
  O342     1.0000 0.56960  0.66170  0.97718  Biso   1.000  O
  C445     1.0000 0.24180  0.30560  0.95100  Biso   1.000  C
  C446     1.0000 0.30450  0.33610  0.93020  Biso   1.000  C
  C447     1.0000 0.30390  0.37000  0.89500  Biso   1.000  C
  O343     1.0000 0.26620  0.39300  0.89553  Biso   1.000  O
  O344     1.0000 0.34300  0.37830  0.86990  Biso   1.000  O
  N33      1.0000 0.02800  0.47450  0.87220  Biso   1.000  N
  C448     1.0000 0.00930  0.40510  0.86780  Biso   1.000  C
  C449     1.0000 0.05350  0.38630  0.86760  Biso   1.000  C
  C450     1.0000 0.12080  0.42350  0.88140  Biso   1.000  C
  O345     1.0000 0.14000  0.47860  0.89494  Biso   1.000  O
  O346     1.0000 0.15570  0.39830  0.87896  Biso   1.000  O
  C451     1.0000 0.97900  0.49260  0.87690  Biso   1.000  C
  C452     1.0000 0.94620  0.47640  0.91580  Biso   1.000  C
  C453     1.0000 0.99060  0.50840  0.94980  Biso   1.000  C
  O347     1.0000 0.48940  0.53300  0.94851  Biso   1.000  O
  O348     1.0000 0.52870  0.55680  0.02315  Biso   1.000  O
  C454     1.0000 0.05900  0.49480  0.83290  Biso   1.000  C
  C455     1.0000 0.08200  0.56210  0.82240  Biso   1.000  C
  C456     1.0000 0.12620  0.61330  0.84940  Biso   1.000  C
  O349     1.0000 0.40030  0.52880  0.88383  Biso   1.000  O
  O350     1.0000 0.33260  0.48920  0.83472  Biso   1.000  O
  H711     1.0000 0.04130  0.08220  0.69230  Biso   1.000  H
  H712     1.0000 0.94670  0.04170  0.93040  Biso   1.000  H
  H713     1.0000 0.00720  0.06710  0.95750  Biso   1.000  H
  H714     1.0000 0.07400  0.12350  0.90510  Biso   1.000  H
  H715     1.0000 0.02720  0.14900  0.91710  Biso   1.000  H
  C457     1.0000 0.93810  0.99420  0.93680  Biso   1.000  C
  H716     1.0000 0.93780  0.03460  0.93390  Biso   1.000  H
  H717     1.0000 0.93380  0.98300  0.96400  Biso   1.000  H
  C458     1.0000 0.05730  0.11430  0.91480  Biso   1.000  C
  H718     1.0000 0.09170  0.15530  0.92450  Biso   1.000  H
  H719     1.0000 0.01640  0.11370  0.91910  Biso   1.000  H
  C459     1.0000 0.06550  0.11180  0.87540  Biso   1.000  C
  O351     1.0000 0.04420  0.14580  0.85570  Biso   1.000  O
  O352     1.0000 0.07730  0.06900  0.85900  Biso   1.000  O
  H720     1.0000 0.14630  0.27830  0.72320  Biso   1.000  H
  H721     1.0000 0.11870  0.26550  0.66090  Biso   1.000  H
  H722     1.0000 0.17620  0.33540  0.65240  Biso   1.000  H
  H723     1.0000 0.25010  0.30220  0.66690  Biso   1.000  H
  H724     1.0000 0.20530  0.26240  0.63260  Biso   1.000  H
  H725     1.0000 0.10980  0.34130  0.74210  Biso   1.000  H
  H726     1.0000 0.14010  0.38630  0.70620  Biso   1.000  H
  H727     1.0000 0.06320  0.31110  0.66720  Biso   1.000  H
  H728     1.0000 0.03030  0.32760  0.70080  Biso   1.000  H
  H729     1.0000 0.25100  0.39430  0.70430  Biso   1.000  H
  H730     1.0000 0.25190  0.33670  0.72540  Biso   1.000  H
  H731     1.0000 0.27830  0.42100  0.76640  Biso   1.000  H
  H732     1.0000 0.21210  0.41760  0.75820  Biso   1.000  H
  H733     1.0000 0.30460  0.58450  0.98520  Biso   1.000  H
  H734     1.0000 0.25440  0.61460  0.87080  Biso   1.000  H
  H735     1.0000 0.23720  0.62550  0.75570  Biso   1.000  H
  H736     1.0000 0.27130  0.61020  0.72210  Biso   1.000  H
  H737     1.0000 0.28370  0.53880  0.76160  Biso   1.000  H
  H738     1.0000 0.21080  0.51760  0.75520  Biso   1.000  H
  H739     1.0000 0.30550  0.57380  0.09990  Biso   1.000  H
  H740     1.0000 0.28130  0.60310  0.13180  Biso   1.000  H
  H741     1.0000 0.20420  0.59900  0.08940  Biso   1.000  H
  H742     1.0000 0.19420  0.53040  0.09920  Biso   1.000  H
  H743     1.0000 0.24010  0.38890  0.95350  Biso   1.000  H
  H744     1.0000 0.22840  0.40420  0.01550  Biso   1.000  H
  H745     1.0000 0.22360  0.33780  0.02520  Biso   1.000  H
  H746     1.0000 0.32260  0.41650  0.04280  Biso   1.000  H
  H747     1.0000 0.33130  0.38060  0.00740  Biso   1.000  H
  H748     1.0000 0.14070  0.31640  0.93860  Biso   1.000  H
  H749     1.0000 0.13440  0.27580  0.97540  Biso   1.000  H
  H750     1.0000 0.12680  0.35040  0.01340  Biso   1.000  H
  H751     1.0000 0.07150  0.32120  0.98260  Biso   1.000  H
  H752     1.0000 0.20770  0.27750  0.93330  Biso   1.000  H
  H753     1.0000 0.24340  0.27850  0.97130  Biso   1.000  H
  H754     1.0000 0.31510  0.30290  0.92350  Biso   1.000  H
  H755     1.0000 0.33830  0.36680  0.94720  Biso   1.000  H
  H756     1.0000 0.06000  0.49960  0.88930  Biso   1.000  H
  H757     1.0000 0.06360  0.49960  0.88700  Biso   1.000  H
  C460     1.0000 0.00820  0.40690  0.88240  Biso   1.000  C
  H758     1.0000 0.00560  0.40240  0.91020  Biso   1.000  H
  H759     1.0000 0.96520  0.37830  0.87210  Biso   1.000  H
  H760     1.0000 0.98540  0.39020  0.84380  Biso   1.000  H
  H761     1.0000 0.97890  0.38140  0.88830  Biso   1.000  H
  H762     1.0000 0.05400  0.38880  0.83970  Biso   1.000  H
  H763     1.0000 0.03660  0.34110  0.87450  Biso   1.000  H
  H764     1.0000 0.03400  0.34580  0.88190  Biso   1.000  H
  H765     1.0000 0.05630  0.37510  0.84110  Biso   1.000  H
  H766     1.0000 0.99880  0.53900  0.87280  Biso   1.000  H
  H767     1.0000 0.94620  0.47100  0.85720  Biso   1.000  H
  C461     1.0000 0.95500  0.44800  0.89260  Biso   1.000  C
  H768     1.0000 0.94260  0.40590  0.90330  Biso   1.000  H
  H769     1.0000 0.92560  0.44140  0.87180  Biso   1.000  H
  H770     1.0000 0.92450  0.42970  0.91930  Biso   1.000  H
  H771     1.0000 0.91310  0.48880  0.91580  Biso   1.000  H
  H772     1.0000 0.94250  0.51030  0.90260  Biso   1.000  H
  H773     1.0000 0.90370  0.44680  0.92640  Biso   1.000  H
  H774     1.0000 0.02770  0.46710  0.81370  Biso   1.000  H
  H775     1.0000 0.09560  0.48730  0.83170  Biso   1.000  H
  C462     1.0000 0.02040  0.50140  0.84160  Biso   1.000  C
  H776     1.0000 0.00040  0.46790  0.82210  Biso   1.000  H
  H777     1.0000 0.98920  0.51510  0.84790  Biso   1.000  H
  H778     1.0000 0.10400  0.57020  0.79780  Biso   1.000  H
  H779     1.0000 0.04440  0.56710  0.81860  Biso   1.000  H
  H780     1.0000 0.06650  0.58130  0.80360  Biso   1.000  H
  H781     1.0000 0.10680  0.54620  0.80870  Biso   1.000  H
  Fe56     1.0000 0.11415  0.89924  0.81766  Biso   1.000  Fe
  O353     1.0000 0.04120  0.95834  0.72050  Biso   1.000  O
  O354     1.0000 0.08030  0.91970  0.77615  Biso   1.000  O
  C463     1.0000 0.06250  0.00760  0.93120  Biso   1.000  C
  C464     1.0000 0.08370  0.97120  0.90590  Biso   1.000  C
  C465     1.0000 0.09890  0.99640  0.86660  Biso   1.000  C
  O355     1.0000 0.12630  0.97290  0.84580  Biso   1.000  O
  O356     1.0000 0.08630  0.03610  0.85490  Biso   1.000  O
  N34      1.0000 0.15320  0.83780  0.70905  Biso   1.000  N
  C466     1.0000 0.13460  0.83730  0.66830  Biso   1.000  C
  C467     1.0000 0.06380  0.79390  0.66010  Biso   1.000  C
  C468     1.0000 0.01920  0.81020  0.68020  Biso   1.000  C
  O357     1.0000 0.03470  0.83240  0.71324  Biso   1.000  O
  O358     1.0000 0.03010  0.82960  0.83701  Biso   1.000  O
  C469     1.0000 0.22340  0.88190  0.71480  Biso   1.000  C
  C470     1.0000 0.25140  0.94500  0.69470  Biso   1.000  C
  C471     1.0000 0.22270  0.98570  0.70320  Biso   1.000  C
  O359     1.0000 0.16840  0.95950  0.71881  Biso   1.000  O
  O360     1.0000 0.21000  0.95610  0.80607  Biso   1.000  O
  C472     1.0000 0.13180  0.77130  0.72340  Biso   1.000  C
  C473     1.0000 0.15870  0.76710  0.76080  Biso   1.000  C
  C474     1.0000 0.14390  0.79630  0.79390  Biso   1.000  C
  O361     1.0000 0.12230  0.83300  0.78633  Biso   1.000  O
  O362     1.0000 0.15550  0.78610  0.82685  Biso   1.000  O
  Fe57     1.0000 0.19400  0.64329  0.92606  Biso   1.000  Fe
  Fe58     1.0000 0.31064  0.78146  0.92805  Biso   1.000  Fe
  Fe59     1.0000 0.19995  0.75088  0.86146  Biso   1.000  Fe
  Fe60     1.0000 0.10886  0.52017  0.98899  Biso   1.000  Fe
  O363     1.0000 0.28060  0.69610  0.95703  Biso   1.000  O
  O364     1.0000 0.25260  0.61450  0.89898  Biso   1.000  O
  O365     1.0000 0.23490  0.72480  0.90006  Biso   1.000  O
  O366     1.0000 0.17250  0.56510  0.95329  Biso   1.000  O
  C475     1.0000 0.34390  0.72990  0.74980  Biso   1.000  C
  C476     1.0000 0.29930  0.74940  0.76740  Biso   1.000  C
  C477     1.0000 0.30500  0.75960  0.80890  Biso   1.000  C
  O367     1.0000 0.27010  0.77990  0.82384  Biso   1.000  O
  O368     1.0000 0.34330  0.74860  0.82682  Biso   1.000  O
  C478     1.0000 0.28690  0.60150  0.10420  Biso   1.000  C
  C479     1.0000 0.22220  0.57070  0.08590  Biso   1.000  C
  C480     1.0000 0.22100  0.55670  0.04440  Biso   1.000  C
  O369     1.0000 0.16620  0.52390  0.03046  Biso   1.000  O
  O370     1.0000 0.27360  0.57750  0.02840  Biso   1.000  O
  N35      1.0000 0.12960  0.77650  0.96880  Biso   1.000  N
  C481     1.0000 0.13090  0.75580  0.00830  Biso   1.000  C
  C482     1.0000 0.09400  0.68520  0.01530  Biso   1.000  C
  C483     1.0000 0.12060  0.64800  0.99440  Biso   1.000  C
  O371     1.0000 0.14330  0.66640  0.96152  Biso   1.000  O
  O372     1.0000 0.11330  0.59900  0.01081  Biso   1.000  O
  C484     1.0000 0.16790  0.84820  0.96570  Biso   1.000  C
  C485     1.0000 0.23150  0.88220  0.98600  Biso   1.000  C
  C486     1.0000 0.28090  0.86500  0.97380  Biso   1.000  C
  O373     1.0000 0.26180  0.80920  0.96178  Biso   1.000  O
  O374     1.0000 0.09210  0.43040  0.97718  Biso   1.000  O
  C487     1.0000 0.06380  0.75820  0.95100  Biso   1.000  C
  C488     1.0000 0.03160  0.69550  0.93020  Biso   1.000  C
  C489     1.0000 0.06610  0.69610  0.89500  Biso   1.000  C
  O375     1.0000 0.12680  0.73380  0.89553  Biso   1.000  O
  O376     1.0000 0.03530  0.65700  0.86990  Biso   1.000  O
  N36      1.0000 0.44650  0.97200  0.87220  Biso   1.000  N
  C490     1.0000 0.39580  0.99070  0.86780  Biso   1.000  C
  C491     1.0000 0.33280  0.94650  0.86760  Biso   1.000  C
  C492     1.0000 0.30270  0.87920  0.88140  Biso   1.000  C
  O377     1.0000 0.33860  0.86000  0.89494  Biso   1.000  O
  O378     1.0000 0.24260  0.84430  0.87896  Biso   1.000  O
  C493     1.0000 0.51360  0.02100  0.87690  Biso   1.000  C
  C494     1.0000 0.53020  0.05380  0.91580  Biso   1.000  C
  C495     1.0000 0.51780  0.00940  0.94980  Biso   1.000  C
  O379     1.0000 0.04360  0.51060  0.94851  Biso   1.000  O
  O380     1.0000 0.02810  0.47130  0.02315  Biso   1.000  O
  C496     1.0000 0.43580  0.94100  0.83290  Biso   1.000  C
  C497     1.0000 0.48010  0.91800  0.82240  Biso   1.000  C
  C498     1.0000 0.48710  0.87380  0.84940  Biso   1.000  C
  O381     1.0000 0.12850  0.59970  0.88383  Biso   1.000  O
  O382     1.0000 0.15660  0.66740  0.83472  Biso   1.000  O
  H782     1.0000 0.04090  0.95870  0.69230  Biso   1.000  H
  H783     1.0000 0.09500  0.05330  0.93040  Biso   1.000  H
  H784     1.0000 0.05990  0.99280  0.95750  Biso   1.000  H
  H785     1.0000 0.04950  0.92600  0.90510  Biso   1.000  H
  H786     1.0000 0.12180  0.97280  0.91710  Biso   1.000  H
  C499     1.0000 0.05610  0.06190  0.93680  Biso   1.000  C
  H787     1.0000 0.09680  0.06220  0.93390  Biso   1.000  H
  H788     1.0000 0.04920  0.06620  0.96400  Biso   1.000  H
  C500     1.0000 0.05700  0.94270  0.91480  Biso   1.000  C
  H789     1.0000 0.06360  0.90830  0.92450  Biso   1.000  H
  H790     1.0000 0.09730  0.98360  0.91910  Biso   1.000  H
  C501     1.0000 0.04630  0.93450  0.87540  Biso   1.000  C
  O383     1.0000 0.10160  0.95580  0.85570  Biso   1.000  O
  O384     1.0000 0.99170  0.92270  0.85900  Biso   1.000  O
  H791     1.0000 0.13200  0.85370  0.72320  Biso   1.000  H
  H792     1.0000 0.14680  0.88130  0.66090  Biso   1.000  H
  H793     1.0000 0.15920  0.82380  0.65240  Biso   1.000  H
  H794     1.0000 0.05210  0.74990  0.66690  Biso   1.000  H
  H795     1.0000 0.05710  0.79470  0.63260  Biso   1.000  H
  H796     1.0000 0.23150  0.89020  0.74210  Biso   1.000  H
  H797     1.0000 0.24620  0.85990  0.70620  Biso   1.000  H
  H798     1.0000 0.24790  0.93680  0.66720  Biso   1.000  H
  H799     1.0000 0.29730  0.96970  0.70080  Biso   1.000  H
  H800     1.0000 0.14330  0.74900  0.70430  Biso   1.000  H
  H801     1.0000 0.08480  0.74810  0.72540  Biso   1.000  H
  H802     1.0000 0.14270  0.72170  0.76640  Biso   1.000  H
  H803     1.0000 0.20550  0.78790  0.75820  Biso   1.000  H
  H804     1.0000 0.27990  0.69540  0.98520  Biso   1.000  H
  H805     1.0000 0.36020  0.74560  0.87080  Biso   1.000  H
  H806     1.0000 0.38830  0.76280  0.75570  Biso   1.000  H
  H807     1.0000 0.33890  0.72870  0.72210  Biso   1.000  H
  H808     1.0000 0.25510  0.71630  0.76160  Biso   1.000  H
  H809     1.0000 0.30680  0.78920  0.75520  Biso   1.000  H
  H810     1.0000 0.26830  0.69450  0.09990  Biso   1.000  H
  H811     1.0000 0.32180  0.71870  0.13180  Biso   1.000  H
  H812     1.0000 0.39480  0.79580  0.08940  Biso   1.000  H
  H813     1.0000 0.33620  0.80580  0.09920  Biso   1.000  H
  H814     1.0000 0.14880  0.75990  0.95350  Biso   1.000  H
  H815     1.0000 0.17580  0.77160  0.01550  Biso   1.000  H
  H816     1.0000 0.11420  0.77640  0.02520  Biso   1.000  H
  H817     1.0000 0.09390  0.67740  0.04280  Biso   1.000  H
  H818     1.0000 0.04930  0.66870  0.00740  Biso   1.000  H
  H819     1.0000 0.17570  0.85930  0.93860  Biso   1.000  H
  H820     1.0000 0.14140  0.86560  0.97540  Biso   1.000  H
  H821     1.0000 0.22360  0.87320  0.01340  Biso   1.000  H
  H822     1.0000 0.24970  0.92850  0.98260  Biso   1.000  H
  H823     1.0000 0.06980  0.79230  0.93330  Biso   1.000  H
  H824     1.0000 0.03510  0.75660  0.97130  Biso   1.000  H
  H825     1.0000 0.98780  0.68490  0.92350  Biso   1.000  H
  H826     1.0000 0.02850  0.66170  0.94720  Biso   1.000  H
  H827     1.0000 0.43960  0.94000  0.88930  Biso   1.000  H
  H828     1.0000 0.43600  0.93640  0.88700  Biso   1.000  H
  C502     1.0000 0.39870  0.99180  0.88240  Biso   1.000  C
  H829     1.0000 0.39680  0.99440  0.91020  Biso   1.000  H
  H830     1.0000 0.41310  0.03480  0.87210  Biso   1.000  H
  H831     1.0000 0.40480  0.01460  0.84380  Biso   1.000  H
  H832     1.0000 0.40250  0.02110  0.88830  Biso   1.000  H
  H833     1.0000 0.33480  0.94600  0.83970  Biso   1.000  H
  H834     1.0000 0.30450  0.96340  0.87450  Biso   1.000  H
  H835     1.0000 0.31180  0.96600  0.88190  Biso   1.000  H
  H836     1.0000 0.31880  0.94370  0.84110  Biso   1.000  H
  H837     1.0000 0.54020  0.00120  0.87280  Biso   1.000  H
  H838     1.0000 0.52480  0.05380  0.85720  Biso   1.000  H
  C503     1.0000 0.49300  0.04500  0.89260  Biso   1.000  C
  H839     1.0000 0.46330  0.05740  0.90330  Biso   1.000  H
  H840     1.0000 0.51580  0.07440  0.87180  Biso   1.000  H
  H841     1.0000 0.50520  0.07550  0.91930  Biso   1.000  H
  H842     1.0000 0.57570  0.08690  0.91580  Biso   1.000  H
  H843     1.0000 0.56780  0.05750  0.90260  Biso   1.000  H
  H844     1.0000 0.54310  0.09630  0.92640  Biso   1.000  H
  H845     1.0000 0.43940  0.97230  0.81370  Biso   1.000  H
  H846     1.0000 0.39170  0.90440  0.83170  Biso   1.000  H
  C504     1.0000 0.48100  0.97960  0.84160  Biso   1.000  C
  H847     1.0000 0.46750  0.99960  0.82210  Biso   1.000  H
  H848     1.0000 0.52590  0.01080  0.84790  Biso   1.000  H
  H849     1.0000 0.46620  0.89600  0.79780  Biso   1.000  H
  H850     1.0000 0.52270  0.95560  0.81860  Biso   1.000  H
  H851     1.0000 0.51480  0.93350  0.80360  Biso   1.000  H
  H852     1.0000 0.43940  0.89320  0.80870  Biso   1.000  H
  Fe61     1.0000 0.00000  0.00000  0.25000  Biso   1.000  Fe
  Fe62     1.0000 0.00000  0.00000  0.75000  Biso   1.000  Fe
  Fe63     1.0000 0.00000  0.12906  0.25000  Biso   1.000  Fe
  Fe64     1.0000 0.87094  0.87094  0.25000  Biso   1.000  Fe
  Fe65     1.0000 0.12906  0.00000  0.25000  Biso   1.000  Fe
  Fe66     1.0000 1.00000  0.87094  0.75000  Biso   1.000  Fe
  Fe67     1.0000 0.12906  0.12906  0.75000  Biso   1.000  Fe
  Fe68     1.0000 0.87094  0.00000  0.75000  Biso   1.000  Fe
  Fe69     1.0000 0.12809  0.12809  0.25000  Biso   1.000  Fe
  Fe70     1.0000 0.87191  0.00000  0.25000  Biso   1.000  Fe
  Fe71     1.0000 0.00000  0.87191  0.25000  Biso   1.000  Fe
  Fe72     1.0000 0.87191  0.87191  0.75000  Biso   1.000  Fe
  Fe73     1.0000 0.12809  0.00000  0.75000  Biso   1.000  Fe
  Fe74     1.0000 0.00000  0.12809  0.75000  Biso   1.000  Fe
  N37      1.0000 0.00000  0.00000  0.42030  Biso   1.000  N
  H853     1.0000 0.00000  0.00000  0.39600  Biso   1.000  H
  N38      1.0000 0.00000  0.00000  0.07970  Biso   1.000  N
  H854     1.0000 0.00000  0.00000  0.10400  Biso   1.000  H
  N39      1.0000 0.00000  0.00000  0.57970  Biso   1.000  N
  H855     1.0000 0.00000  0.00000  0.60400  Biso   1.000  H
  N40      1.0000 0.00000  0.00000  0.92030  Biso   1.000  N
  H856     1.0000 0.00000  0.00000  0.89600  Biso   1.000  H
  Fe75     1.0000 0.33333  0.66667  0.42863  Biso   1.000  Fe
  N41      1.0000 0.33333  0.66667  0.26290  Biso   1.000  N
  N42      1.0000 0.33333  0.66667  0.59110  Biso   1.000  N
  H857     1.0000 0.33333  0.66667  0.28910  Biso   1.000  H
  H858     1.0000 0.33333  0.66667  0.56490  Biso   1.000  H
  Fe76     1.0000 0.66667  0.33333  0.07137  Biso   1.000  Fe
  N43      1.0000 0.66667  0.33333  0.23710  Biso   1.000  N
  N44      1.0000 0.66667  0.33333  0.90890  Biso   1.000  N
  H859     1.0000 0.66667  0.33333  0.21090  Biso   1.000  H
  H860     1.0000 0.66667  0.33333  0.93510  Biso   1.000  H
  Fe77     1.0000 0.66667  0.33333  0.57137  Biso   1.000  Fe
  N45      1.0000 0.66667  0.33333  0.73710  Biso   1.000  N
  N46      1.0000 0.66667  0.33333  0.40890  Biso   1.000  N
  H861     1.0000 0.66667  0.33333  0.71090  Biso   1.000  H
  H862     1.0000 0.66667  0.33333  0.43510  Biso   1.000  H
  Fe78     1.0000 0.33333  0.66667  0.92863  Biso   1.000  Fe
  N47      1.0000 0.33333  0.66667  0.76290  Biso   1.000  N
  N48      1.0000 0.33333  0.66667  0.09110  Biso   1.000  N
  H863     1.0000 0.33333  0.66667  0.78910  Biso   1.000  H
  H864     1.0000 0.33333  0.66667  0.06490  Biso   1.000  H
