data_image0
_cell_length_a       29.641
_cell_length_b       11.9922
_cell_length_c       25.453
_cell_angle_alpha    90
_cell_angle_beta     118.613
_cell_angle_gamma    90

_symmetry_space_group_name_H-M    "P 1"
_symmetry_int_tables_number       1

loop_
  _symmetry_equiv_pos_as_xyz
  'x, y, z'

loop_
  _atom_site_label
  _atom_site_occupancy
  _atom_site_fract_x
  _atom_site_fract_y
  _atom_site_fract_z
  _atom_site_thermal_displace_type
  _atom_site_B_iso_or_equiv
  _atom_site_type_symbol
  C1       1.0000 0.28851  0.00330  0.09990  Biso   1.000  C
  H1       1.0000 0.32130  0.98160  0.10770  Biso   1.000  H
  C2       1.0000 0.20805  0.04680  0.05430  Biso   1.000  C
  H2       1.0000 0.17480  0.06040  0.02410  Biso   1.000  H
  C3       1.0000 0.22376  0.05490  0.11350  Biso   1.000  C
  H3       1.0000 0.20390  0.07550  0.13120  Biso   1.000  H
  C4       1.0000 0.30906  0.02410  0.20589  Biso   1.000  C
  C5       1.0000 0.35902  0.04970  0.22800  Biso   1.000  C
  H4       1.0000 0.37210  0.06610  0.20220  Biso   1.000  H
  C6       1.0000 0.39105  0.05140  0.28960  Biso   1.000  C
  H5       1.0000 0.42560  0.06960  0.30510  Biso   1.000  H
  C7       1.0000 0.37157  0.02620  0.32735  Biso   1.000  C
  C8       1.0000 0.32081  0.99830  0.30440  Biso   1.000  C
  H6       1.0000 0.30790  0.97970  0.33010  Biso   1.000  H
  C9       1.0000 0.28880  0.99760  0.24370  Biso   1.000  C
  H7       1.0000 0.25420  0.97970  0.22810  Biso   1.000  H
  C10      1.0000 0.45188  0.05250  0.41340  Biso   1.000  C
  C11      1.0000 0.48390  0.96360  0.42100  Biso   1.000  C
  H8       1.0000 0.46990  0.89380  0.40630  Biso   1.000  H
  C12      1.0000 0.53763  0.97740  0.45070  Biso   1.000  C
  H9       1.0000 0.55960  0.91710  0.45820  Biso   1.000  H
  C13      1.0000 0.55630  0.08370  0.46830  Biso   1.000  C
  C14      1.0000 0.52453  0.17180  0.45970  Biso   1.000  C
  H10      1.0000 0.53820  0.24290  0.47190  Biso   1.000  H
  C15      1.0000 0.47127  0.15540  0.43250  Biso   1.000  C
  H11      1.0000 0.44950  0.21480  0.42770  Biso   1.000  H
  C16      1.0000 0.64407  0.03560  0.49070  Biso   1.000  C
  H12      1.0000 0.63460  0.97770  0.46320  Biso   1.000  H
  C17      1.0000 0.68794  0.15300  0.55800  Biso   1.000  C
  H13      1.0000 0.71560  0.19210  0.58740  Biso   1.000  H
  C18      1.0000 0.63915  0.17510  0.54110  Biso   1.000  C
  H14      1.0000 0.62670  0.23200  0.55540  Biso   1.000  H
  C19      1.0000 0.27836  0.83950  0.88127  Biso   1.000  C
  H15      1.0000 0.31200  0.83950  0.91240  Biso   1.000  H
  C20      1.0000 0.19969  0.87120  0.82970  Biso   1.000  C
  H16      1.0000 0.16670  0.89770  0.81760  Biso   1.000  H
  C21      1.0000 0.21279  0.80820  0.79600  Biso   1.000  C
  H17      1.0000 0.19120  0.78390  0.75720  Biso   1.000  H
  C22      1.0000 0.29565  0.72730  0.81174  Biso   1.000  C
  C23      1.0000 0.28257  0.72030  0.75188  Biso   1.000  C
  H18      1.0000 0.25210  0.75240  0.72310  Biso   1.000  H
  C24      1.0000 0.31422  0.66620  0.73460  Biso   1.000  C
  H19      1.0000 0.30550  0.66230  0.69440  Biso   1.000  H
  C25      1.0000 0.35838  0.61850  0.77700  Biso   1.000  C
  C26      1.0000 0.37072  0.62040  0.83600  Biso   1.000  C
  H20      1.0000 0.40040  0.58520  0.86430  Biso   1.000  H
  C27      1.0000 0.33867  0.67520  0.85390  Biso   1.000  C
  H21      1.0000 0.34660  0.67600  0.89390  Biso   1.000  H
  C28      1.0000 0.44142  0.57770  0.79000  Biso   1.000  C
  C29      1.0000 0.54540  0.60660  0.84514  Biso   1.000  C
  C30      1.0000 0.51500  0.69870  0.81600  Biso   1.000  C
  H22      1.0000 0.52910  0.76770  0.81530  Biso   1.000  H
  C31      1.0000 0.46200  0.68040  0.78780  Biso   1.000  C
  H23      1.0000 0.43990  0.73860  0.76700  Biso   1.000  H
  C32      1.0000 0.63476  0.53900  0.89050  Biso   1.000  C
  H24      1.0000 0.62610  0.46380  0.88440  Biso   1.000  H
  C33      1.0000 0.67844  0.68950  0.91610  Biso   1.000  C
  H25      1.0000 0.70580  0.73940  0.93160  Biso   1.000  H
  C34      1.0000 0.62757  0.71790  0.88880  Biso   1.000  C
  H26      1.0000 0.61420  0.78980  0.88200  Biso   1.000  H
  C35      1.0000 0.27946  0.75130  0.01549  Biso   1.000  C
  Co1      1.0000 0.24529  0.96683  0.96294  Biso   1.000  Co
  N1       1.0000 0.24883  0.01530  0.04518  Biso   1.000  N
  N2       1.0000 0.27543  0.02620  0.14243  Biso   1.000  N
  N3       1.0000 0.61057  0.09800  0.49838  Biso   1.000  N
  N4       1.0000 0.69224  0.06500  0.52649  Biso   1.000  N
  N5       1.0000 0.24039  0.89170  0.88356  Biso   1.000  N
  N6       1.0000 0.26335  0.78640  0.82920  Biso   1.000  N
  N7       1.0000 0.60001  0.62010  0.87333  Biso   1.000  N
  N8       1.0000 0.68254  0.57510  0.91690  Biso   1.000  N
  O1       1.0000 0.39976  0.03240  0.38857  Biso   1.000  O
  O2       1.0000 0.38853  0.56040  0.75781  Biso   1.000  O
  O3       1.0000 0.29951  0.83920  0.01278  Biso   1.000  O
  O4       1.0000 0.30417  0.66380  0.04097  Biso   1.000  O
  C36      1.0000 0.47120  0.49900  0.82010  Biso   1.000  C
  H27      1.0000 0.45710  0.43030  0.82110  Biso   1.000  H
  C37      1.0000 0.52510  0.51240  0.85220  Biso   1.000  C
  H28      1.0000 0.54590  0.45660  0.87770  Biso   1.000  H
  C38      1.0000 0.47080  0.48520  0.79010  Biso   1.000  C
  H29      1.0000 0.45600  0.41690  0.77340  Biso   1.000  H
  C39      1.0000 0.52420  0.50380  0.81750  Biso   1.000  C
  H30      1.0000 0.54580  0.44760  0.81720  Biso   1.000  H
  C40      1.0000 0.46030  0.67360  0.81240  Biso   1.000  C
  H31      1.0000 0.43900  0.73220  0.81060  Biso   1.000  H
  C41      1.0000 0.51470  0.68800  0.84010  Biso   1.000  C
  H32      1.0000 0.52850  0.75780  0.85500  Biso   1.000  H
  C42      1.0000 0.78851  0.50330  0.09990  Biso   1.000  C
  H33      1.0000 0.82130  0.48160  0.10770  Biso   1.000  H
  C43      1.0000 0.70805  0.54680  0.05430  Biso   1.000  C
  H34      1.0000 0.67480  0.56040  0.02410  Biso   1.000  H
  C44      1.0000 0.72376  0.55490  0.11350  Biso   1.000  C
  H35      1.0000 0.70390  0.57550  0.13120  Biso   1.000  H
  C45      1.0000 0.80906  0.52410  0.20589  Biso   1.000  C
  C46      1.0000 0.85902  0.54970  0.22800  Biso   1.000  C
  H36      1.0000 0.87210  0.56610  0.20220  Biso   1.000  H
  C47      1.0000 0.89105  0.55140  0.28960  Biso   1.000  C
  H37      1.0000 0.92560  0.56960  0.30510  Biso   1.000  H
  C48      1.0000 0.87157  0.52620  0.32735  Biso   1.000  C
  C49      1.0000 0.82081  0.49830  0.30440  Biso   1.000  C
  H38      1.0000 0.80790  0.47970  0.33010  Biso   1.000  H
  C50      1.0000 0.78880  0.49760  0.24370  Biso   1.000  C
  H39      1.0000 0.75420  0.47970  0.22810  Biso   1.000  H
  C51      1.0000 0.95188  0.55250  0.41340  Biso   1.000  C
  C52      1.0000 0.98390  0.46360  0.42100  Biso   1.000  C
  H40      1.0000 0.96990  0.39380  0.40630  Biso   1.000  H
  C53      1.0000 0.03763  0.47740  0.45070  Biso   1.000  C
  H41      1.0000 0.05960  0.41710  0.45820  Biso   1.000  H
  C54      1.0000 0.05630  0.58370  0.46830  Biso   1.000  C
  C55      1.0000 0.02453  0.67180  0.45970  Biso   1.000  C
  H42      1.0000 0.03820  0.74290  0.47190  Biso   1.000  H
  C56      1.0000 0.97127  0.65540  0.43250  Biso   1.000  C
  H43      1.0000 0.94950  0.71480  0.42770  Biso   1.000  H
  C57      1.0000 0.14407  0.53560  0.49070  Biso   1.000  C
  H44      1.0000 0.13460  0.47770  0.46320  Biso   1.000  H
  C58      1.0000 0.18794  0.65300  0.55800  Biso   1.000  C
  H45      1.0000 0.21560  0.69210  0.58740  Biso   1.000  H
  C59      1.0000 0.13915  0.67510  0.54110  Biso   1.000  C
  H46      1.0000 0.12670  0.73200  0.55540  Biso   1.000  H
  C60      1.0000 0.77836  0.33950  0.88127  Biso   1.000  C
  H47      1.0000 0.81200  0.33950  0.91240  Biso   1.000  H
  C61      1.0000 0.69969  0.37120  0.82970  Biso   1.000  C
  H48      1.0000 0.66670  0.39770  0.81760  Biso   1.000  H
  C62      1.0000 0.71279  0.30820  0.79600  Biso   1.000  C
  H49      1.0000 0.69120  0.28390  0.75720  Biso   1.000  H
  C63      1.0000 0.79565  0.22730  0.81174  Biso   1.000  C
  C64      1.0000 0.78257  0.22030  0.75188  Biso   1.000  C
  H50      1.0000 0.75210  0.25240  0.72310  Biso   1.000  H
  C65      1.0000 0.81422  0.16620  0.73460  Biso   1.000  C
  H51      1.0000 0.80550  0.16230  0.69440  Biso   1.000  H
  C66      1.0000 0.85838  0.11850  0.77700  Biso   1.000  C
  C67      1.0000 0.87072  0.12040  0.83600  Biso   1.000  C
  H52      1.0000 0.90040  0.08520  0.86430  Biso   1.000  H
  C68      1.0000 0.83867  0.17520  0.85390  Biso   1.000  C
  H53      1.0000 0.84660  0.17600  0.89390  Biso   1.000  H
  C69      1.0000 0.94142  0.07770  0.79000  Biso   1.000  C
  C70      1.0000 0.04540  0.10660  0.84514  Biso   1.000  C
  C71      1.0000 0.01500  0.19870  0.81600  Biso   1.000  C
  H54      1.0000 0.02910  0.26770  0.81530  Biso   1.000  H
  C72      1.0000 0.96200  0.18040  0.78780  Biso   1.000  C
  H55      1.0000 0.93990  0.23860  0.76700  Biso   1.000  H
  C73      1.0000 0.13476  0.03900  0.89050  Biso   1.000  C
  H56      1.0000 0.12610  0.96380  0.88440  Biso   1.000  H
  C74      1.0000 0.17844  0.18950  0.91610  Biso   1.000  C
  H57      1.0000 0.20580  0.23940  0.93160  Biso   1.000  H
  C75      1.0000 0.12757  0.21790  0.88880  Biso   1.000  C
  H58      1.0000 0.11420  0.28980  0.88200  Biso   1.000  H
  C76      1.0000 0.77946  0.25130  0.01549  Biso   1.000  C
  Co2      1.0000 0.74529  0.46683  0.96294  Biso   1.000  Co
  N9       1.0000 0.74883  0.51530  0.04518  Biso   1.000  N
  N10      1.0000 0.77543  0.52620  0.14243  Biso   1.000  N
  N11      1.0000 0.11057  0.59800  0.49838  Biso   1.000  N
  N12      1.0000 0.19224  0.56500  0.52649  Biso   1.000  N
  N13      1.0000 0.74039  0.39170  0.88356  Biso   1.000  N
  N14      1.0000 0.76335  0.28640  0.82920  Biso   1.000  N
  N15      1.0000 0.10001  0.12010  0.87333  Biso   1.000  N
  N16      1.0000 0.18254  0.07510  0.91690  Biso   1.000  N
  O5       1.0000 0.89976  0.53240  0.38857  Biso   1.000  O
  O6       1.0000 0.88853  0.06040  0.75781  Biso   1.000  O
  O7       1.0000 0.79951  0.33920  0.01278  Biso   1.000  O
  O8       1.0000 0.80417  0.16380  0.04097  Biso   1.000  O
  C77      1.0000 0.97120  0.99900  0.82010  Biso   1.000  C
  H59      1.0000 0.95710  0.93030  0.82110  Biso   1.000  H
  C78      1.0000 0.02510  0.01240  0.85220  Biso   1.000  C
  H60      1.0000 0.04590  0.95660  0.87770  Biso   1.000  H
  C79      1.0000 0.97080  0.98520  0.79010  Biso   1.000  C
  H61      1.0000 0.95600  0.91690  0.77340  Biso   1.000  H
  C80      1.0000 0.02420  0.00380  0.81750  Biso   1.000  C
  H62      1.0000 0.04580  0.94760  0.81720  Biso   1.000  H
  C81      1.0000 0.96030  0.17360  0.81240  Biso   1.000  C
  H63      1.0000 0.93900  0.23220  0.81060  Biso   1.000  H
  C82      1.0000 0.01470  0.18800  0.84010  Biso   1.000  C
  H64      1.0000 0.02850  0.25780  0.85500  Biso   1.000  H
  C83      1.0000 0.71149  0.00330  0.40010  Biso   1.000  C
  H65      1.0000 0.67870  0.98160  0.39230  Biso   1.000  H
  C84      1.0000 0.79195  0.04680  0.44570  Biso   1.000  C
  H66      1.0000 0.82520  0.06040  0.47590  Biso   1.000  H
  C85      1.0000 0.77624  0.05490  0.38650  Biso   1.000  C
  H67      1.0000 0.79610  0.07550  0.36880  Biso   1.000  H
  C86      1.0000 0.69094  0.02410  0.29411  Biso   1.000  C
  C87      1.0000 0.64098  0.04970  0.27200  Biso   1.000  C
  H68      1.0000 0.62790  0.06610  0.29780  Biso   1.000  H
  C88      1.0000 0.60895  0.05140  0.21040  Biso   1.000  C
  H69      1.0000 0.57440  0.06960  0.19490  Biso   1.000  H
  C89      1.0000 0.62843  0.02620  0.17265  Biso   1.000  C
  C90      1.0000 0.67919  0.99830  0.19560  Biso   1.000  C
  H70      1.0000 0.69210  0.97970  0.16990  Biso   1.000  H
  C91      1.0000 0.71120  0.99760  0.25630  Biso   1.000  C
  H71      1.0000 0.74580  0.97970  0.27190  Biso   1.000  H
  C92      1.0000 0.54812  0.05250  0.08660  Biso   1.000  C
  C93      1.0000 0.51610  0.96360  0.07900  Biso   1.000  C
  H72      1.0000 0.53010  0.89380  0.09370  Biso   1.000  H
  C94      1.0000 0.46237  0.97740  0.04930  Biso   1.000  C
  H73      1.0000 0.44040  0.91710  0.04180  Biso   1.000  H
  C95      1.0000 0.44370  0.08370  0.03170  Biso   1.000  C
  C96      1.0000 0.47547  0.17180  0.04030  Biso   1.000  C
  H74      1.0000 0.46180  0.24290  0.02810  Biso   1.000  H
  C97      1.0000 0.52873  0.15540  0.06750  Biso   1.000  C
  H75      1.0000 0.55050  0.21480  0.07230  Biso   1.000  H
  C98      1.0000 0.35593  0.03560  0.00930  Biso   1.000  C
  H76      1.0000 0.36540  0.97770  0.03680  Biso   1.000  H
  C99      1.0000 0.31206  0.15300  0.94200  Biso   1.000  C
  H77      1.0000 0.28440  0.19210  0.91260  Biso   1.000  H
  C100     1.0000 0.36085  0.17510  0.95890  Biso   1.000  C
  H78      1.0000 0.37330  0.23200  0.94460  Biso   1.000  H
  C101     1.0000 0.72164  0.83950  0.61873  Biso   1.000  C
  H79      1.0000 0.68800  0.83950  0.58760  Biso   1.000  H
  C102     1.0000 0.80031  0.87120  0.67030  Biso   1.000  C
  H80      1.0000 0.83330  0.89770  0.68240  Biso   1.000  H
  C103     1.0000 0.78721  0.80820  0.70400  Biso   1.000  C
  H81      1.0000 0.80880  0.78390  0.74280  Biso   1.000  H
  C104     1.0000 0.70435  0.72730  0.68826  Biso   1.000  C
  C105     1.0000 0.71743  0.72030  0.74812  Biso   1.000  C
  H82      1.0000 0.74790  0.75240  0.77690  Biso   1.000  H
  C106     1.0000 0.68578  0.66620  0.76540  Biso   1.000  C
  H83      1.0000 0.69450  0.66230  0.80560  Biso   1.000  H
  C107     1.0000 0.64162  0.61850  0.72300  Biso   1.000  C
  C108     1.0000 0.62928  0.62040  0.66400  Biso   1.000  C
  H84      1.0000 0.59960  0.58520  0.63570  Biso   1.000  H
  C109     1.0000 0.66133  0.67520  0.64610  Biso   1.000  C
  H85      1.0000 0.65340  0.67600  0.60610  Biso   1.000  H
  C110     1.0000 0.55858  0.57770  0.71000  Biso   1.000  C
  C111     1.0000 0.45460  0.60660  0.65486  Biso   1.000  C
  C112     1.0000 0.48500  0.69870  0.68400  Biso   1.000  C
  H86      1.0000 0.47090  0.76770  0.68470  Biso   1.000  H
  C113     1.0000 0.53800  0.68040  0.71220  Biso   1.000  C
  H87      1.0000 0.56010  0.73860  0.73300  Biso   1.000  H
  C114     1.0000 0.36524  0.53900  0.60950  Biso   1.000  C
  H88      1.0000 0.37390  0.46380  0.61560  Biso   1.000  H
  C115     1.0000 0.32156  0.68950  0.58390  Biso   1.000  C
  H89      1.0000 0.29420  0.73940  0.56840  Biso   1.000  H
  C116     1.0000 0.37243  0.71790  0.61120  Biso   1.000  C
  H90      1.0000 0.38580  0.78980  0.61800  Biso   1.000  H
  C117     1.0000 0.72054  0.75130  0.48451  Biso   1.000  C
  Co3      1.0000 0.75471  0.96683  0.53706  Biso   1.000  Co
  N17      1.0000 0.75117  0.01530  0.45482  Biso   1.000  N
  N18      1.0000 0.72457  0.02620  0.35757  Biso   1.000  N
  N19      1.0000 0.38943  0.09800  0.00162  Biso   1.000  N
  N20      1.0000 0.30776  0.06500  0.97351  Biso   1.000  N
  N21      1.0000 0.75961  0.89170  0.61644  Biso   1.000  N
  N22      1.0000 0.73665  0.78640  0.67080  Biso   1.000  N
  N23      1.0000 0.39999  0.62010  0.62667  Biso   1.000  N
  N24      1.0000 0.31746  0.57510  0.58310  Biso   1.000  N
  O9       1.0000 0.60024  0.03240  0.11143  Biso   1.000  O
  O10      1.0000 0.61147  0.56040  0.74219  Biso   1.000  O
  O11      1.0000 0.70049  0.83920  0.48722  Biso   1.000  O
  O12      1.0000 0.69583  0.66380  0.45903  Biso   1.000  O
  C118     1.0000 0.52880  0.49900  0.67990  Biso   1.000  C
  H91      1.0000 0.54290  0.43030  0.67890  Biso   1.000  H
  C119     1.0000 0.47490  0.51240  0.64780  Biso   1.000  C
  H92      1.0000 0.45410  0.45660  0.62230  Biso   1.000  H
  C120     1.0000 0.52920  0.48520  0.70990  Biso   1.000  C
  H93      1.0000 0.54400  0.41690  0.72660  Biso   1.000  H
  C121     1.0000 0.47580  0.50380  0.68250  Biso   1.000  C
  H94      1.0000 0.45420  0.44760  0.68280  Biso   1.000  H
  C122     1.0000 0.53970  0.67360  0.68760  Biso   1.000  C
  H95      1.0000 0.56100  0.73220  0.68940  Biso   1.000  H
  C123     1.0000 0.48530  0.68800  0.65990  Biso   1.000  C
  H96      1.0000 0.47150  0.75780  0.64500  Biso   1.000  H
  C124     1.0000 0.21149  0.50330  0.40010  Biso   1.000  C
  H97      1.0000 0.17870  0.48160  0.39230  Biso   1.000  H
  C125     1.0000 0.29195  0.54680  0.44570  Biso   1.000  C
  H98      1.0000 0.32520  0.56040  0.47590  Biso   1.000  H
  C126     1.0000 0.27624  0.55490  0.38650  Biso   1.000  C
  H99      1.0000 0.29610  0.57550  0.36880  Biso   1.000  H
  C127     1.0000 0.19094  0.52410  0.29411  Biso   1.000  C
  C128     1.0000 0.14098  0.54970  0.27200  Biso   1.000  C
  H100     1.0000 0.12790  0.56610  0.29780  Biso   1.000  H
  C129     1.0000 0.10895  0.55140  0.21040  Biso   1.000  C
  H101     1.0000 0.07440  0.56960  0.19490  Biso   1.000  H
  C130     1.0000 0.12843  0.52620  0.17265  Biso   1.000  C
  C131     1.0000 0.17919  0.49830  0.19560  Biso   1.000  C
  H102     1.0000 0.19210  0.47970  0.16990  Biso   1.000  H
  C132     1.0000 0.21120  0.49760  0.25630  Biso   1.000  C
  H103     1.0000 0.24580  0.47970  0.27190  Biso   1.000  H
  C133     1.0000 0.04812  0.55250  0.08660  Biso   1.000  C
  C134     1.0000 0.01610  0.46360  0.07900  Biso   1.000  C
  H104     1.0000 0.03010  0.39380  0.09370  Biso   1.000  H
  C135     1.0000 0.96237  0.47740  0.04930  Biso   1.000  C
  H105     1.0000 0.94040  0.41710  0.04180  Biso   1.000  H
  C136     1.0000 0.94370  0.58370  0.03170  Biso   1.000  C
  C137     1.0000 0.97547  0.67180  0.04030  Biso   1.000  C
  H106     1.0000 0.96180  0.74290  0.02810  Biso   1.000  H
  C138     1.0000 0.02873  0.65540  0.06750  Biso   1.000  C
  H107     1.0000 0.05050  0.71480  0.07230  Biso   1.000  H
  C139     1.0000 0.85593  0.53560  0.00930  Biso   1.000  C
  H108     1.0000 0.86540  0.47770  0.03680  Biso   1.000  H
  C140     1.0000 0.81206  0.65300  0.94200  Biso   1.000  C
  H109     1.0000 0.78440  0.69210  0.91260  Biso   1.000  H
  C141     1.0000 0.86085  0.67510  0.95890  Biso   1.000  C
  H110     1.0000 0.87330  0.73200  0.94460  Biso   1.000  H
  C142     1.0000 0.22164  0.33950  0.61873  Biso   1.000  C
  H111     1.0000 0.18800  0.33950  0.58760  Biso   1.000  H
  C143     1.0000 0.30031  0.37120  0.67030  Biso   1.000  C
  H112     1.0000 0.33330  0.39770  0.68240  Biso   1.000  H
  C144     1.0000 0.28721  0.30820  0.70400  Biso   1.000  C
  H113     1.0000 0.30880  0.28390  0.74280  Biso   1.000  H
  C145     1.0000 0.20435  0.22730  0.68826  Biso   1.000  C
  C146     1.0000 0.21743  0.22030  0.74812  Biso   1.000  C
  H114     1.0000 0.24790  0.25240  0.77690  Biso   1.000  H
  C147     1.0000 0.18578  0.16620  0.76540  Biso   1.000  C
  H115     1.0000 0.19450  0.16230  0.80560  Biso   1.000  H
  C148     1.0000 0.14162  0.11850  0.72300  Biso   1.000  C
  C149     1.0000 0.12928  0.12040  0.66400  Biso   1.000  C
  H116     1.0000 0.09960  0.08520  0.63570  Biso   1.000  H
  C150     1.0000 0.16133  0.17520  0.64610  Biso   1.000  C
  H117     1.0000 0.15340  0.17600  0.60610  Biso   1.000  H
  C151     1.0000 0.05858  0.07770  0.71000  Biso   1.000  C
  C152     1.0000 0.95460  0.10660  0.65486  Biso   1.000  C
  C153     1.0000 0.98500  0.19870  0.68400  Biso   1.000  C
  H118     1.0000 0.97090  0.26770  0.68470  Biso   1.000  H
  C154     1.0000 0.03800  0.18040  0.71220  Biso   1.000  C
  H119     1.0000 0.06010  0.23860  0.73300  Biso   1.000  H
  C155     1.0000 0.86524  0.03900  0.60950  Biso   1.000  C
  H120     1.0000 0.87390  0.96380  0.61560  Biso   1.000  H
  C156     1.0000 0.82156  0.18950  0.58390  Biso   1.000  C
  H121     1.0000 0.79420  0.23940  0.56840  Biso   1.000  H
  C157     1.0000 0.87243  0.21790  0.61120  Biso   1.000  C
  H122     1.0000 0.88580  0.28980  0.61800  Biso   1.000  H
  C158     1.0000 0.22054  0.25130  0.48451  Biso   1.000  C
  Co4      1.0000 0.25471  0.46683  0.53706  Biso   1.000  Co
  N25      1.0000 0.25117  0.51530  0.45482  Biso   1.000  N
  N26      1.0000 0.22457  0.52620  0.35757  Biso   1.000  N
  N27      1.0000 0.88943  0.59800  0.00162  Biso   1.000  N
  N28      1.0000 0.80776  0.56500  0.97351  Biso   1.000  N
  N29      1.0000 0.25961  0.39170  0.61644  Biso   1.000  N
  N30      1.0000 0.23665  0.28640  0.67080  Biso   1.000  N
  N31      1.0000 0.89999  0.12010  0.62667  Biso   1.000  N
  N32      1.0000 0.81746  0.07510  0.58310  Biso   1.000  N
  O13      1.0000 0.10024  0.53240  0.11143  Biso   1.000  O
  O14      1.0000 0.11147  0.06040  0.74219  Biso   1.000  O
  O15      1.0000 0.20049  0.33920  0.48722  Biso   1.000  O
  O16      1.0000 0.19583  0.16380  0.45903  Biso   1.000  O
  C159     1.0000 0.02880  0.99900  0.67990  Biso   1.000  C
  H123     1.0000 0.04290  0.93030  0.67890  Biso   1.000  H
  C160     1.0000 0.97490  0.01240  0.64780  Biso   1.000  C
  H124     1.0000 0.95410  0.95660  0.62230  Biso   1.000  H
  C161     1.0000 0.02920  0.98520  0.70990  Biso   1.000  C
  H125     1.0000 0.04400  0.91690  0.72660  Biso   1.000  H
  C162     1.0000 0.97580  0.00380  0.68250  Biso   1.000  C
  H126     1.0000 0.95420  0.94760  0.68280  Biso   1.000  H
  C163     1.0000 0.03970  0.17360  0.68760  Biso   1.000  C
  H127     1.0000 0.06100  0.23220  0.68940  Biso   1.000  H
  C164     1.0000 0.98530  0.18800  0.65990  Biso   1.000  C
  H128     1.0000 0.97150  0.25780  0.64500  Biso   1.000  H
  C165     1.0000 0.71149  0.99670  0.90010  Biso   1.000  C
  H129     1.0000 0.67870  0.01840  0.89230  Biso   1.000  H
  C166     1.0000 0.79195  0.95320  0.94570  Biso   1.000  C
  H130     1.0000 0.82520  0.93960  0.97590  Biso   1.000  H
  C167     1.0000 0.77624  0.94510  0.88650  Biso   1.000  C
  H131     1.0000 0.79610  0.92450  0.86880  Biso   1.000  H
  C168     1.0000 0.69094  0.97590  0.79411  Biso   1.000  C
  C169     1.0000 0.64098  0.95030  0.77200  Biso   1.000  C
  H132     1.0000 0.62790  0.93390  0.79780  Biso   1.000  H
  C170     1.0000 0.60895  0.94860  0.71040  Biso   1.000  C
  H133     1.0000 0.57440  0.93040  0.69490  Biso   1.000  H
  C171     1.0000 0.62843  0.97380  0.67265  Biso   1.000  C
  C172     1.0000 0.67919  0.00170  0.69560  Biso   1.000  C
  H134     1.0000 0.69210  0.02030  0.66990  Biso   1.000  H
  C173     1.0000 0.71120  0.00240  0.75630  Biso   1.000  C
  H135     1.0000 0.74580  0.02030  0.77190  Biso   1.000  H
  C174     1.0000 0.54812  0.94750  0.58660  Biso   1.000  C
  C175     1.0000 0.51610  0.03640  0.57900  Biso   1.000  C
  H136     1.0000 0.53010  0.10620  0.59370  Biso   1.000  H
  C176     1.0000 0.46237  0.02260  0.54930  Biso   1.000  C
  H137     1.0000 0.44040  0.08290  0.54180  Biso   1.000  H
  C177     1.0000 0.44370  0.91630  0.53170  Biso   1.000  C
  C178     1.0000 0.47547  0.82820  0.54030  Biso   1.000  C
  H138     1.0000 0.46180  0.75710  0.52810  Biso   1.000  H
  C179     1.0000 0.52873  0.84460  0.56750  Biso   1.000  C
  H139     1.0000 0.55050  0.78520  0.57230  Biso   1.000  H
  C180     1.0000 0.35593  0.96440  0.50930  Biso   1.000  C
  H140     1.0000 0.36540  0.02230  0.53680  Biso   1.000  H
  C181     1.0000 0.31206  0.84700  0.44200  Biso   1.000  C
  H141     1.0000 0.28440  0.80790  0.41260  Biso   1.000  H
  C182     1.0000 0.36085  0.82490  0.45890  Biso   1.000  C
  H142     1.0000 0.37330  0.76800  0.44460  Biso   1.000  H
  C183     1.0000 0.72164  0.16050  0.11873  Biso   1.000  C
  H143     1.0000 0.68800  0.16050  0.08760  Biso   1.000  H
  C184     1.0000 0.80031  0.12880  0.17030  Biso   1.000  C
  H144     1.0000 0.83330  0.10230  0.18240  Biso   1.000  H
  C185     1.0000 0.78721  0.19180  0.20400  Biso   1.000  C
  H145     1.0000 0.80880  0.21610  0.24280  Biso   1.000  H
  C186     1.0000 0.70435  0.27270  0.18826  Biso   1.000  C
  C187     1.0000 0.71743  0.27970  0.24812  Biso   1.000  C
  H146     1.0000 0.74790  0.24760  0.27690  Biso   1.000  H
  C188     1.0000 0.68578  0.33380  0.26540  Biso   1.000  C
  H147     1.0000 0.69450  0.33770  0.30560  Biso   1.000  H
  C189     1.0000 0.64162  0.38150  0.22300  Biso   1.000  C
  C190     1.0000 0.62928  0.37960  0.16400  Biso   1.000  C
  H148     1.0000 0.59960  0.41480  0.13570  Biso   1.000  H
  C191     1.0000 0.66133  0.32480  0.14610  Biso   1.000  C
  H149     1.0000 0.65340  0.32400  0.10610  Biso   1.000  H
  C192     1.0000 0.55858  0.42230  0.21000  Biso   1.000  C
  C193     1.0000 0.45460  0.39340  0.15486  Biso   1.000  C
  C194     1.0000 0.48500  0.30130  0.18400  Biso   1.000  C
  H150     1.0000 0.47090  0.23230  0.18470  Biso   1.000  H
  C195     1.0000 0.53800  0.31960  0.21220  Biso   1.000  C
  H151     1.0000 0.56010  0.26140  0.23300  Biso   1.000  H
  C196     1.0000 0.36524  0.46100  0.10950  Biso   1.000  C
  H152     1.0000 0.37390  0.53620  0.11560  Biso   1.000  H
  C197     1.0000 0.32156  0.31050  0.08390  Biso   1.000  C
  H153     1.0000 0.29420  0.26060  0.06840  Biso   1.000  H
  C198     1.0000 0.37243  0.28210  0.11120  Biso   1.000  C
  H154     1.0000 0.38580  0.21020  0.11800  Biso   1.000  H
  C199     1.0000 0.72054  0.24870  0.98451  Biso   1.000  C
  Co5      1.0000 0.75471  0.03317  0.03706  Biso   1.000  Co
  N33      1.0000 0.75117  0.98470  0.95482  Biso   1.000  N
  N34      1.0000 0.72457  0.97380  0.85757  Biso   1.000  N
  N35      1.0000 0.38943  0.90200  0.50162  Biso   1.000  N
  N36      1.0000 0.30776  0.93500  0.47351  Biso   1.000  N
  N37      1.0000 0.75961  0.10830  0.11644  Biso   1.000  N
  N38      1.0000 0.73665  0.21360  0.17080  Biso   1.000  N
  N39      1.0000 0.39999  0.37990  0.12667  Biso   1.000  N
  N40      1.0000 0.31746  0.42490  0.08310  Biso   1.000  N
  O17      1.0000 0.60024  0.96760  0.61143  Biso   1.000  O
  O18      1.0000 0.61147  0.43960  0.24219  Biso   1.000  O
  O19      1.0000 0.70049  0.16080  0.98722  Biso   1.000  O
  O20      1.0000 0.69583  0.33620  0.95903  Biso   1.000  O
  C200     1.0000 0.52880  0.50100  0.17990  Biso   1.000  C
  H155     1.0000 0.54290  0.56970  0.17890  Biso   1.000  H
  C201     1.0000 0.47490  0.48760  0.14780  Biso   1.000  C
  H156     1.0000 0.45410  0.54340  0.12230  Biso   1.000  H
  C202     1.0000 0.52920  0.51480  0.20990  Biso   1.000  C
  H157     1.0000 0.54400  0.58310  0.22660  Biso   1.000  H
  C203     1.0000 0.47580  0.49620  0.18250  Biso   1.000  C
  H158     1.0000 0.45420  0.55240  0.18280  Biso   1.000  H
  C204     1.0000 0.53970  0.32640  0.18760  Biso   1.000  C
  H159     1.0000 0.56100  0.26780  0.18940  Biso   1.000  H
  C205     1.0000 0.48530  0.31200  0.15990  Biso   1.000  C
  H160     1.0000 0.47150  0.24220  0.14500  Biso   1.000  H
  C206     1.0000 0.21149  0.49670  0.90010  Biso   1.000  C
  H161     1.0000 0.17870  0.51840  0.89230  Biso   1.000  H
  C207     1.0000 0.29195  0.45320  0.94570  Biso   1.000  C
  H162     1.0000 0.32520  0.43960  0.97590  Biso   1.000  H
  C208     1.0000 0.27624  0.44510  0.88650  Biso   1.000  C
  H163     1.0000 0.29610  0.42450  0.86880  Biso   1.000  H
  C209     1.0000 0.19094  0.47590  0.79411  Biso   1.000  C
  C210     1.0000 0.14098  0.45030  0.77200  Biso   1.000  C
  H164     1.0000 0.12790  0.43390  0.79780  Biso   1.000  H
  C211     1.0000 0.10895  0.44860  0.71040  Biso   1.000  C
  H165     1.0000 0.07440  0.43040  0.69490  Biso   1.000  H
  C212     1.0000 0.12843  0.47380  0.67265  Biso   1.000  C
  C213     1.0000 0.17919  0.50170  0.69560  Biso   1.000  C
  H166     1.0000 0.19210  0.52030  0.66990  Biso   1.000  H
  C214     1.0000 0.21120  0.50240  0.75630  Biso   1.000  C
  H167     1.0000 0.24580  0.52030  0.77190  Biso   1.000  H
  C215     1.0000 0.04812  0.44750  0.58660  Biso   1.000  C
  C216     1.0000 0.01610  0.53640  0.57900  Biso   1.000  C
  H168     1.0000 0.03010  0.60620  0.59370  Biso   1.000  H
  C217     1.0000 0.96237  0.52260  0.54930  Biso   1.000  C
  H169     1.0000 0.94040  0.58290  0.54180  Biso   1.000  H
  C218     1.0000 0.94370  0.41630  0.53170  Biso   1.000  C
  C219     1.0000 0.97547  0.32820  0.54030  Biso   1.000  C
  H170     1.0000 0.96180  0.25710  0.52810  Biso   1.000  H
  C220     1.0000 0.02873  0.34460  0.56750  Biso   1.000  C
  H171     1.0000 0.05050  0.28520  0.57230  Biso   1.000  H
  C221     1.0000 0.85593  0.46440  0.50930  Biso   1.000  C
  H172     1.0000 0.86540  0.52230  0.53680  Biso   1.000  H
  C222     1.0000 0.81206  0.34700  0.44200  Biso   1.000  C
  H173     1.0000 0.78440  0.30790  0.41260  Biso   1.000  H
  C223     1.0000 0.86085  0.32490  0.45890  Biso   1.000  C
  H174     1.0000 0.87330  0.26800  0.44460  Biso   1.000  H
  C224     1.0000 0.22164  0.66050  0.11873  Biso   1.000  C
  H175     1.0000 0.18800  0.66050  0.08760  Biso   1.000  H
  C225     1.0000 0.30031  0.62880  0.17030  Biso   1.000  C
  H176     1.0000 0.33330  0.60230  0.18240  Biso   1.000  H
  C226     1.0000 0.28721  0.69180  0.20400  Biso   1.000  C
  H177     1.0000 0.30880  0.71610  0.24280  Biso   1.000  H
  C227     1.0000 0.20435  0.77270  0.18826  Biso   1.000  C
  C228     1.0000 0.21743  0.77970  0.24812  Biso   1.000  C
  H178     1.0000 0.24790  0.74760  0.27690  Biso   1.000  H
  C229     1.0000 0.18578  0.83380  0.26540  Biso   1.000  C
  H179     1.0000 0.19450  0.83770  0.30560  Biso   1.000  H
  C230     1.0000 0.14162  0.88150  0.22300  Biso   1.000  C
  C231     1.0000 0.12928  0.87960  0.16400  Biso   1.000  C
  H180     1.0000 0.09960  0.91480  0.13570  Biso   1.000  H
  C232     1.0000 0.16133  0.82480  0.14610  Biso   1.000  C
  H181     1.0000 0.15340  0.82400  0.10610  Biso   1.000  H
  C233     1.0000 0.05858  0.92230  0.21000  Biso   1.000  C
  C234     1.0000 0.95460  0.89340  0.15486  Biso   1.000  C
  C235     1.0000 0.98500  0.80130  0.18400  Biso   1.000  C
  H182     1.0000 0.97090  0.73230  0.18470  Biso   1.000  H
  C236     1.0000 0.03800  0.81960  0.21220  Biso   1.000  C
  H183     1.0000 0.06010  0.76140  0.23300  Biso   1.000  H
  C237     1.0000 0.86524  0.96100  0.10950  Biso   1.000  C
  H184     1.0000 0.87390  0.03620  0.11560  Biso   1.000  H
  C238     1.0000 0.82156  0.81050  0.08390  Biso   1.000  C
  H185     1.0000 0.79420  0.76060  0.06840  Biso   1.000  H
  C239     1.0000 0.87243  0.78210  0.11120  Biso   1.000  C
  H186     1.0000 0.88580  0.71020  0.11800  Biso   1.000  H
  C240     1.0000 0.22054  0.74870  0.98451  Biso   1.000  C
  Co6      1.0000 0.25471  0.53317  0.03706  Biso   1.000  Co
  N41      1.0000 0.25117  0.48470  0.95482  Biso   1.000  N
  N42      1.0000 0.22457  0.47380  0.85757  Biso   1.000  N
  N43      1.0000 0.88943  0.40200  0.50162  Biso   1.000  N
  N44      1.0000 0.80776  0.43500  0.47351  Biso   1.000  N
  N45      1.0000 0.25961  0.60830  0.11644  Biso   1.000  N
  N46      1.0000 0.23665  0.71360  0.17080  Biso   1.000  N
  N47      1.0000 0.89999  0.87990  0.12667  Biso   1.000  N
  N48      1.0000 0.81746  0.92490  0.08310  Biso   1.000  N
  O21      1.0000 0.10024  0.46760  0.61143  Biso   1.000  O
  O22      1.0000 0.11147  0.93960  0.24219  Biso   1.000  O
  O23      1.0000 0.20049  0.66080  0.98722  Biso   1.000  O
  O24      1.0000 0.19583  0.83620  0.95903  Biso   1.000  O
  C241     1.0000 0.02880  0.00100  0.17990  Biso   1.000  C
  H187     1.0000 0.04290  0.06970  0.17890  Biso   1.000  H
  C242     1.0000 0.97490  0.98760  0.14780  Biso   1.000  C
  H188     1.0000 0.95410  0.04340  0.12230  Biso   1.000  H
  C243     1.0000 0.02920  0.01480  0.20990  Biso   1.000  C
  H189     1.0000 0.04400  0.08310  0.22660  Biso   1.000  H
  C244     1.0000 0.97580  0.99620  0.18250  Biso   1.000  C
  H190     1.0000 0.95420  0.05240  0.18280  Biso   1.000  H
  C245     1.0000 0.03970  0.82640  0.18760  Biso   1.000  C
  H191     1.0000 0.06100  0.76780  0.18940  Biso   1.000  H
  C246     1.0000 0.98530  0.81200  0.15990  Biso   1.000  C
  H192     1.0000 0.97150  0.74220  0.14500  Biso   1.000  H
  C247     1.0000 0.28851  0.99670  0.59990  Biso   1.000  C
  H193     1.0000 0.32130  0.01840  0.60770  Biso   1.000  H
  C248     1.0000 0.20805  0.95320  0.55430  Biso   1.000  C
  H194     1.0000 0.17480  0.93960  0.52410  Biso   1.000  H
  C249     1.0000 0.22376  0.94510  0.61350  Biso   1.000  C
  H195     1.0000 0.20390  0.92450  0.63120  Biso   1.000  H
  C250     1.0000 0.30906  0.97590  0.70589  Biso   1.000  C
  C251     1.0000 0.35902  0.95030  0.72800  Biso   1.000  C
  H196     1.0000 0.37210  0.93390  0.70220  Biso   1.000  H
  C252     1.0000 0.39105  0.94860  0.78960  Biso   1.000  C
  H197     1.0000 0.42560  0.93040  0.80510  Biso   1.000  H
  C253     1.0000 0.37157  0.97380  0.82735  Biso   1.000  C
  C254     1.0000 0.32081  0.00170  0.80440  Biso   1.000  C
  H198     1.0000 0.30790  0.02030  0.83010  Biso   1.000  H
  C255     1.0000 0.28880  0.00240  0.74370  Biso   1.000  C
  H199     1.0000 0.25420  0.02030  0.72810  Biso   1.000  H
  C256     1.0000 0.45188  0.94750  0.91340  Biso   1.000  C
  C257     1.0000 0.48390  0.03640  0.92100  Biso   1.000  C
  H200     1.0000 0.46990  0.10620  0.90630  Biso   1.000  H
  C258     1.0000 0.53763  0.02260  0.95070  Biso   1.000  C
  H201     1.0000 0.55960  0.08290  0.95820  Biso   1.000  H
  C259     1.0000 0.55630  0.91630  0.96830  Biso   1.000  C
  C260     1.0000 0.52453  0.82820  0.95970  Biso   1.000  C
  H202     1.0000 0.53820  0.75710  0.97190  Biso   1.000  H
  C261     1.0000 0.47127  0.84460  0.93250  Biso   1.000  C
  H203     1.0000 0.44950  0.78520  0.92770  Biso   1.000  H
  C262     1.0000 0.64407  0.96440  0.99070  Biso   1.000  C
  H204     1.0000 0.63460  0.02230  0.96320  Biso   1.000  H
  C263     1.0000 0.68794  0.84700  0.05800  Biso   1.000  C
  H205     1.0000 0.71560  0.80790  0.08740  Biso   1.000  H
  C264     1.0000 0.63915  0.82490  0.04110  Biso   1.000  C
  H206     1.0000 0.62670  0.76800  0.05540  Biso   1.000  H
  C265     1.0000 0.27836  0.16050  0.38127  Biso   1.000  C
  H207     1.0000 0.31200  0.16050  0.41240  Biso   1.000  H
  C266     1.0000 0.19969  0.12880  0.32970  Biso   1.000  C
  H208     1.0000 0.16670  0.10230  0.31760  Biso   1.000  H
  C267     1.0000 0.21279  0.19180  0.29600  Biso   1.000  C
  H209     1.0000 0.19120  0.21610  0.25720  Biso   1.000  H
  C268     1.0000 0.29565  0.27270  0.31174  Biso   1.000  C
  C269     1.0000 0.28257  0.27970  0.25188  Biso   1.000  C
  H210     1.0000 0.25210  0.24760  0.22310  Biso   1.000  H
  C270     1.0000 0.31422  0.33380  0.23460  Biso   1.000  C
  H211     1.0000 0.30550  0.33770  0.19440  Biso   1.000  H
  C271     1.0000 0.35838  0.38150  0.27700  Biso   1.000  C
  C272     1.0000 0.37072  0.37960  0.33600  Biso   1.000  C
  H212     1.0000 0.40040  0.41480  0.36430  Biso   1.000  H
  C273     1.0000 0.33867  0.32480  0.35390  Biso   1.000  C
  H213     1.0000 0.34660  0.32400  0.39390  Biso   1.000  H
  C274     1.0000 0.44142  0.42230  0.29000  Biso   1.000  C
  C275     1.0000 0.54540  0.39340  0.34514  Biso   1.000  C
  C276     1.0000 0.51500  0.30130  0.31600  Biso   1.000  C
  H214     1.0000 0.52910  0.23230  0.31530  Biso   1.000  H
  C277     1.0000 0.46200  0.31960  0.28780  Biso   1.000  C
  H215     1.0000 0.43990  0.26140  0.26700  Biso   1.000  H
  C278     1.0000 0.63476  0.46100  0.39050  Biso   1.000  C
  H216     1.0000 0.62610  0.53620  0.38440  Biso   1.000  H
  C279     1.0000 0.67844  0.31050  0.41610  Biso   1.000  C
  H217     1.0000 0.70580  0.26060  0.43160  Biso   1.000  H
  C280     1.0000 0.62757  0.28210  0.38880  Biso   1.000  C
  H218     1.0000 0.61420  0.21020  0.38200  Biso   1.000  H
  C281     1.0000 0.27946  0.24870  0.51549  Biso   1.000  C
  Co7      1.0000 0.24529  0.03317  0.46294  Biso   1.000  Co
  N49      1.0000 0.24883  0.98470  0.54518  Biso   1.000  N
  N50      1.0000 0.27543  0.97380  0.64243  Biso   1.000  N
  N51      1.0000 0.61057  0.90200  0.99838  Biso   1.000  N
  N52      1.0000 0.69224  0.93500  0.02649  Biso   1.000  N
  N53      1.0000 0.24039  0.10830  0.38356  Biso   1.000  N
  N54      1.0000 0.26335  0.21360  0.32920  Biso   1.000  N
  N55      1.0000 0.60001  0.37990  0.37333  Biso   1.000  N
  N56      1.0000 0.68254  0.42490  0.41690  Biso   1.000  N
  O25      1.0000 0.39976  0.96760  0.88857  Biso   1.000  O
  O26      1.0000 0.38853  0.43960  0.25781  Biso   1.000  O
  O27      1.0000 0.29951  0.16080  0.51278  Biso   1.000  O
  O28      1.0000 0.30417  0.33620  0.54097  Biso   1.000  O
  C282     1.0000 0.47120  0.50100  0.32010  Biso   1.000  C
  H219     1.0000 0.45710  0.56970  0.32110  Biso   1.000  H
  C283     1.0000 0.52510  0.48760  0.35220  Biso   1.000  C
  H220     1.0000 0.54590  0.54340  0.37770  Biso   1.000  H
  C284     1.0000 0.47080  0.51480  0.29010  Biso   1.000  C
  H221     1.0000 0.45600  0.58310  0.27340  Biso   1.000  H
  C285     1.0000 0.52420  0.49620  0.31750  Biso   1.000  C
  H222     1.0000 0.54580  0.55240  0.31720  Biso   1.000  H
  C286     1.0000 0.46030  0.32640  0.31240  Biso   1.000  C
  H223     1.0000 0.43900  0.26780  0.31060  Biso   1.000  H
  C287     1.0000 0.51470  0.31200  0.34010  Biso   1.000  C
  H224     1.0000 0.52850  0.24220  0.35500  Biso   1.000  H
  C288     1.0000 0.78851  0.49670  0.59990  Biso   1.000  C
  H225     1.0000 0.82130  0.51840  0.60770  Biso   1.000  H
  C289     1.0000 0.70805  0.45320  0.55430  Biso   1.000  C
  H226     1.0000 0.67480  0.43960  0.52410  Biso   1.000  H
  C290     1.0000 0.72376  0.44510  0.61350  Biso   1.000  C
  H227     1.0000 0.70390  0.42450  0.63120  Biso   1.000  H
  C291     1.0000 0.80906  0.47590  0.70589  Biso   1.000  C
  C292     1.0000 0.85902  0.45030  0.72800  Biso   1.000  C
  H228     1.0000 0.87210  0.43390  0.70220  Biso   1.000  H
  C293     1.0000 0.89105  0.44860  0.78960  Biso   1.000  C
  H229     1.0000 0.92560  0.43040  0.80510  Biso   1.000  H
  C294     1.0000 0.87157  0.47380  0.82735  Biso   1.000  C
  C295     1.0000 0.82081  0.50170  0.80440  Biso   1.000  C
  H230     1.0000 0.80790  0.52030  0.83010  Biso   1.000  H
  C296     1.0000 0.78880  0.50240  0.74370  Biso   1.000  C
  H231     1.0000 0.75420  0.52030  0.72810  Biso   1.000  H
  C297     1.0000 0.95188  0.44750  0.91340  Biso   1.000  C
  C298     1.0000 0.98390  0.53640  0.92100  Biso   1.000  C
  H232     1.0000 0.96990  0.60620  0.90630  Biso   1.000  H
  C299     1.0000 0.03763  0.52260  0.95070  Biso   1.000  C
  H233     1.0000 0.05960  0.58290  0.95820  Biso   1.000  H
  C300     1.0000 0.05630  0.41630  0.96830  Biso   1.000  C
  C301     1.0000 0.02453  0.32820  0.95970  Biso   1.000  C
  H234     1.0000 0.03820  0.25710  0.97190  Biso   1.000  H
  C302     1.0000 0.97127  0.34460  0.93250  Biso   1.000  C
  H235     1.0000 0.94950  0.28520  0.92770  Biso   1.000  H
  C303     1.0000 0.14407  0.46440  0.99070  Biso   1.000  C
  H236     1.0000 0.13460  0.52230  0.96320  Biso   1.000  H
  C304     1.0000 0.18794  0.34700  0.05800  Biso   1.000  C
  H237     1.0000 0.21560  0.30790  0.08740  Biso   1.000  H
  C305     1.0000 0.13915  0.32490  0.04110  Biso   1.000  C
  H238     1.0000 0.12670  0.26800  0.05540  Biso   1.000  H
  C306     1.0000 0.77836  0.66050  0.38127  Biso   1.000  C
  H239     1.0000 0.81200  0.66050  0.41240  Biso   1.000  H
  C307     1.0000 0.69969  0.62880  0.32970  Biso   1.000  C
  H240     1.0000 0.66670  0.60230  0.31760  Biso   1.000  H
  C308     1.0000 0.71279  0.69180  0.29600  Biso   1.000  C
  H241     1.0000 0.69120  0.71610  0.25720  Biso   1.000  H
  C309     1.0000 0.79565  0.77270  0.31174  Biso   1.000  C
  C310     1.0000 0.78257  0.77970  0.25188  Biso   1.000  C
  H242     1.0000 0.75210  0.74760  0.22310  Biso   1.000  H
  C311     1.0000 0.81422  0.83380  0.23460  Biso   1.000  C
  H243     1.0000 0.80550  0.83770  0.19440  Biso   1.000  H
  C312     1.0000 0.85838  0.88150  0.27700  Biso   1.000  C
  C313     1.0000 0.87072  0.87960  0.33600  Biso   1.000  C
  H244     1.0000 0.90040  0.91480  0.36430  Biso   1.000  H
  C314     1.0000 0.83867  0.82480  0.35390  Biso   1.000  C
  H245     1.0000 0.84660  0.82400  0.39390  Biso   1.000  H
  C315     1.0000 0.94142  0.92230  0.29000  Biso   1.000  C
  C316     1.0000 0.04540  0.89340  0.34514  Biso   1.000  C
  C317     1.0000 0.01500  0.80130  0.31600  Biso   1.000  C
  H246     1.0000 0.02910  0.73230  0.31530  Biso   1.000  H
  C318     1.0000 0.96200  0.81960  0.28780  Biso   1.000  C
  H247     1.0000 0.93990  0.76140  0.26700  Biso   1.000  H
  C319     1.0000 0.13476  0.96100  0.39050  Biso   1.000  C
  H248     1.0000 0.12610  0.03620  0.38440  Biso   1.000  H
  C320     1.0000 0.17844  0.81050  0.41610  Biso   1.000  C
  H249     1.0000 0.20580  0.76060  0.43160  Biso   1.000  H
  C321     1.0000 0.12757  0.78210  0.38880  Biso   1.000  C
  H250     1.0000 0.11420  0.71020  0.38200  Biso   1.000  H
  C322     1.0000 0.77946  0.74870  0.51549  Biso   1.000  C
  Co8      1.0000 0.74529  0.53317  0.46294  Biso   1.000  Co
  N57      1.0000 0.74883  0.48470  0.54518  Biso   1.000  N
  N58      1.0000 0.77543  0.47380  0.64243  Biso   1.000  N
  N59      1.0000 0.11057  0.40200  0.99838  Biso   1.000  N
  N60      1.0000 0.19224  0.43500  0.02649  Biso   1.000  N
  N61      1.0000 0.74039  0.60830  0.38356  Biso   1.000  N
  N62      1.0000 0.76335  0.71360  0.32920  Biso   1.000  N
  N63      1.0000 0.10001  0.87990  0.37333  Biso   1.000  N
  N64      1.0000 0.18254  0.92490  0.41690  Biso   1.000  N
  O29      1.0000 0.89976  0.46760  0.88857  Biso   1.000  O
  O30      1.0000 0.88853  0.93960  0.25781  Biso   1.000  O
  O31      1.0000 0.79951  0.66080  0.51278  Biso   1.000  O
  O32      1.0000 0.80417  0.83620  0.54097  Biso   1.000  O
  C323     1.0000 0.97120  0.00100  0.32010  Biso   1.000  C
  H251     1.0000 0.95710  0.06970  0.32110  Biso   1.000  H
  C324     1.0000 0.02510  0.98760  0.35220  Biso   1.000  C
  H252     1.0000 0.04590  0.04340  0.37770  Biso   1.000  H
  C325     1.0000 0.97080  0.01480  0.29010  Biso   1.000  C
  H253     1.0000 0.95600  0.08310  0.27340  Biso   1.000  H
  C326     1.0000 0.02420  0.99620  0.31750  Biso   1.000  C
  H254     1.0000 0.04580  0.05240  0.31720  Biso   1.000  H
  C327     1.0000 0.96030  0.82640  0.31240  Biso   1.000  C
  H255     1.0000 0.93900  0.76780  0.31060  Biso   1.000  H
  C328     1.0000 0.01470  0.81200  0.34010  Biso   1.000  C
  H256     1.0000 0.02850  0.74220  0.35500  Biso   1.000  H
