data_image0
_cell_length_a       28.012
_cell_length_b       13.7873
_cell_length_c       45.388
_cell_angle_alpha    90
_cell_angle_beta     90
_cell_angle_gamma    90

_symmetry_space_group_name_H-M    "P 1"
_symmetry_int_tables_number       1

loop_
  _symmetry_equiv_pos_as_xyz
  'x, y, z'

loop_
  _atom_site_label
  _atom_site_occupancy
  _atom_site_fract_x
  _atom_site_fract_y
  _atom_site_fract_z
  _atom_site_thermal_displace_type
  _atom_site_B_iso_or_equiv
  _atom_site_type_symbol
  Zn1      1.0000 0.75855  0.14902  0.31193  Biso   1.000  Zn
  Zn2      1.0000 0.94373  0.15501  0.57251  Biso   1.000  Zn
  Zn3      1.0000 0.97287  0.35557  0.41418  Biso   1.000  Zn
  I1       1.0000 0.00974  0.07314  0.60115  Biso   1.000  I
  I2       1.0000 0.99062  0.28193  0.46452  Biso   1.000  I
  I3       1.0000 0.80195  0.31041  0.30570  Biso   1.000  I
  I4       1.0000 0.93805  0.33633  0.56141  Biso   1.000  I
  I5       1.0000 0.92404  0.27347  0.37454  Biso   1.000  I
  I6       1.0000 0.67112  0.14545  0.32623  Biso   1.000  I
  C1       1.0000 0.92340  0.53820  0.39882  Biso   1.000  C
  H1       1.0000 0.92060  0.50650  0.38030  Biso   1.000  H
  C2       1.0000 0.90610  0.63130  0.40168  Biso   1.000  C
  H2       1.0000 0.89180  0.66310  0.38540  Biso   1.000  H
  C3       1.0000 0.94630  0.53570  0.44718  Biso   1.000  C
  H3       1.0000 0.95950  0.50150  0.46340  Biso   1.000  H
  C4       1.0000 0.93050  0.62960  0.45158  Biso   1.000  C
  H4       1.0000 0.93390  0.65990  0.47030  Biso   1.000  H
  C5       1.0000 0.90990  0.67810  0.42839  Biso   1.000  C
  C6       1.0000 0.89440  0.78050  0.43183  Biso   1.000  C
  C7       1.0000 0.94680  0.99130  0.53044  Biso   1.000  C
  H5       1.0000 0.96520  0.96340  0.54580  Biso   1.000  H
  C8       1.0000 0.93560  0.93400  0.50612  Biso   1.000  C
  H6       1.0000 0.94610  0.86870  0.50480  Biso   1.000  H
  C9       1.0000 0.90780  0.12340  0.51123  Biso   1.000  C
  H7       1.0000 0.89830  0.18930  0.51310  Biso   1.000  H
  C10      1.0000 0.89540  0.07360  0.48659  Biso   1.000  C
  H8       1.0000 0.87790  0.10510  0.47140  Biso   1.000  H
  C11      1.0000 0.90820  0.97620  0.48349  Biso   1.000  C
  C12      1.0000 0.89460  0.91990  0.45743  Biso   1.000  C
  C13      1.0000 0.81800  0.11410  0.36374  Biso   1.000  C
  H9       1.0000 0.81840  0.18300  0.36370  Biso   1.000  H
  C14      1.0000 0.83980  0.06650  0.38663  Biso   1.000  C
  H10      1.0000 0.85460  0.10190  0.40210  Biso   1.000  H
  C15      1.0000 0.79680  0.97200  0.34201  Biso   1.000  C
  H11      1.0000 0.78150  0.93790  0.32650  Biso   1.000  H
  C16      1.0000 0.81860  0.91900  0.36413  Biso   1.000  C
  H12      1.0000 0.81860  0.85010  0.36350  Biso   1.000  H
  C17      1.0000 0.84010  0.96670  0.38681  Biso   1.000  C
  C18      1.0000 0.86200  0.91500  0.41178  Biso   1.000  C
  C19      1.0000 0.73070  0.03390  0.25972  Biso   1.000  C
  H13      1.0000 0.70080  0.03150  0.26960  Biso   1.000  H
  C20      1.0000 0.73500  0.99470  0.23128  Biso   1.000  C
  H14      1.0000 0.70810  0.96600  0.22190  Biso   1.000  H
  C21      1.0000 0.81010  0.07650  0.25965  Biso   1.000  C
  H15      1.0000 0.83660  0.10490  0.26950  Biso   1.000  H
  C22      1.0000 0.81640  0.03830  0.23138  Biso   1.000  C
  H16      1.0000 0.84680  0.03990  0.22210  Biso   1.000  H
  C23      1.0000 0.77750  0.99800  0.21735  Biso   1.000  C
  C24      1.0000 0.78220  0.96340  0.18634  Biso   1.000  C
  C25      1.0000 0.95870  0.89850  0.13469  Biso   1.000  C
  H17      1.0000 0.98710  0.89640  0.14610  Biso   1.000  H
  C26      1.0000 0.91580  0.91280  0.14938  Biso   1.000  C
  H18      1.0000 0.91490  0.92170  0.17010  Biso   1.000  H
  C27      1.0000 0.92220  0.89040  0.08971  Biso   1.000  C
  H19      1.0000 0.92430  0.88370  0.06890  Biso   1.000  H
  C28      1.0000 0.87800  0.90270  0.10244  Biso   1.000  C
  H20      1.0000 0.85020  0.90360  0.09050  Biso   1.000  H
  C29      1.0000 0.87420  0.91370  0.13266  Biso   1.000  C
  C30      1.0000 0.82670  0.92670  0.14681  Biso   1.000  C
  C31      1.0000 0.66120  0.86780  0.08218  Biso   1.000  C
  H21      1.0000 0.66220  0.84810  0.06210  Biso   1.000  H
  C32      1.0000 0.70390  0.88270  0.09676  Biso   1.000  C
  H22      1.0000 0.73350  0.87440  0.08690  Biso   1.000  H
  C33      1.0000 0.61760  0.90780  0.12322  Biso   1.000  C
  H23      1.0000 0.58750  0.91740  0.13240  Biso   1.000  H
  C34      1.0000 0.65820  0.92310  0.13937  Biso   1.000  C
  H24      1.0000 0.65590  0.94240  0.15940  Biso   1.000  H
  C35      1.0000 0.70240  0.91040  0.12642  Biso   1.000  C
  C36      1.0000 0.74680  0.92460  0.14329  Biso   1.000  C
  N1       1.0000 0.94380  0.49090  0.42110  Biso   1.000  N
  N2       1.0000 0.93300  0.08260  0.53315  Biso   1.000  N
  N3       1.0000 0.79630  0.06870  0.34152  Biso   1.000  N
  N4       1.0000 0.90670  0.82610  0.45639  Biso   1.000  N
  N5       1.0000 0.87280  0.96840  0.43555  Biso   1.000  N
  N6       1.0000 0.87120  0.82020  0.40890  Biso   1.000  N
  N7       1.0000 0.76790  0.07420  0.27303  Biso   1.000  N
  N8       1.0000 0.96240  0.88750  0.10572  Biso   1.000  N
  N9       1.0000 0.61860  0.87970  0.09487  Biso   1.000  N
  N10      1.0000 0.82600  0.95340  0.17522  Biso   1.000  N
  N11      1.0000 0.78840  0.91230  0.12991  Biso   1.000  N
  N12      1.0000 0.74160  0.95030  0.17186  Biso   1.000  N
  Zn4      1.0000 0.74145  0.85098  0.81193  Biso   1.000  Zn
  Zn5      1.0000 0.55627  0.84499  0.07251  Biso   1.000  Zn
  Zn6      1.0000 0.52713  0.64443  0.91418  Biso   1.000  Zn
  I7       1.0000 0.49026  0.92686  0.10115  Biso   1.000  I
  I8       1.0000 0.50938  0.71807  0.96452  Biso   1.000  I
  I9       1.0000 0.69805  0.68959  0.80570  Biso   1.000  I
  I10      1.0000 0.56195  0.66367  0.06141  Biso   1.000  I
  I11      1.0000 0.57596  0.72653  0.87454  Biso   1.000  I
  I12      1.0000 0.82888  0.85455  0.82623  Biso   1.000  I
  C37      1.0000 0.57660  0.46180  0.89882  Biso   1.000  C
  H25      1.0000 0.57940  0.49350  0.88030  Biso   1.000  H
  C38      1.0000 0.59390  0.36870  0.90168  Biso   1.000  C
  H26      1.0000 0.60820  0.33690  0.88540  Biso   1.000  H
  C39      1.0000 0.55370  0.46430  0.94718  Biso   1.000  C
  H27      1.0000 0.54050  0.49850  0.96340  Biso   1.000  H
  C40      1.0000 0.56950  0.37040  0.95158  Biso   1.000  C
  H28      1.0000 0.56610  0.34010  0.97030  Biso   1.000  H
  C41      1.0000 0.59010  0.32190  0.92839  Biso   1.000  C
  C42      1.0000 0.60560  0.21950  0.93183  Biso   1.000  C
  C43      1.0000 0.55320  0.00870  0.03044  Biso   1.000  C
  H29      1.0000 0.53480  0.03660  0.04580  Biso   1.000  H
  C44      1.0000 0.56440  0.06600  0.00612  Biso   1.000  C
  H30      1.0000 0.55390  0.13130  0.00480  Biso   1.000  H
  C45      1.0000 0.59220  0.87660  0.01123  Biso   1.000  C
  H31      1.0000 0.60170  0.81070  0.01310  Biso   1.000  H
  C46      1.0000 0.60460  0.92640  0.98659  Biso   1.000  C
  H32      1.0000 0.62210  0.89490  0.97140  Biso   1.000  H
  C47      1.0000 0.59180  0.02380  0.98349  Biso   1.000  C
  C48      1.0000 0.60540  0.08010  0.95743  Biso   1.000  C
  C49      1.0000 0.68200  0.88590  0.86374  Biso   1.000  C
  H33      1.0000 0.68160  0.81700  0.86370  Biso   1.000  H
  C50      1.0000 0.66020  0.93350  0.88663  Biso   1.000  C
  H34      1.0000 0.64540  0.89810  0.90210  Biso   1.000  H
  C51      1.0000 0.70320  0.02800  0.84201  Biso   1.000  C
  H35      1.0000 0.71850  0.06210  0.82650  Biso   1.000  H
  C52      1.0000 0.68140  0.08100  0.86413  Biso   1.000  C
  H36      1.0000 0.68140  0.14990  0.86350  Biso   1.000  H
  C53      1.0000 0.65990  0.03330  0.88681  Biso   1.000  C
  C54      1.0000 0.63800  0.08500  0.91178  Biso   1.000  C
  C55      1.0000 0.76930  0.96610  0.75972  Biso   1.000  C
  H37      1.0000 0.79920  0.96850  0.76960  Biso   1.000  H
  C56      1.0000 0.76500  0.00530  0.73128  Biso   1.000  C
  H38      1.0000 0.79190  0.03400  0.72190  Biso   1.000  H
  C57      1.0000 0.68990  0.92350  0.75965  Biso   1.000  C
  H39      1.0000 0.66340  0.89510  0.76950  Biso   1.000  H
  C58      1.0000 0.68360  0.96170  0.73138  Biso   1.000  C
  H40      1.0000 0.65320  0.96010  0.72210  Biso   1.000  H
  C59      1.0000 0.72250  0.00200  0.71735  Biso   1.000  C
  C60      1.0000 0.71780  0.03660  0.68634  Biso   1.000  C
  C61      1.0000 0.54130  0.10150  0.63469  Biso   1.000  C
  H41      1.0000 0.51290  0.10360  0.64610  Biso   1.000  H
  C62      1.0000 0.58420  0.08720  0.64938  Biso   1.000  C
  H42      1.0000 0.58510  0.07830  0.67010  Biso   1.000  H
  C63      1.0000 0.57780  0.10960  0.58971  Biso   1.000  C
  H43      1.0000 0.57570  0.11630  0.56890  Biso   1.000  H
  C64      1.0000 0.62200  0.09730  0.60244  Biso   1.000  C
  H44      1.0000 0.64980  0.09640  0.59050  Biso   1.000  H
  C65      1.0000 0.62580  0.08630  0.63266  Biso   1.000  C
  C66      1.0000 0.67330  0.07330  0.64681  Biso   1.000  C
  C67      1.0000 0.83880  0.13220  0.58218  Biso   1.000  C
  H45      1.0000 0.83780  0.15190  0.56210  Biso   1.000  H
  C68      1.0000 0.79610  0.11730  0.59676  Biso   1.000  C
  H46      1.0000 0.76650  0.12560  0.58690  Biso   1.000  H
  C69      1.0000 0.88240  0.09220  0.62322  Biso   1.000  C
  H47      1.0000 0.91250  0.08260  0.63240  Biso   1.000  H
  C70      1.0000 0.84180  0.07690  0.63937  Biso   1.000  C
  H48      1.0000 0.84410  0.05760  0.65940  Biso   1.000  H
  C71      1.0000 0.79760  0.08960  0.62642  Biso   1.000  C
  C72      1.0000 0.75320  0.07540  0.64329  Biso   1.000  C
  N13      1.0000 0.55620  0.50910  0.92110  Biso   1.000  N
  N14      1.0000 0.56700  0.91740  0.03315  Biso   1.000  N
  N15      1.0000 0.70370  0.93130  0.84152  Biso   1.000  N
  N16      1.0000 0.59330  0.17390  0.95639  Biso   1.000  N
  N17      1.0000 0.62720  0.03160  0.93555  Biso   1.000  N
  N18      1.0000 0.62880  0.17980  0.90890  Biso   1.000  N
  N19      1.0000 0.73210  0.92580  0.77303  Biso   1.000  N
  N20      1.0000 0.53760  0.11250  0.60572  Biso   1.000  N
  N21      1.0000 0.88140  0.12030  0.59487  Biso   1.000  N
  N22      1.0000 0.67400  0.04660  0.67522  Biso   1.000  N
  N23      1.0000 0.71160  0.08770  0.62991  Biso   1.000  N
  N24      1.0000 0.75840  0.04970  0.67186  Biso   1.000  N
  Zn7      1.0000 0.24145  0.64902  0.18807  Biso   1.000  Zn
  Zn8      1.0000 0.05627  0.65501  0.92749  Biso   1.000  Zn
  Zn9      1.0000 0.02713  0.85557  0.08582  Biso   1.000  Zn
  I13      1.0000 0.99026  0.57314  0.89885  Biso   1.000  I
  I14      1.0000 0.00938  0.78193  0.03548  Biso   1.000  I
  I15      1.0000 0.19805  0.81041  0.19430  Biso   1.000  I
  I16      1.0000 0.06195  0.83633  0.93859  Biso   1.000  I
  I17      1.0000 0.07596  0.77347  0.12546  Biso   1.000  I
  I18      1.0000 0.32888  0.64545  0.17377  Biso   1.000  I
  C73      1.0000 0.07660  0.03820  0.10118  Biso   1.000  C
  H49      1.0000 0.07940  0.00650  0.11970  Biso   1.000  H
  C74      1.0000 0.09390  0.13130  0.09832  Biso   1.000  C
  H50      1.0000 0.10820  0.16310  0.11460  Biso   1.000  H
  C75      1.0000 0.05370  0.03570  0.05282  Biso   1.000  C
  H51      1.0000 0.04050  0.00150  0.03660  Biso   1.000  H
  C76      1.0000 0.06950  0.12960  0.04842  Biso   1.000  C
  H52      1.0000 0.06610  0.15990  0.02970  Biso   1.000  H
  C77      1.0000 0.09010  0.17810  0.07161  Biso   1.000  C
  C78      1.0000 0.10560  0.28050  0.06817  Biso   1.000  C
  C79      1.0000 0.05320  0.49130  0.96956  Biso   1.000  C
  H53      1.0000 0.03480  0.46340  0.95420  Biso   1.000  H
  C80      1.0000 0.06440  0.43400  0.99388  Biso   1.000  C
  H54      1.0000 0.05390  0.36870  0.99520  Biso   1.000  H
  C81      1.0000 0.09220  0.62340  0.98877  Biso   1.000  C
  H55      1.0000 0.10170  0.68930  0.98690  Biso   1.000  H
  C82      1.0000 0.10460  0.57360  0.01341  Biso   1.000  C
  H56      1.0000 0.12210  0.60510  0.02860  Biso   1.000  H
  C83      1.0000 0.09180  0.47620  0.01651  Biso   1.000  C
  C84      1.0000 0.10540  0.41990  0.04257  Biso   1.000  C
  C85      1.0000 0.18200  0.61410  0.13626  Biso   1.000  C
  H57      1.0000 0.18160  0.68300  0.13630  Biso   1.000  H
  C86      1.0000 0.16020  0.56650  0.11337  Biso   1.000  C
  H58      1.0000 0.14540  0.60190  0.09790  Biso   1.000  H
  C87      1.0000 0.20320  0.47200  0.15799  Biso   1.000  C
  H59      1.0000 0.21850  0.43790  0.17350  Biso   1.000  H
  C88      1.0000 0.18140  0.41900  0.13587  Biso   1.000  C
  H60      1.0000 0.18140  0.35010  0.13650  Biso   1.000  H
  C89      1.0000 0.15990  0.46670  0.11319  Biso   1.000  C
  C90      1.0000 0.13800  0.41500  0.08822  Biso   1.000  C
  C91      1.0000 0.26930  0.53390  0.24028  Biso   1.000  C
  H61      1.0000 0.29920  0.53150  0.23040  Biso   1.000  H
  C92      1.0000 0.26500  0.49470  0.26872  Biso   1.000  C
  H62      1.0000 0.29190  0.46600  0.27810  Biso   1.000  H
  C93      1.0000 0.18990  0.57650  0.24035  Biso   1.000  C
  H63      1.0000 0.16340  0.60490  0.23050  Biso   1.000  H
  C94      1.0000 0.18360  0.53830  0.26862  Biso   1.000  C
  H64      1.0000 0.15320  0.53990  0.27790  Biso   1.000  H
  C95      1.0000 0.22250  0.49800  0.28265  Biso   1.000  C
  C96      1.0000 0.21780  0.46340  0.31366  Biso   1.000  C
  C97      1.0000 0.04130  0.39850  0.36531  Biso   1.000  C
  H65      1.0000 0.01290  0.39640  0.35390  Biso   1.000  H
  C98      1.0000 0.08420  0.41280  0.35062  Biso   1.000  C
  H66      1.0000 0.08510  0.42170  0.32990  Biso   1.000  H
  C99      1.0000 0.07780  0.39040  0.41029  Biso   1.000  C
  H67      1.0000 0.07570  0.38370  0.43110  Biso   1.000  H
  C100     1.0000 0.12200  0.40270  0.39756  Biso   1.000  C
  H68      1.0000 0.14980  0.40360  0.40950  Biso   1.000  H
  C101     1.0000 0.12580  0.41370  0.36734  Biso   1.000  C
  C102     1.0000 0.17330  0.42670  0.35319  Biso   1.000  C
  C103     1.0000 0.33880  0.36780  0.41782  Biso   1.000  C
  H69      1.0000 0.33780  0.34810  0.43790  Biso   1.000  H
  C104     1.0000 0.29610  0.38270  0.40324  Biso   1.000  C
  H70      1.0000 0.26650  0.37440  0.41310  Biso   1.000  H
  C105     1.0000 0.38240  0.40780  0.37678  Biso   1.000  C
  H71      1.0000 0.41250  0.41740  0.36760  Biso   1.000  H
  C106     1.0000 0.34180  0.42310  0.36063  Biso   1.000  C
  H72      1.0000 0.34410  0.44240  0.34060  Biso   1.000  H
  C107     1.0000 0.29760  0.41040  0.37358  Biso   1.000  C
  C108     1.0000 0.25320  0.42460  0.35671  Biso   1.000  C
  N25      1.0000 0.05620  0.99090  0.07890  Biso   1.000  N
  N26      1.0000 0.06700  0.58260  0.96685  Biso   1.000  N
  N27      1.0000 0.20370  0.56870  0.15848  Biso   1.000  N
  N28      1.0000 0.09330  0.32610  0.04361  Biso   1.000  N
  N29      1.0000 0.12720  0.46840  0.06445  Biso   1.000  N
  N30      1.0000 0.12880  0.32020  0.09110  Biso   1.000  N
  N31      1.0000 0.23210  0.57420  0.22697  Biso   1.000  N
  N32      1.0000 0.03760  0.38750  0.39428  Biso   1.000  N
  N33      1.0000 0.38140  0.37970  0.40513  Biso   1.000  N
  N34      1.0000 0.17400  0.45340  0.32478  Biso   1.000  N
  N35      1.0000 0.21160  0.41230  0.37009  Biso   1.000  N
  N36      1.0000 0.25840  0.45030  0.32814  Biso   1.000  N
  Zn10     1.0000 0.25855  0.35098  0.68807  Biso   1.000  Zn
  Zn11     1.0000 0.44373  0.34499  0.42749  Biso   1.000  Zn
  Zn12     1.0000 0.47287  0.14443  0.58582  Biso   1.000  Zn
  I19      1.0000 0.50974  0.42686  0.39885  Biso   1.000  I
  I20      1.0000 0.49062  0.21807  0.53548  Biso   1.000  I
  I21      1.0000 0.30195  0.18959  0.69430  Biso   1.000  I
  I22      1.0000 0.43805  0.16367  0.43859  Biso   1.000  I
  I23      1.0000 0.42404  0.22653  0.62546  Biso   1.000  I
  I24      1.0000 0.17112  0.35455  0.67377  Biso   1.000  I
  C109     1.0000 0.42340  0.96180  0.60118  Biso   1.000  C
  H73      1.0000 0.42060  0.99350  0.61970  Biso   1.000  H
  C110     1.0000 0.40610  0.86870  0.59832  Biso   1.000  C
  H74      1.0000 0.39180  0.83690  0.61460  Biso   1.000  H
  C111     1.0000 0.44630  0.96430  0.55282  Biso   1.000  C
  H75      1.0000 0.45950  0.99850  0.53660  Biso   1.000  H
  C112     1.0000 0.43050  0.87040  0.54842  Biso   1.000  C
  H76      1.0000 0.43390  0.84010  0.52970  Biso   1.000  H
  C113     1.0000 0.40990  0.82190  0.57161  Biso   1.000  C
  C114     1.0000 0.39440  0.71950  0.56817  Biso   1.000  C
  C115     1.0000 0.44680  0.50870  0.46956  Biso   1.000  C
  H77      1.0000 0.46520  0.53660  0.45420  Biso   1.000  H
  C116     1.0000 0.43560  0.56600  0.49388  Biso   1.000  C
  H78      1.0000 0.44610  0.63130  0.49520  Biso   1.000  H
  C117     1.0000 0.40780  0.37660  0.48877  Biso   1.000  C
  H79      1.0000 0.39830  0.31070  0.48690  Biso   1.000  H
  C118     1.0000 0.39540  0.42640  0.51341  Biso   1.000  C
  H80      1.0000 0.37790  0.39490  0.52860  Biso   1.000  H
  C119     1.0000 0.40820  0.52380  0.51651  Biso   1.000  C
  C120     1.0000 0.39460  0.58010  0.54257  Biso   1.000  C
  C121     1.0000 0.31800  0.38590  0.63626  Biso   1.000  C
  H81      1.0000 0.31840  0.31700  0.63630  Biso   1.000  H
  C122     1.0000 0.33980  0.43350  0.61337  Biso   1.000  C
  H82      1.0000 0.35460  0.39810  0.59790  Biso   1.000  H
  C123     1.0000 0.29680  0.52800  0.65799  Biso   1.000  C
  H83      1.0000 0.28150  0.56210  0.67350  Biso   1.000  H
  C124     1.0000 0.31860  0.58100  0.63587  Biso   1.000  C
  H84      1.0000 0.31860  0.64990  0.63650  Biso   1.000  H
  C125     1.0000 0.34010  0.53330  0.61319  Biso   1.000  C
  C126     1.0000 0.36200  0.58500  0.58822  Biso   1.000  C
  C127     1.0000 0.23070  0.46610  0.74028  Biso   1.000  C
  H85      1.0000 0.20080  0.46850  0.73040  Biso   1.000  H
  C128     1.0000 0.23500  0.50530  0.76872  Biso   1.000  C
  H86      1.0000 0.20810  0.53400  0.77810  Biso   1.000  H
  C129     1.0000 0.31010  0.42350  0.74035  Biso   1.000  C
  H87      1.0000 0.33660  0.39510  0.73050  Biso   1.000  H
  C130     1.0000 0.31640  0.46170  0.76862  Biso   1.000  C
  H88      1.0000 0.34680  0.46010  0.77790  Biso   1.000  H
  C131     1.0000 0.27750  0.50200  0.78265  Biso   1.000  C
  C132     1.0000 0.28220  0.53660  0.81366  Biso   1.000  C
  C133     1.0000 0.45870  0.60150  0.86531  Biso   1.000  C
  H89      1.0000 0.48710  0.60360  0.85390  Biso   1.000  H
  C134     1.0000 0.41580  0.58720  0.85062  Biso   1.000  C
  H90      1.0000 0.41490  0.57830  0.82990  Biso   1.000  H
  C135     1.0000 0.42220  0.60960  0.91029  Biso   1.000  C
  H91      1.0000 0.42430  0.61630  0.93110  Biso   1.000  H
  C136     1.0000 0.37800  0.59730  0.89756  Biso   1.000  C
  H92      1.0000 0.35020  0.59640  0.90950  Biso   1.000  H
  C137     1.0000 0.37420  0.58630  0.86734  Biso   1.000  C
  C138     1.0000 0.32670  0.57330  0.85319  Biso   1.000  C
  C139     1.0000 0.16120  0.63220  0.91782  Biso   1.000  C
  H93      1.0000 0.16220  0.65190  0.93790  Biso   1.000  H
  C140     1.0000 0.20390  0.61730  0.90324  Biso   1.000  C
  H94      1.0000 0.23350  0.62560  0.91310  Biso   1.000  H
  C141     1.0000 0.11760  0.59220  0.87678  Biso   1.000  C
  H95      1.0000 0.08750  0.58260  0.86760  Biso   1.000  H
  C142     1.0000 0.15820  0.57690  0.86063  Biso   1.000  C
  H96      1.0000 0.15590  0.55760  0.84060  Biso   1.000  H
  C143     1.0000 0.20240  0.58960  0.87358  Biso   1.000  C
  C144     1.0000 0.24680  0.57540  0.85671  Biso   1.000  C
  N37      1.0000 0.44380  0.00910  0.57890  Biso   1.000  N
  N38      1.0000 0.43300  0.41740  0.46685  Biso   1.000  N
  N39      1.0000 0.29630  0.43130  0.65848  Biso   1.000  N
  N40      1.0000 0.40670  0.67390  0.54361  Biso   1.000  N
  N41      1.0000 0.37280  0.53160  0.56445  Biso   1.000  N
  N42      1.0000 0.37120  0.67980  0.59110  Biso   1.000  N
  N43      1.0000 0.26790  0.42580  0.72697  Biso   1.000  N
  N44      1.0000 0.46240  0.61250  0.89428  Biso   1.000  N
  N45      1.0000 0.11860  0.62030  0.90513  Biso   1.000  N
  N46      1.0000 0.32600  0.54660  0.82478  Biso   1.000  N
  N47      1.0000 0.28840  0.58770  0.87009  Biso   1.000  N
  N48      1.0000 0.24160  0.54970  0.82814  Biso   1.000  N
  Zn13     1.0000 0.24145  0.85098  0.68807  Biso   1.000  Zn
  Zn14     1.0000 0.05627  0.84499  0.42749  Biso   1.000  Zn
  Zn15     1.0000 0.02713  0.64443  0.58582  Biso   1.000  Zn
  I25      1.0000 0.99026  0.92686  0.39885  Biso   1.000  I
  I26      1.0000 0.00938  0.71807  0.53548  Biso   1.000  I
  I27      1.0000 0.19805  0.68959  0.69430  Biso   1.000  I
  I28      1.0000 0.06195  0.66367  0.43859  Biso   1.000  I
  I29      1.0000 0.07596  0.72653  0.62546  Biso   1.000  I
  I30      1.0000 0.32888  0.85455  0.67377  Biso   1.000  I
  C145     1.0000 0.07660  0.46180  0.60118  Biso   1.000  C
  H97      1.0000 0.07940  0.49350  0.61970  Biso   1.000  H
  C146     1.0000 0.09390  0.36870  0.59832  Biso   1.000  C
  H98      1.0000 0.10820  0.33690  0.61460  Biso   1.000  H
  C147     1.0000 0.05370  0.46430  0.55282  Biso   1.000  C
  H99      1.0000 0.04050  0.49850  0.53660  Biso   1.000  H
  C148     1.0000 0.06950  0.37040  0.54842  Biso   1.000  C
  H100     1.0000 0.06610  0.34010  0.52970  Biso   1.000  H
  C149     1.0000 0.09010  0.32190  0.57161  Biso   1.000  C
  C150     1.0000 0.10560  0.21950  0.56817  Biso   1.000  C
  C151     1.0000 0.05320  0.00870  0.46956  Biso   1.000  C
  H101     1.0000 0.03480  0.03660  0.45420  Biso   1.000  H
  C152     1.0000 0.06440  0.06600  0.49388  Biso   1.000  C
  H102     1.0000 0.05390  0.13130  0.49520  Biso   1.000  H
  C153     1.0000 0.09220  0.87660  0.48877  Biso   1.000  C
  H103     1.0000 0.10170  0.81070  0.48690  Biso   1.000  H
  C154     1.0000 0.10460  0.92640  0.51341  Biso   1.000  C
  H104     1.0000 0.12210  0.89490  0.52860  Biso   1.000  H
  C155     1.0000 0.09180  0.02380  0.51651  Biso   1.000  C
  C156     1.0000 0.10540  0.08010  0.54257  Biso   1.000  C
  C157     1.0000 0.18200  0.88590  0.63626  Biso   1.000  C
  H105     1.0000 0.18160  0.81700  0.63630  Biso   1.000  H
  C158     1.0000 0.16020  0.93350  0.61337  Biso   1.000  C
  H106     1.0000 0.14540  0.89810  0.59790  Biso   1.000  H
  C159     1.0000 0.20320  0.02800  0.65799  Biso   1.000  C
  H107     1.0000 0.21850  0.06210  0.67350  Biso   1.000  H
  C160     1.0000 0.18140  0.08100  0.63587  Biso   1.000  C
  H108     1.0000 0.18140  0.14990  0.63650  Biso   1.000  H
  C161     1.0000 0.15990  0.03330  0.61319  Biso   1.000  C
  C162     1.0000 0.13800  0.08500  0.58822  Biso   1.000  C
  C163     1.0000 0.26930  0.96610  0.74028  Biso   1.000  C
  H109     1.0000 0.29920  0.96850  0.73040  Biso   1.000  H
  C164     1.0000 0.26500  0.00530  0.76872  Biso   1.000  C
  H110     1.0000 0.29190  0.03400  0.77810  Biso   1.000  H
  C165     1.0000 0.18990  0.92350  0.74035  Biso   1.000  C
  H111     1.0000 0.16340  0.89510  0.73050  Biso   1.000  H
  C166     1.0000 0.18360  0.96170  0.76862  Biso   1.000  C
  H112     1.0000 0.15320  0.96010  0.77790  Biso   1.000  H
  C167     1.0000 0.22250  0.00200  0.78265  Biso   1.000  C
  C168     1.0000 0.21780  0.03660  0.81366  Biso   1.000  C
  C169     1.0000 0.04130  0.10150  0.86531  Biso   1.000  C
  H113     1.0000 0.01290  0.10360  0.85390  Biso   1.000  H
  C170     1.0000 0.08420  0.08720  0.85062  Biso   1.000  C
  H114     1.0000 0.08510  0.07830  0.82990  Biso   1.000  H
  C171     1.0000 0.07780  0.10960  0.91029  Biso   1.000  C
  H115     1.0000 0.07570  0.11630  0.93110  Biso   1.000  H
  C172     1.0000 0.12200  0.09730  0.89756  Biso   1.000  C
  H116     1.0000 0.14980  0.09640  0.90950  Biso   1.000  H
  C173     1.0000 0.12580  0.08630  0.86734  Biso   1.000  C
  C174     1.0000 0.17330  0.07330  0.85319  Biso   1.000  C
  C175     1.0000 0.33880  0.13220  0.91782  Biso   1.000  C
  H117     1.0000 0.33780  0.15190  0.93790  Biso   1.000  H
  C176     1.0000 0.29610  0.11730  0.90324  Biso   1.000  C
  H118     1.0000 0.26650  0.12560  0.91310  Biso   1.000  H
  C177     1.0000 0.38240  0.09220  0.87678  Biso   1.000  C
  H119     1.0000 0.41250  0.08260  0.86760  Biso   1.000  H
  C178     1.0000 0.34180  0.07690  0.86063  Biso   1.000  C
  H120     1.0000 0.34410  0.05760  0.84060  Biso   1.000  H
  C179     1.0000 0.29760  0.08960  0.87358  Biso   1.000  C
  C180     1.0000 0.25320  0.07540  0.85671  Biso   1.000  C
  N49      1.0000 0.05620  0.50910  0.57890  Biso   1.000  N
  N50      1.0000 0.06700  0.91740  0.46685  Biso   1.000  N
  N51      1.0000 0.20370  0.93130  0.65848  Biso   1.000  N
  N52      1.0000 0.09330  0.17390  0.54361  Biso   1.000  N
  N53      1.0000 0.12720  0.03160  0.56445  Biso   1.000  N
  N54      1.0000 0.12880  0.17980  0.59110  Biso   1.000  N
  N55      1.0000 0.23210  0.92580  0.72697  Biso   1.000  N
  N56      1.0000 0.03760  0.11250  0.89428  Biso   1.000  N
  N57      1.0000 0.38140  0.12030  0.90513  Biso   1.000  N
  N58      1.0000 0.17400  0.04660  0.82478  Biso   1.000  N
  N59      1.0000 0.21160  0.08770  0.87009  Biso   1.000  N
  N60      1.0000 0.25840  0.04970  0.82814  Biso   1.000  N
  Zn16     1.0000 0.25855  0.14902  0.18807  Biso   1.000  Zn
  Zn17     1.0000 0.44373  0.15501  0.92749  Biso   1.000  Zn
  Zn18     1.0000 0.47287  0.35557  0.08582  Biso   1.000  Zn
  I31      1.0000 0.50974  0.07314  0.89885  Biso   1.000  I
  I32      1.0000 0.49062  0.28193  0.03548  Biso   1.000  I
  I33      1.0000 0.30195  0.31041  0.19430  Biso   1.000  I
  I34      1.0000 0.43805  0.33633  0.93859  Biso   1.000  I
  I35      1.0000 0.42404  0.27347  0.12546  Biso   1.000  I
  I36      1.0000 0.17112  0.14545  0.17377  Biso   1.000  I
  C181     1.0000 0.42340  0.53820  0.10118  Biso   1.000  C
  H121     1.0000 0.42060  0.50650  0.11970  Biso   1.000  H
  C182     1.0000 0.40610  0.63130  0.09832  Biso   1.000  C
  H122     1.0000 0.39180  0.66310  0.11460  Biso   1.000  H
  C183     1.0000 0.44630  0.53570  0.05282  Biso   1.000  C
  H123     1.0000 0.45950  0.50150  0.03660  Biso   1.000  H
  C184     1.0000 0.43050  0.62960  0.04842  Biso   1.000  C
  H124     1.0000 0.43390  0.65990  0.02970  Biso   1.000  H
  C185     1.0000 0.40990  0.67810  0.07161  Biso   1.000  C
  C186     1.0000 0.39440  0.78050  0.06817  Biso   1.000  C
  C187     1.0000 0.44680  0.99130  0.96956  Biso   1.000  C
  H125     1.0000 0.46520  0.96340  0.95420  Biso   1.000  H
  C188     1.0000 0.43560  0.93400  0.99388  Biso   1.000  C
  H126     1.0000 0.44610  0.86870  0.99520  Biso   1.000  H
  C189     1.0000 0.40780  0.12340  0.98877  Biso   1.000  C
  H127     1.0000 0.39830  0.18930  0.98690  Biso   1.000  H
  C190     1.0000 0.39540  0.07360  0.01341  Biso   1.000  C
  H128     1.0000 0.37790  0.10510  0.02860  Biso   1.000  H
  C191     1.0000 0.40820  0.97620  0.01651  Biso   1.000  C
  C192     1.0000 0.39460  0.91990  0.04257  Biso   1.000  C
  C193     1.0000 0.31800  0.11410  0.13626  Biso   1.000  C
  H129     1.0000 0.31840  0.18300  0.13630  Biso   1.000  H
  C194     1.0000 0.33980  0.06650  0.11337  Biso   1.000  C
  H130     1.0000 0.35460  0.10190  0.09790  Biso   1.000  H
  C195     1.0000 0.29680  0.97200  0.15799  Biso   1.000  C
  H131     1.0000 0.28150  0.93790  0.17350  Biso   1.000  H
  C196     1.0000 0.31860  0.91900  0.13587  Biso   1.000  C
  H132     1.0000 0.31860  0.85010  0.13650  Biso   1.000  H
  C197     1.0000 0.34010  0.96670  0.11319  Biso   1.000  C
  C198     1.0000 0.36200  0.91500  0.08822  Biso   1.000  C
  C199     1.0000 0.23070  0.03390  0.24028  Biso   1.000  C
  H133     1.0000 0.20080  0.03150  0.23040  Biso   1.000  H
  C200     1.0000 0.23500  0.99470  0.26872  Biso   1.000  C
  H134     1.0000 0.20810  0.96600  0.27810  Biso   1.000  H
  C201     1.0000 0.31010  0.07650  0.24035  Biso   1.000  C
  H135     1.0000 0.33660  0.10490  0.23050  Biso   1.000  H
  C202     1.0000 0.31640  0.03830  0.26862  Biso   1.000  C
  H136     1.0000 0.34680  0.03990  0.27790  Biso   1.000  H
  C203     1.0000 0.27750  0.99800  0.28265  Biso   1.000  C
  C204     1.0000 0.28220  0.96340  0.31366  Biso   1.000  C
  C205     1.0000 0.45870  0.89850  0.36531  Biso   1.000  C
  H137     1.0000 0.48710  0.89640  0.35390  Biso   1.000  H
  C206     1.0000 0.41580  0.91280  0.35062  Biso   1.000  C
  H138     1.0000 0.41490  0.92170  0.32990  Biso   1.000  H
  C207     1.0000 0.42220  0.89040  0.41029  Biso   1.000  C
  H139     1.0000 0.42430  0.88370  0.43110  Biso   1.000  H
  C208     1.0000 0.37800  0.90270  0.39756  Biso   1.000  C
  H140     1.0000 0.35020  0.90360  0.40950  Biso   1.000  H
  C209     1.0000 0.37420  0.91370  0.36734  Biso   1.000  C
  C210     1.0000 0.32670  0.92670  0.35319  Biso   1.000  C
  C211     1.0000 0.16120  0.86780  0.41782  Biso   1.000  C
  H141     1.0000 0.16220  0.84810  0.43790  Biso   1.000  H
  C212     1.0000 0.20390  0.88270  0.40324  Biso   1.000  C
  H142     1.0000 0.23350  0.87440  0.41310  Biso   1.000  H
  C213     1.0000 0.11760  0.90780  0.37678  Biso   1.000  C
  H143     1.0000 0.08750  0.91740  0.36760  Biso   1.000  H
  C214     1.0000 0.15820  0.92310  0.36063  Biso   1.000  C
  H144     1.0000 0.15590  0.94240  0.34060  Biso   1.000  H
  C215     1.0000 0.20240  0.91040  0.37358  Biso   1.000  C
  C216     1.0000 0.24680  0.92460  0.35671  Biso   1.000  C
  N61      1.0000 0.44380  0.49090  0.07890  Biso   1.000  N
  N62      1.0000 0.43300  0.08260  0.96685  Biso   1.000  N
  N63      1.0000 0.29630  0.06870  0.15848  Biso   1.000  N
  N64      1.0000 0.40670  0.82610  0.04361  Biso   1.000  N
  N65      1.0000 0.37280  0.96840  0.06445  Biso   1.000  N
  N66      1.0000 0.37120  0.82020  0.09110  Biso   1.000  N
  N67      1.0000 0.26790  0.07420  0.22697  Biso   1.000  N
  N68      1.0000 0.46240  0.88750  0.39428  Biso   1.000  N
  N69      1.0000 0.11860  0.87970  0.40513  Biso   1.000  N
  N70      1.0000 0.32600  0.95340  0.32478  Biso   1.000  N
  N71      1.0000 0.28840  0.91230  0.37009  Biso   1.000  N
  N72      1.0000 0.24160  0.95030  0.32814  Biso   1.000  N
  Zn19     1.0000 0.75855  0.35098  0.81193  Biso   1.000  Zn
  Zn20     1.0000 0.94373  0.34499  0.07251  Biso   1.000  Zn
  Zn21     1.0000 0.97287  0.14443  0.91418  Biso   1.000  Zn
  I37      1.0000 0.00974  0.42686  0.10115  Biso   1.000  I
  I38      1.0000 0.99062  0.21807  0.96452  Biso   1.000  I
  I39      1.0000 0.80195  0.18959  0.80570  Biso   1.000  I
  I40      1.0000 0.93805  0.16367  0.06141  Biso   1.000  I
  I41      1.0000 0.92404  0.22653  0.87454  Biso   1.000  I
  I42      1.0000 0.67112  0.35455  0.82623  Biso   1.000  I
  C217     1.0000 0.92340  0.96180  0.89882  Biso   1.000  C
  H145     1.0000 0.92060  0.99350  0.88030  Biso   1.000  H
  C218     1.0000 0.90610  0.86870  0.90168  Biso   1.000  C
  H146     1.0000 0.89180  0.83690  0.88540  Biso   1.000  H
  C219     1.0000 0.94630  0.96430  0.94718  Biso   1.000  C
  H147     1.0000 0.95950  0.99850  0.96340  Biso   1.000  H
  C220     1.0000 0.93050  0.87040  0.95158  Biso   1.000  C
  H148     1.0000 0.93390  0.84010  0.97030  Biso   1.000  H
  C221     1.0000 0.90990  0.82190  0.92839  Biso   1.000  C
  C222     1.0000 0.89440  0.71950  0.93183  Biso   1.000  C
  C223     1.0000 0.94680  0.50870  0.03044  Biso   1.000  C
  H149     1.0000 0.96520  0.53660  0.04580  Biso   1.000  H
  C224     1.0000 0.93560  0.56600  0.00612  Biso   1.000  C
  H150     1.0000 0.94610  0.63130  0.00480  Biso   1.000  H
  C225     1.0000 0.90780  0.37660  0.01123  Biso   1.000  C
  H151     1.0000 0.89830  0.31070  0.01310  Biso   1.000  H
  C226     1.0000 0.89540  0.42640  0.98659  Biso   1.000  C
  H152     1.0000 0.87790  0.39490  0.97140  Biso   1.000  H
  C227     1.0000 0.90820  0.52380  0.98349  Biso   1.000  C
  C228     1.0000 0.89460  0.58010  0.95743  Biso   1.000  C
  C229     1.0000 0.81800  0.38590  0.86374  Biso   1.000  C
  H153     1.0000 0.81840  0.31700  0.86370  Biso   1.000  H
  C230     1.0000 0.83980  0.43350  0.88663  Biso   1.000  C
  H154     1.0000 0.85460  0.39810  0.90210  Biso   1.000  H
  C231     1.0000 0.79680  0.52800  0.84201  Biso   1.000  C
  H155     1.0000 0.78150  0.56210  0.82650  Biso   1.000  H
  C232     1.0000 0.81860  0.58100  0.86413  Biso   1.000  C
  H156     1.0000 0.81860  0.64990  0.86350  Biso   1.000  H
  C233     1.0000 0.84010  0.53330  0.88681  Biso   1.000  C
  C234     1.0000 0.86200  0.58500  0.91178  Biso   1.000  C
  C235     1.0000 0.73070  0.46610  0.75972  Biso   1.000  C
  H157     1.0000 0.70080  0.46850  0.76960  Biso   1.000  H
  C236     1.0000 0.73500  0.50530  0.73128  Biso   1.000  C
  H158     1.0000 0.70810  0.53400  0.72190  Biso   1.000  H
  C237     1.0000 0.81010  0.42350  0.75965  Biso   1.000  C
  H159     1.0000 0.83660  0.39510  0.76950  Biso   1.000  H
  C238     1.0000 0.81640  0.46170  0.73138  Biso   1.000  C
  H160     1.0000 0.84680  0.46010  0.72210  Biso   1.000  H
  C239     1.0000 0.77750  0.50200  0.71735  Biso   1.000  C
  C240     1.0000 0.78220  0.53660  0.68634  Biso   1.000  C
  C241     1.0000 0.95870  0.60150  0.63469  Biso   1.000  C
  H161     1.0000 0.98710  0.60360  0.64610  Biso   1.000  H
  C242     1.0000 0.91580  0.58720  0.64938  Biso   1.000  C
  H162     1.0000 0.91490  0.57830  0.67010  Biso   1.000  H
  C243     1.0000 0.92220  0.60960  0.58971  Biso   1.000  C
  H163     1.0000 0.92430  0.61630  0.56890  Biso   1.000  H
  C244     1.0000 0.87800  0.59730  0.60244  Biso   1.000  C
  H164     1.0000 0.85020  0.59640  0.59050  Biso   1.000  H
  C245     1.0000 0.87420  0.58630  0.63266  Biso   1.000  C
  C246     1.0000 0.82670  0.57330  0.64681  Biso   1.000  C
  C247     1.0000 0.66120  0.63220  0.58218  Biso   1.000  C
  H165     1.0000 0.66220  0.65190  0.56210  Biso   1.000  H
  C248     1.0000 0.70390  0.61730  0.59676  Biso   1.000  C
  H166     1.0000 0.73350  0.62560  0.58690  Biso   1.000  H
  C249     1.0000 0.61760  0.59220  0.62322  Biso   1.000  C
  H167     1.0000 0.58750  0.58260  0.63240  Biso   1.000  H
  C250     1.0000 0.65820  0.57690  0.63937  Biso   1.000  C
  H168     1.0000 0.65590  0.55760  0.65940  Biso   1.000  H
  C251     1.0000 0.70240  0.58960  0.62642  Biso   1.000  C
  C252     1.0000 0.74680  0.57540  0.64329  Biso   1.000  C
  N73      1.0000 0.94380  0.00910  0.92110  Biso   1.000  N
  N74      1.0000 0.93300  0.41740  0.03315  Biso   1.000  N
  N75      1.0000 0.79630  0.43130  0.84152  Biso   1.000  N
  N76      1.0000 0.90670  0.67390  0.95639  Biso   1.000  N
  N77      1.0000 0.87280  0.53160  0.93555  Biso   1.000  N
  N78      1.0000 0.87120  0.67980  0.90890  Biso   1.000  N
  N79      1.0000 0.76790  0.42580  0.77303  Biso   1.000  N
  N80      1.0000 0.96240  0.61250  0.60572  Biso   1.000  N
  N81      1.0000 0.61860  0.62030  0.59487  Biso   1.000  N
  N82      1.0000 0.82600  0.54660  0.67522  Biso   1.000  N
  N83      1.0000 0.78840  0.58770  0.62991  Biso   1.000  N
  N84      1.0000 0.74160  0.54970  0.67186  Biso   1.000  N
  Zn22     1.0000 0.74145  0.64902  0.31193  Biso   1.000  Zn
  Zn23     1.0000 0.55627  0.65501  0.57251  Biso   1.000  Zn
  Zn24     1.0000 0.52713  0.85557  0.41418  Biso   1.000  Zn
  I43      1.0000 0.49026  0.57314  0.60115  Biso   1.000  I
  I44      1.0000 0.50938  0.78193  0.46452  Biso   1.000  I
  I45      1.0000 0.69805  0.81041  0.30570  Biso   1.000  I
  I46      1.0000 0.56195  0.83633  0.56141  Biso   1.000  I
  I47      1.0000 0.57596  0.77347  0.37454  Biso   1.000  I
  I48      1.0000 0.82888  0.64545  0.32623  Biso   1.000  I
  C253     1.0000 0.57660  0.03820  0.39882  Biso   1.000  C
  H169     1.0000 0.57940  0.00650  0.38030  Biso   1.000  H
  C254     1.0000 0.59390  0.13130  0.40168  Biso   1.000  C
  H170     1.0000 0.60820  0.16310  0.38540  Biso   1.000  H
  C255     1.0000 0.55370  0.03570  0.44718  Biso   1.000  C
  H171     1.0000 0.54050  0.00150  0.46340  Biso   1.000  H
  C256     1.0000 0.56950  0.12960  0.45158  Biso   1.000  C
  H172     1.0000 0.56610  0.15990  0.47030  Biso   1.000  H
  C257     1.0000 0.59010  0.17810  0.42839  Biso   1.000  C
  C258     1.0000 0.60560  0.28050  0.43183  Biso   1.000  C
  C259     1.0000 0.55320  0.49130  0.53044  Biso   1.000  C
  H173     1.0000 0.53480  0.46340  0.54580  Biso   1.000  H
  C260     1.0000 0.56440  0.43400  0.50612  Biso   1.000  C
  H174     1.0000 0.55390  0.36870  0.50480  Biso   1.000  H
  C261     1.0000 0.59220  0.62340  0.51123  Biso   1.000  C
  H175     1.0000 0.60170  0.68930  0.51310  Biso   1.000  H
  C262     1.0000 0.60460  0.57360  0.48659  Biso   1.000  C
  H176     1.0000 0.62210  0.60510  0.47140  Biso   1.000  H
  C263     1.0000 0.59180  0.47620  0.48349  Biso   1.000  C
  C264     1.0000 0.60540  0.41990  0.45743  Biso   1.000  C
  C265     1.0000 0.68200  0.61410  0.36374  Biso   1.000  C
  H177     1.0000 0.68160  0.68300  0.36370  Biso   1.000  H
  C266     1.0000 0.66020  0.56650  0.38663  Biso   1.000  C
  H178     1.0000 0.64540  0.60190  0.40210  Biso   1.000  H
  C267     1.0000 0.70320  0.47200  0.34201  Biso   1.000  C
  H179     1.0000 0.71850  0.43790  0.32650  Biso   1.000  H
  C268     1.0000 0.68140  0.41900  0.36413  Biso   1.000  C
  H180     1.0000 0.68140  0.35010  0.36350  Biso   1.000  H
  C269     1.0000 0.65990  0.46670  0.38681  Biso   1.000  C
  C270     1.0000 0.63800  0.41500  0.41178  Biso   1.000  C
  C271     1.0000 0.76930  0.53390  0.25972  Biso   1.000  C
  H181     1.0000 0.79920  0.53150  0.26960  Biso   1.000  H
  C272     1.0000 0.76500  0.49470  0.23128  Biso   1.000  C
  H182     1.0000 0.79190  0.46600  0.22190  Biso   1.000  H
  C273     1.0000 0.68990  0.57650  0.25965  Biso   1.000  C
  H183     1.0000 0.66340  0.60490  0.26950  Biso   1.000  H
  C274     1.0000 0.68360  0.53830  0.23138  Biso   1.000  C
  H184     1.0000 0.65320  0.53990  0.22210  Biso   1.000  H
  C275     1.0000 0.72250  0.49800  0.21735  Biso   1.000  C
  C276     1.0000 0.71780  0.46340  0.18634  Biso   1.000  C
  C277     1.0000 0.54130  0.39850  0.13469  Biso   1.000  C
  H185     1.0000 0.51290  0.39640  0.14610  Biso   1.000  H
  C278     1.0000 0.58420  0.41280  0.14938  Biso   1.000  C
  H186     1.0000 0.58510  0.42170  0.17010  Biso   1.000  H
  C279     1.0000 0.57780  0.39040  0.08971  Biso   1.000  C
  H187     1.0000 0.57570  0.38370  0.06890  Biso   1.000  H
  C280     1.0000 0.62200  0.40270  0.10244  Biso   1.000  C
  H188     1.0000 0.64980  0.40360  0.09050  Biso   1.000  H
  C281     1.0000 0.62580  0.41370  0.13266  Biso   1.000  C
  C282     1.0000 0.67330  0.42670  0.14681  Biso   1.000  C
  C283     1.0000 0.83880  0.36780  0.08218  Biso   1.000  C
  H189     1.0000 0.83780  0.34810  0.06210  Biso   1.000  H
  C284     1.0000 0.79610  0.38270  0.09676  Biso   1.000  C
  H190     1.0000 0.76650  0.37440  0.08690  Biso   1.000  H
  C285     1.0000 0.88240  0.40780  0.12322  Biso   1.000  C
  H191     1.0000 0.91250  0.41740  0.13240  Biso   1.000  H
  C286     1.0000 0.84180  0.42310  0.13937  Biso   1.000  C
  H192     1.0000 0.84410  0.44240  0.15940  Biso   1.000  H
  C287     1.0000 0.79760  0.41040  0.12642  Biso   1.000  C
  C288     1.0000 0.75320  0.42460  0.14329  Biso   1.000  C
  N85      1.0000 0.55620  0.99090  0.42110  Biso   1.000  N
  N86      1.0000 0.56700  0.58260  0.53315  Biso   1.000  N
  N87      1.0000 0.70370  0.56870  0.34152  Biso   1.000  N
  N88      1.0000 0.59330  0.32610  0.45639  Biso   1.000  N
  N89      1.0000 0.62720  0.46840  0.43555  Biso   1.000  N
  N90      1.0000 0.62880  0.32020  0.40890  Biso   1.000  N
  N91      1.0000 0.73210  0.57420  0.27303  Biso   1.000  N
  N92      1.0000 0.53760  0.38750  0.10572  Biso   1.000  N
  N93      1.0000 0.88140  0.37970  0.09487  Biso   1.000  N
  N94      1.0000 0.67400  0.45340  0.17522  Biso   1.000  N
  N95      1.0000 0.71160  0.41230  0.12991  Biso   1.000  N
  N96      1.0000 0.75840  0.45030  0.17186  Biso   1.000  N
  C289     1.0000 0.25390  0.18720  0.34530  Biso   1.000  C
  C290     1.0000 0.30320  0.18820  0.34190  Biso   1.000  C
  H193     1.0000 0.31680  0.20740  0.32360  Biso   1.000  H
  C291     1.0000 0.33270  0.16110  0.36510  Biso   1.000  C
  C292     1.0000 0.31250  0.14090  0.39250  Biso   1.000  C
  H194     1.0000 0.33260  0.12630  0.40880  Biso   1.000  H
  C293     1.0000 0.26340  0.14190  0.39620  Biso   1.000  C
  H195     1.0000 0.25000  0.12760  0.41490  Biso   1.000  H
  C294     1.0000 0.23370  0.16400  0.37240  Biso   1.000  C
  C295     1.0000 0.18380  0.16300  0.37550  Biso   1.000  C
  C296     1.0000 0.16320  0.14700  0.40310  Biso   1.000  C
  H196     1.0000 0.18300  0.14180  0.42000  Biso   1.000  H
  C297     1.0000 0.11420  0.13800  0.40620  Biso   1.000  C
  H197     1.0000 0.10070  0.12130  0.42470  Biso   1.000  H
  C298     1.0000 0.08480  0.15400  0.38180  Biso   1.000  C
  H198     1.0000 0.05110  0.15540  0.38410  Biso   1.000  H
  C299     1.0000 0.10510  0.16700  0.35410  Biso   1.000  C
  H199     1.0000 0.08540  0.16730  0.33710  Biso   1.000  H
  C300     1.0000 0.15480  0.17900  0.35110  Biso   1.000  C
  C301     1.0000 0.17550  0.20000  0.32350  Biso   1.000  C
  C302     1.0000 0.14710  0.21800  0.29850  Biso   1.000  C
  H200     1.0000 0.11340  0.21150  0.29980  Biso   1.000  H
  C303     1.0000 0.16800  0.24420  0.27200  Biso   1.000  C
  H201     1.0000 0.14860  0.25460  0.25520  Biso   1.000  H
  C304     1.0000 0.21740  0.25570  0.26990  Biso   1.000  C
  H202     1.0000 0.23160  0.27620  0.25190  Biso   1.000  H
  C305     1.0000 0.24570  0.23670  0.29440  Biso   1.000  C
  H203     1.0000 0.27940  0.24240  0.29300  Biso   1.000  H
  C306     1.0000 0.22480  0.20900  0.32110  Biso   1.000  C
  C307     1.0000 0.41520  0.17080  0.33900  Biso   1.000  C
  C308     1.0000 0.46680  0.17280  0.34600  Biso   1.000  C
  N97      1.0000 0.38300  0.16280  0.36260  Biso   1.000  N
  H204     1.0000 0.39740  0.15770  0.37970  Biso   1.000  H
  O1       1.0000 0.39870  0.17220  0.31340  Biso   1.000  O
  C309     1.0000 0.50830  0.17500  0.32430  Biso   1.000  C
  C310     1.0000 0.51700  0.08600  0.30860  Biso   1.000  C
  H205     1.0000 0.48540  0.05990  0.30310  Biso   1.000  H
  H206     1.0000 0.53120  0.04040  0.32280  Biso   1.000  H
  C311     1.0000 0.54640  0.08300  0.28240  Biso   1.000  C
  H207     1.0000 0.52830  0.11720  0.26680  Biso   1.000  H
  H208     1.0000 0.57480  0.12330  0.28660  Biso   1.000  H
  C312     1.0000 0.56350  0.99500  0.26960  Biso   1.000  C
  H209     1.0000 0.58090  0.96080  0.28540  Biso   1.000  H
  H210     1.0000 0.53490  0.95580  0.26520  Biso   1.000  H
  C313     1.0000 0.59290  0.99000  0.24430  Biso   1.000  C
  H211     1.0000 0.62500  0.01120  0.25060  Biso   1.000  H
  H212     1.0000 0.58090  0.03940  0.23040  Biso   1.000  H
  C314     1.0000 0.60000  0.90400  0.22730  Biso   1.000  C
  H213     1.0000 0.62170  0.91800  0.21090  Biso   1.000  H
  H214     1.0000 0.56920  0.88170  0.21950  Biso   1.000  H
  H215     1.0000 0.61380  0.85330  0.23980  Biso   1.000  H
  C315     1.0000 0.68950  0.19500  0.17310  Biso   1.000  C
  C316     1.0000 0.66910  0.22300  0.19990  Biso   1.000  C
  H216     1.0000 0.63540  0.22300  0.20190  Biso   1.000  H
  C317     1.0000 0.69760  0.25000  0.22400  Biso   1.000  C
  C318     1.0000 0.74710  0.25100  0.22110  Biso   1.000  C
  H217     1.0000 0.76650  0.26980  0.23720  Biso   1.000  H
  C319     1.0000 0.76830  0.22400  0.19500  Biso   1.000  C
  H218     1.0000 0.80210  0.22330  0.19320  Biso   1.000  H
  C320     1.0000 0.73970  0.19700  0.17110  Biso   1.000  C
  C321     1.0000 0.76110  0.17300  0.14400  Biso   1.000  C
  C322     1.0000 0.81100  0.17300  0.14080  Biso   1.000  C
  H219     1.0000 0.83050  0.19050  0.15710  Biso   1.000  H
  C323     1.0000 0.83220  0.14800  0.11430  Biso   1.000  C
  H220     1.0000 0.86600  0.14390  0.11280  Biso   1.000  H
  C324     1.0000 0.80400  0.12770  0.08980  Biso   1.000  C
  H221     1.0000 0.81850  0.11420  0.07130  Biso   1.000  H
  C325     1.0000 0.75440  0.12800  0.09250  Biso   1.000  C
  H222     1.0000 0.73520  0.10950  0.07620  Biso   1.000  H
  C326     1.0000 0.73260  0.15400  0.11940  Biso   1.000  C
  C327     1.0000 0.68140  0.15400  0.12110  Biso   1.000  C
  C328     1.0000 0.65230  0.13800  0.09610  Biso   1.000  C
  H223     1.0000 0.66710  0.12420  0.07780  Biso   1.000  H
  C329     1.0000 0.60280  0.14300  0.09750  Biso   1.000  C
  H224     1.0000 0.58420  0.14140  0.08000  Biso   1.000  H
  C330     1.0000 0.58070  0.14900  0.12540  Biso   1.000  C
  H225     1.0000 0.54730  0.13930  0.12750  Biso   1.000  H
  C331     1.0000 0.60930  0.17100  0.14990  Biso   1.000  C
  H226     1.0000 0.59420  0.18710  0.16800  Biso   1.000  H
  C332     1.0000 0.66000  0.16900  0.14880  Biso   1.000  C
  C333     1.0000 0.62600  0.32300  0.25310  Biso   1.000  C
  C334     1.0000 0.61640  0.36700  0.28050  Biso   1.000  C
  H227     1.0000 0.61030  0.31310  0.29450  Biso   1.000  H
  H228     1.0000 0.64630  0.39850  0.28690  Biso   1.000  H
  C335     1.0000 0.58090  0.43200  0.28450  Biso   1.000  C
  H229     1.0000 0.55170  0.40630  0.27500  Biso   1.000  H
  H230     1.0000 0.58980  0.49210  0.27370  Biso   1.000  H
  C336     1.0000 0.56810  0.46000  0.31550  Biso   1.000  C
  H231     1.0000 0.55280  0.40420  0.32520  Biso   1.000  H
  H232     1.0000 0.59800  0.47470  0.32640  Biso   1.000  H
  C337     1.0000 0.53620  0.54400  0.31820  Biso   1.000  C
  H233     1.0000 0.53720  0.56660  0.33890  Biso   1.000  H
  H234     1.0000 0.50330  0.52200  0.31420  Biso   1.000  H
  C338     1.0000 0.54560  0.62900  0.29920  Biso   1.000  C
  H235     1.0000 0.54870  0.60720  0.27850  Biso   1.000  H
  H236     1.0000 0.57620  0.65910  0.30510  Biso   1.000  H
  C339     1.0000 0.50670  0.70400  0.30110  Biso   1.000  C
  H237     1.0000 0.47800  0.67960  0.29070  Biso   1.000  H
  H238     1.0000 0.49820  0.71440  0.32200  Biso   1.000  H
  C340     1.0000 0.52100  0.79900  0.28770  Biso   1.000  C
  H239     1.0000 0.49430  0.84450  0.28840  Biso   1.000  H
  H240     1.0000 0.53090  0.78920  0.26720  Biso   1.000  H
  H241     1.0000 0.54810  0.82650  0.29880  Biso   1.000  H
  N98      1.0000 0.67430  0.28210  0.25060  Biso   1.000  N
  H242     1.0000 0.69070  0.27640  0.26710  Biso   1.000  H
  O2       1.0000 0.59660  0.33400  0.23300  Biso   1.000  O
  C341     1.0000 0.48430  0.24600  0.32760  Biso   1.000  C
  C342     1.0000 0.53930  0.24600  0.32380  Biso   1.000  C
  C343     1.0000 0.56150  0.31100  0.30740  Biso   1.000  C
  H243     1.0000 0.59260  0.31330  0.31780  Biso   1.000  H
  H244     1.0000 0.56780  0.27140  0.28970  Biso   1.000  H
  C344     1.0000 0.56200  0.39700  0.29560  Biso   1.000  C
  H245     1.0000 0.52670  0.40810  0.29370  Biso   1.000  H
  H246     1.0000 0.57200  0.38050  0.27540  Biso   1.000  H
  C345     1.0000 0.57600  0.48700  0.29720  Biso   1.000  C
  H247     1.0000 0.57880  0.50410  0.27600  Biso   1.000  H
  H248     1.0000 0.61000  0.47750  0.30340  Biso   1.000  H
  C346     1.0000 0.56700  0.57200  0.30870  Biso   1.000  C
  H249     1.0000 0.57880  0.62330  0.29550  Biso   1.000  H
  H250     1.0000 0.58350  0.57770  0.32780  Biso   1.000  H
  H251     1.0000 0.53280  0.57910  0.31150  Biso   1.000  H
  C347     1.0000 0.75390  0.18720  0.15470  Biso   1.000  C
  C348     1.0000 0.80320  0.18820  0.15810  Biso   1.000  C
  H252     1.0000 0.81680  0.20740  0.17640  Biso   1.000  H
  C349     1.0000 0.83270  0.16110  0.13490  Biso   1.000  C
  C350     1.0000 0.81250  0.14090  0.10750  Biso   1.000  C
  H253     1.0000 0.83260  0.12630  0.09120  Biso   1.000  H
  C351     1.0000 0.76340  0.14190  0.10380  Biso   1.000  C
  H254     1.0000 0.75000  0.12760  0.08510  Biso   1.000  H
  C352     1.0000 0.73370  0.16400  0.12760  Biso   1.000  C
  C353     1.0000 0.68380  0.16300  0.12450  Biso   1.000  C
  C354     1.0000 0.66320  0.14700  0.09690  Biso   1.000  C
  H255     1.0000 0.68300  0.14180  0.08000  Biso   1.000  H
  C355     1.0000 0.61420  0.13800  0.09380  Biso   1.000  C
  H256     1.0000 0.60070  0.12130  0.07530  Biso   1.000  H
  C356     1.0000 0.58480  0.15400  0.11820  Biso   1.000  C
  H257     1.0000 0.55110  0.15540  0.11590  Biso   1.000  H
  C357     1.0000 0.60510  0.16700  0.14590  Biso   1.000  C
  H258     1.0000 0.58540  0.16730  0.16290  Biso   1.000  H
  C358     1.0000 0.65480  0.17900  0.14890  Biso   1.000  C
  C359     1.0000 0.67550  0.20000  0.17650  Biso   1.000  C
  C360     1.0000 0.64710  0.21800  0.20150  Biso   1.000  C
  H259     1.0000 0.61340  0.21150  0.20020  Biso   1.000  H
  C361     1.0000 0.66800  0.24420  0.22800  Biso   1.000  C
  H260     1.0000 0.64860  0.25460  0.24480  Biso   1.000  H
  C362     1.0000 0.71740  0.25570  0.23010  Biso   1.000  C
  H261     1.0000 0.73160  0.27620  0.24810  Biso   1.000  H
  C363     1.0000 0.74570  0.23670  0.20560  Biso   1.000  C
  H262     1.0000 0.77940  0.24240  0.20700  Biso   1.000  H
  C364     1.0000 0.72480  0.20900  0.17890  Biso   1.000  C
  C365     1.0000 0.91520  0.17080  0.16100  Biso   1.000  C
  C366     1.0000 0.96680  0.17280  0.15400  Biso   1.000  C
  N99      1.0000 0.88300  0.16280  0.13740  Biso   1.000  N
  H263     1.0000 0.89740  0.15770  0.12030  Biso   1.000  H
  O3       1.0000 0.89870  0.17220  0.18660  Biso   1.000  O
  C367     1.0000 0.00830  0.17500  0.17570  Biso   1.000  C
  C368     1.0000 0.01700  0.08600  0.19140  Biso   1.000  C
  H264     1.0000 0.98540  0.05990  0.19690  Biso   1.000  H
  H265     1.0000 0.03120  0.04040  0.17720  Biso   1.000  H
  C369     1.0000 0.04640  0.08300  0.21760  Biso   1.000  C
  H266     1.0000 0.02830  0.11720  0.23320  Biso   1.000  H
  H267     1.0000 0.07480  0.12330  0.21340  Biso   1.000  H
  C370     1.0000 0.06350  0.99500  0.23040  Biso   1.000  C
  H268     1.0000 0.08090  0.96080  0.21460  Biso   1.000  H
  H269     1.0000 0.03490  0.95580  0.23480  Biso   1.000  H
  C371     1.0000 0.09290  0.99000  0.25570  Biso   1.000  C
  H270     1.0000 0.12500  0.01120  0.24940  Biso   1.000  H
  H271     1.0000 0.08090  0.03940  0.26960  Biso   1.000  H
  C372     1.0000 0.10000  0.90400  0.27270  Biso   1.000  C
  H272     1.0000 0.12170  0.91800  0.28910  Biso   1.000  H
  H273     1.0000 0.06920  0.88170  0.28050  Biso   1.000  H
  H274     1.0000 0.11380  0.85330  0.26020  Biso   1.000  H
  C373     1.0000 0.18950  0.19500  0.32690  Biso   1.000  C
  C374     1.0000 0.16910  0.22300  0.30010  Biso   1.000  C
  H275     1.0000 0.13540  0.22300  0.29810  Biso   1.000  H
  C375     1.0000 0.19760  0.25000  0.27600  Biso   1.000  C
  C376     1.0000 0.24710  0.25100  0.27890  Biso   1.000  C
  H276     1.0000 0.26650  0.26980  0.26280  Biso   1.000  H
  C377     1.0000 0.26830  0.22400  0.30500  Biso   1.000  C
  H277     1.0000 0.30210  0.22330  0.30680  Biso   1.000  H
  C378     1.0000 0.23970  0.19700  0.32890  Biso   1.000  C
  C379     1.0000 0.26110  0.17300  0.35600  Biso   1.000  C
  C380     1.0000 0.31100  0.17300  0.35920  Biso   1.000  C
  H278     1.0000 0.33050  0.19050  0.34290  Biso   1.000  H
  C381     1.0000 0.33220  0.14800  0.38570  Biso   1.000  C
  H279     1.0000 0.36600  0.14390  0.38720  Biso   1.000  H
  C382     1.0000 0.30400  0.12770  0.41020  Biso   1.000  C
  H280     1.0000 0.31850  0.11420  0.42870  Biso   1.000  H
  C383     1.0000 0.25440  0.12800  0.40750  Biso   1.000  C
  H281     1.0000 0.23520  0.10950  0.42380  Biso   1.000  H
  C384     1.0000 0.23260  0.15400  0.38060  Biso   1.000  C
  C385     1.0000 0.18140  0.15400  0.37890  Biso   1.000  C
  C386     1.0000 0.15230  0.13800  0.40390  Biso   1.000  C
  H282     1.0000 0.16710  0.12420  0.42220  Biso   1.000  H
  C387     1.0000 0.10280  0.14300  0.40250  Biso   1.000  C
  H283     1.0000 0.08420  0.14140  0.42000  Biso   1.000  H
  C388     1.0000 0.08070  0.14900  0.37460  Biso   1.000  C
  H284     1.0000 0.04730  0.13930  0.37250  Biso   1.000  H
  C389     1.0000 0.10930  0.17100  0.35010  Biso   1.000  C
  H285     1.0000 0.09420  0.18710  0.33200  Biso   1.000  H
  C390     1.0000 0.16000  0.16900  0.35120  Biso   1.000  C
  C391     1.0000 0.12600  0.32300  0.24690  Biso   1.000  C
  C392     1.0000 0.11640  0.36700  0.21950  Biso   1.000  C
  H286     1.0000 0.11030  0.31310  0.20550  Biso   1.000  H
  H287     1.0000 0.14630  0.39850  0.21310  Biso   1.000  H
  C393     1.0000 0.08090  0.43200  0.21550  Biso   1.000  C
  H288     1.0000 0.05170  0.40630  0.22500  Biso   1.000  H
  H289     1.0000 0.08980  0.49210  0.22630  Biso   1.000  H
  C394     1.0000 0.06810  0.46000  0.18450  Biso   1.000  C
  H290     1.0000 0.05280  0.40420  0.17480  Biso   1.000  H
  H291     1.0000 0.09800  0.47470  0.17360  Biso   1.000  H
  C395     1.0000 0.03620  0.54400  0.18180  Biso   1.000  C
  H292     1.0000 0.03720  0.56660  0.16110  Biso   1.000  H
  H293     1.0000 0.00330  0.52200  0.18580  Biso   1.000  H
  C396     1.0000 0.04560  0.62900  0.20080  Biso   1.000  C
  H294     1.0000 0.04870  0.60720  0.22150  Biso   1.000  H
  H295     1.0000 0.07620  0.65910  0.19490  Biso   1.000  H
  C397     1.0000 0.00670  0.70400  0.19890  Biso   1.000  C
  H296     1.0000 0.97800  0.67960  0.20930  Biso   1.000  H
  H297     1.0000 0.99820  0.71440  0.17800  Biso   1.000  H
  C398     1.0000 0.02100  0.79900  0.21230  Biso   1.000  C
  H298     1.0000 0.99430  0.84450  0.21160  Biso   1.000  H
  H299     1.0000 0.03090  0.78920  0.23280  Biso   1.000  H
  H300     1.0000 0.04810  0.82650  0.20120  Biso   1.000  H
  N100     1.0000 0.17430  0.28210  0.24940  Biso   1.000  N
  H301     1.0000 0.19070  0.27640  0.23290  Biso   1.000  H
  O4       1.0000 0.09660  0.33400  0.26700  Biso   1.000  O
  C399     1.0000 0.98430  0.24600  0.17240  Biso   1.000  C
  C400     1.0000 0.03930  0.24600  0.17620  Biso   1.000  C
  C401     1.0000 0.06150  0.31100  0.19260  Biso   1.000  C
  H302     1.0000 0.09260  0.31330  0.18220  Biso   1.000  H
  H303     1.0000 0.06780  0.27140  0.21030  Biso   1.000  H
  C402     1.0000 0.06200  0.39700  0.20440  Biso   1.000  C
  H304     1.0000 0.02670  0.40810  0.20630  Biso   1.000  H
  H305     1.0000 0.07200  0.38050  0.22460  Biso   1.000  H
  C403     1.0000 0.07600  0.48700  0.20280  Biso   1.000  C
  H306     1.0000 0.07880  0.50410  0.22400  Biso   1.000  H
  H307     1.0000 0.11000  0.47750  0.19660  Biso   1.000  H
  C404     1.0000 0.06700  0.57200  0.19130  Biso   1.000  C
  H308     1.0000 0.07880  0.62330  0.20450  Biso   1.000  H
  H309     1.0000 0.08350  0.57770  0.17220  Biso   1.000  H
  H310     1.0000 0.03280  0.57910  0.18850  Biso   1.000  H
  C405     1.0000 0.24610  0.81280  0.84530  Biso   1.000  C
  C406     1.0000 0.19680  0.81180  0.84190  Biso   1.000  C
  H311     1.0000 0.18320  0.79260  0.82360  Biso   1.000  H
  C407     1.0000 0.16730  0.83890  0.86510  Biso   1.000  C
  C408     1.0000 0.18750  0.85910  0.89250  Biso   1.000  C
  H312     1.0000 0.16740  0.87370  0.90880  Biso   1.000  H
  C409     1.0000 0.23660  0.85810  0.89620  Biso   1.000  C
  H313     1.0000 0.25000  0.87240  0.91490  Biso   1.000  H
  C410     1.0000 0.26630  0.83600  0.87240  Biso   1.000  C
  C411     1.0000 0.31620  0.83700  0.87550  Biso   1.000  C
  C412     1.0000 0.33680  0.85300  0.90310  Biso   1.000  C
  H314     1.0000 0.31700  0.85820  0.92000  Biso   1.000  H
  C413     1.0000 0.38580  0.86200  0.90620  Biso   1.000  C
  H315     1.0000 0.39930  0.87870  0.92470  Biso   1.000  H
  C414     1.0000 0.41520  0.84600  0.88180  Biso   1.000  C
  H316     1.0000 0.44890  0.84460  0.88410  Biso   1.000  H
  C415     1.0000 0.39490  0.83300  0.85410  Biso   1.000  C
  H317     1.0000 0.41460  0.83270  0.83710  Biso   1.000  H
  C416     1.0000 0.34520  0.82100  0.85110  Biso   1.000  C
  C417     1.0000 0.32450  0.80000  0.82350  Biso   1.000  C
  C418     1.0000 0.35290  0.78200  0.79850  Biso   1.000  C
  H318     1.0000 0.38660  0.78850  0.79980  Biso   1.000  H
  C419     1.0000 0.33200  0.75580  0.77200  Biso   1.000  C
  H319     1.0000 0.35140  0.74540  0.75520  Biso   1.000  H
  C420     1.0000 0.28260  0.74430  0.76990  Biso   1.000  C
  H320     1.0000 0.26840  0.72380  0.75190  Biso   1.000  H
  C421     1.0000 0.25430  0.76330  0.79440  Biso   1.000  C
  H321     1.0000 0.22060  0.75760  0.79300  Biso   1.000  H
  C422     1.0000 0.27520  0.79100  0.82110  Biso   1.000  C
  C423     1.0000 0.08480  0.82920  0.83900  Biso   1.000  C
  C424     1.0000 0.03320  0.82720  0.84600  Biso   1.000  C
  N101     1.0000 0.11700  0.83720  0.86260  Biso   1.000  N
  H322     1.0000 0.10260  0.84230  0.87970  Biso   1.000  H
  O5       1.0000 0.10130  0.82780  0.81340  Biso   1.000  O
  C425     1.0000 0.99170  0.82500  0.82430  Biso   1.000  C
  C426     1.0000 0.98300  0.91400  0.80860  Biso   1.000  C
  H323     1.0000 0.01460  0.94010  0.80310  Biso   1.000  H
  H324     1.0000 0.96880  0.95960  0.82280  Biso   1.000  H
  C427     1.0000 0.95360  0.91700  0.78240  Biso   1.000  C
  H325     1.0000 0.97170  0.88280  0.76680  Biso   1.000  H
  H326     1.0000 0.92520  0.87670  0.78660  Biso   1.000  H
  C428     1.0000 0.93650  0.00500  0.76960  Biso   1.000  C
  H327     1.0000 0.91910  0.03920  0.78540  Biso   1.000  H
  H328     1.0000 0.96510  0.04420  0.76520  Biso   1.000  H
  C429     1.0000 0.90710  0.01000  0.74430  Biso   1.000  C
  H329     1.0000 0.87500  0.98880  0.75060  Biso   1.000  H
  H330     1.0000 0.91910  0.96060  0.73040  Biso   1.000  H
  C430     1.0000 0.90000  0.09600  0.72730  Biso   1.000  C
  H331     1.0000 0.87830  0.08200  0.71090  Biso   1.000  H
  H332     1.0000 0.93080  0.11830  0.71950  Biso   1.000  H
  H333     1.0000 0.88620  0.14670  0.73980  Biso   1.000  H
  C431     1.0000 0.81050  0.80500  0.67310  Biso   1.000  C
  C432     1.0000 0.83090  0.77700  0.69990  Biso   1.000  C
  H334     1.0000 0.86460  0.77700  0.70190  Biso   1.000  H
  C433     1.0000 0.80240  0.75000  0.72400  Biso   1.000  C
  C434     1.0000 0.75290  0.74900  0.72110  Biso   1.000  C
  H335     1.0000 0.73350  0.73020  0.73720  Biso   1.000  H
  C435     1.0000 0.73170  0.77600  0.69500  Biso   1.000  C
  H336     1.0000 0.69790  0.77670  0.69320  Biso   1.000  H
  C436     1.0000 0.76030  0.80300  0.67110  Biso   1.000  C
  C437     1.0000 0.73890  0.82700  0.64400  Biso   1.000  C
  C438     1.0000 0.68900  0.82700  0.64080  Biso   1.000  C
  H337     1.0000 0.66950  0.80950  0.65710  Biso   1.000  H
  C439     1.0000 0.66780  0.85200  0.61430  Biso   1.000  C
  H338     1.0000 0.63400  0.85610  0.61280  Biso   1.000  H
  C440     1.0000 0.69600  0.87230  0.58980  Biso   1.000  C
  H339     1.0000 0.68150  0.88580  0.57130  Biso   1.000  H
  C441     1.0000 0.74560  0.87200  0.59250  Biso   1.000  C
  H340     1.0000 0.76480  0.89050  0.57620  Biso   1.000  H
  C442     1.0000 0.76740  0.84600  0.61940  Biso   1.000  C
  C443     1.0000 0.81860  0.84600  0.62110  Biso   1.000  C
  C444     1.0000 0.84770  0.86200  0.59610  Biso   1.000  C
  H341     1.0000 0.83290  0.87580  0.57780  Biso   1.000  H
  C445     1.0000 0.89720  0.85700  0.59750  Biso   1.000  C
  H342     1.0000 0.91580  0.85860  0.58000  Biso   1.000  H
  C446     1.0000 0.91930  0.85100  0.62540  Biso   1.000  C
  H343     1.0000 0.95270  0.86070  0.62750  Biso   1.000  H
  C447     1.0000 0.89070  0.82900  0.64990  Biso   1.000  C
  H344     1.0000 0.90580  0.81290  0.66800  Biso   1.000  H
  C448     1.0000 0.84000  0.83100  0.64880  Biso   1.000  C
  C449     1.0000 0.87400  0.67700  0.75310  Biso   1.000  C
  C450     1.0000 0.88360  0.63300  0.78050  Biso   1.000  C
  H345     1.0000 0.88970  0.68690  0.79450  Biso   1.000  H
  H346     1.0000 0.85370  0.60150  0.78690  Biso   1.000  H
  C451     1.0000 0.91910  0.56800  0.78450  Biso   1.000  C
  H347     1.0000 0.94830  0.59370  0.77500  Biso   1.000  H
  H348     1.0000 0.91020  0.50790  0.77370  Biso   1.000  H
  C452     1.0000 0.93190  0.54000  0.81550  Biso   1.000  C
  H349     1.0000 0.94720  0.59580  0.82520  Biso   1.000  H
  H350     1.0000 0.90200  0.52530  0.82640  Biso   1.000  H
  C453     1.0000 0.96380  0.45600  0.81820  Biso   1.000  C
  H351     1.0000 0.96280  0.43340  0.83890  Biso   1.000  H
  H352     1.0000 0.99670  0.47800  0.81420  Biso   1.000  H
  C454     1.0000 0.95440  0.37100  0.79920  Biso   1.000  C
  H353     1.0000 0.95130  0.39280  0.77850  Biso   1.000  H
  H354     1.0000 0.92380  0.34090  0.80510  Biso   1.000  H
  C455     1.0000 0.99330  0.29600  0.80110  Biso   1.000  C
  H355     1.0000 0.02200  0.32040  0.79070  Biso   1.000  H
  H356     1.0000 0.00180  0.28560  0.82200  Biso   1.000  H
  C456     1.0000 0.97900  0.20100  0.78770  Biso   1.000  C
  H357     1.0000 0.00570  0.15550  0.78840  Biso   1.000  H
  H358     1.0000 0.96910  0.21080  0.76720  Biso   1.000  H
  H359     1.0000 0.95190  0.17350  0.79880  Biso   1.000  H
  N102     1.0000 0.82570  0.71790  0.75060  Biso   1.000  N
  H360     1.0000 0.80930  0.72360  0.76710  Biso   1.000  H
  O6       1.0000 0.90340  0.66600  0.73300  Biso   1.000  O
  C457     1.0000 0.01570  0.75400  0.82760  Biso   1.000  C
  C458     1.0000 0.96070  0.75400  0.82380  Biso   1.000  C
  C459     1.0000 0.93850  0.68900  0.80740  Biso   1.000  C
  H361     1.0000 0.90740  0.68670  0.81780  Biso   1.000  H
  H362     1.0000 0.93220  0.72860  0.78970  Biso   1.000  H
  C460     1.0000 0.93800  0.60300  0.79560  Biso   1.000  C
  H363     1.0000 0.97330  0.59190  0.79370  Biso   1.000  H
  H364     1.0000 0.92800  0.61950  0.77540  Biso   1.000  H
  C461     1.0000 0.92400  0.51300  0.79720  Biso   1.000  C
  H365     1.0000 0.92120  0.49590  0.77600  Biso   1.000  H
  H366     1.0000 0.89000  0.52250  0.80340  Biso   1.000  H
  C462     1.0000 0.93300  0.42800  0.80870  Biso   1.000  C
  H367     1.0000 0.92120  0.37670  0.79550  Biso   1.000  H
  H368     1.0000 0.91650  0.42230  0.82780  Biso   1.000  H
  H369     1.0000 0.96720  0.42090  0.81150  Biso   1.000  H
  C463     1.0000 0.74610  0.81280  0.65470  Biso   1.000  C
  C464     1.0000 0.69680  0.81180  0.65810  Biso   1.000  C
  H370     1.0000 0.68320  0.79260  0.67640  Biso   1.000  H
  C465     1.0000 0.66730  0.83890  0.63490  Biso   1.000  C
  C466     1.0000 0.68750  0.85910  0.60750  Biso   1.000  C
  H371     1.0000 0.66740  0.87370  0.59120  Biso   1.000  H
  C467     1.0000 0.73660  0.85810  0.60380  Biso   1.000  C
  H372     1.0000 0.75000  0.87240  0.58510  Biso   1.000  H
  C468     1.0000 0.76630  0.83600  0.62760  Biso   1.000  C
  C469     1.0000 0.81620  0.83700  0.62450  Biso   1.000  C
  C470     1.0000 0.83680  0.85300  0.59690  Biso   1.000  C
  H373     1.0000 0.81700  0.85820  0.58000  Biso   1.000  H
  C471     1.0000 0.88580  0.86200  0.59380  Biso   1.000  C
  H374     1.0000 0.89930  0.87870  0.57530  Biso   1.000  H
  C472     1.0000 0.91520  0.84600  0.61820  Biso   1.000  C
  H375     1.0000 0.94890  0.84460  0.61590  Biso   1.000  H
  C473     1.0000 0.89490  0.83300  0.64590  Biso   1.000  C
  H376     1.0000 0.91460  0.83270  0.66290  Biso   1.000  H
  C474     1.0000 0.84520  0.82100  0.64890  Biso   1.000  C
  C475     1.0000 0.82450  0.80000  0.67650  Biso   1.000  C
  C476     1.0000 0.85290  0.78200  0.70150  Biso   1.000  C
  H377     1.0000 0.88660  0.78850  0.70020  Biso   1.000  H
  C477     1.0000 0.83200  0.75580  0.72800  Biso   1.000  C
  H378     1.0000 0.85140  0.74540  0.74480  Biso   1.000  H
  C478     1.0000 0.78260  0.74430  0.73010  Biso   1.000  C
  H379     1.0000 0.76840  0.72380  0.74810  Biso   1.000  H
  C479     1.0000 0.75430  0.76330  0.70560  Biso   1.000  C
  H380     1.0000 0.72060  0.75760  0.70700  Biso   1.000  H
  C480     1.0000 0.77520  0.79100  0.67890  Biso   1.000  C
  C481     1.0000 0.58480  0.82920  0.66100  Biso   1.000  C
  C482     1.0000 0.53320  0.82720  0.65400  Biso   1.000  C
  N103     1.0000 0.61700  0.83720  0.63740  Biso   1.000  N
  H381     1.0000 0.60260  0.84230  0.62030  Biso   1.000  H
  O7       1.0000 0.60130  0.82780  0.68660  Biso   1.000  O
  C483     1.0000 0.49170  0.82500  0.67570  Biso   1.000  C
  C484     1.0000 0.48300  0.91400  0.69140  Biso   1.000  C
  H382     1.0000 0.51460  0.94010  0.69690  Biso   1.000  H
  H383     1.0000 0.46880  0.95960  0.67720  Biso   1.000  H
  C485     1.0000 0.45360  0.91700  0.71760  Biso   1.000  C
  H384     1.0000 0.47170  0.88280  0.73320  Biso   1.000  H
  H385     1.0000 0.42520  0.87670  0.71340  Biso   1.000  H
  C486     1.0000 0.43650  0.00500  0.73040  Biso   1.000  C
  H386     1.0000 0.41910  0.03920  0.71460  Biso   1.000  H
  H387     1.0000 0.46510  0.04420  0.73480  Biso   1.000  H
  C487     1.0000 0.40710  0.01000  0.75570  Biso   1.000  C
  H388     1.0000 0.37500  0.98880  0.74940  Biso   1.000  H
  H389     1.0000 0.41910  0.96060  0.76960  Biso   1.000  H
  C488     1.0000 0.40000  0.09600  0.77270  Biso   1.000  C
  H390     1.0000 0.37830  0.08200  0.78910  Biso   1.000  H
  H391     1.0000 0.43080  0.11830  0.78050  Biso   1.000  H
  H392     1.0000 0.38620  0.14670  0.76020  Biso   1.000  H
  C489     1.0000 0.31050  0.80500  0.82690  Biso   1.000  C
  C490     1.0000 0.33090  0.77700  0.80010  Biso   1.000  C
  H393     1.0000 0.36460  0.77700  0.79810  Biso   1.000  H
  C491     1.0000 0.30240  0.75000  0.77600  Biso   1.000  C
  C492     1.0000 0.25290  0.74900  0.77890  Biso   1.000  C
  H394     1.0000 0.23350  0.73020  0.76280  Biso   1.000  H
  C493     1.0000 0.23170  0.77600  0.80500  Biso   1.000  C
  H395     1.0000 0.19790  0.77670  0.80680  Biso   1.000  H
  C494     1.0000 0.26030  0.80300  0.82890  Biso   1.000  C
  C495     1.0000 0.23890  0.82700  0.85600  Biso   1.000  C
  C496     1.0000 0.18900  0.82700  0.85920  Biso   1.000  C
  H396     1.0000 0.16950  0.80950  0.84290  Biso   1.000  H
  C497     1.0000 0.16780  0.85200  0.88570  Biso   1.000  C
  H397     1.0000 0.13400  0.85610  0.88720  Biso   1.000  H
  C498     1.0000 0.19600  0.87230  0.91020  Biso   1.000  C
  H398     1.0000 0.18150  0.88580  0.92870  Biso   1.000  H
  C499     1.0000 0.24560  0.87200  0.90750  Biso   1.000  C
  H399     1.0000 0.26480  0.89050  0.92380  Biso   1.000  H
  C500     1.0000 0.26740  0.84600  0.88060  Biso   1.000  C
  C501     1.0000 0.31860  0.84600  0.87890  Biso   1.000  C
  C502     1.0000 0.34770  0.86200  0.90390  Biso   1.000  C
  H400     1.0000 0.33290  0.87580  0.92220  Biso   1.000  H
  C503     1.0000 0.39720  0.85700  0.90250  Biso   1.000  C
  H401     1.0000 0.41580  0.85860  0.92000  Biso   1.000  H
  C504     1.0000 0.41930  0.85100  0.87460  Biso   1.000  C
  H402     1.0000 0.45270  0.86070  0.87250  Biso   1.000  H
  C505     1.0000 0.39070  0.82900  0.85010  Biso   1.000  C
  H403     1.0000 0.40580  0.81290  0.83200  Biso   1.000  H
  C506     1.0000 0.34000  0.83100  0.85120  Biso   1.000  C
  C507     1.0000 0.37400  0.67700  0.74690  Biso   1.000  C
  C508     1.0000 0.38360  0.63300  0.71950  Biso   1.000  C
  H404     1.0000 0.38970  0.68690  0.70550  Biso   1.000  H
  H405     1.0000 0.35370  0.60150  0.71310  Biso   1.000  H
  C509     1.0000 0.41910  0.56800  0.71550  Biso   1.000  C
  H406     1.0000 0.44830  0.59370  0.72500  Biso   1.000  H
  H407     1.0000 0.41020  0.50790  0.72630  Biso   1.000  H
  C510     1.0000 0.43190  0.54000  0.68450  Biso   1.000  C
  H408     1.0000 0.44720  0.59580  0.67480  Biso   1.000  H
  H409     1.0000 0.40200  0.52530  0.67360  Biso   1.000  H
  C511     1.0000 0.46380  0.45600  0.68180  Biso   1.000  C
  H410     1.0000 0.46280  0.43340  0.66110  Biso   1.000  H
  H411     1.0000 0.49670  0.47800  0.68580  Biso   1.000  H
  C512     1.0000 0.45440  0.37100  0.70080  Biso   1.000  C
  H412     1.0000 0.45130  0.39280  0.72150  Biso   1.000  H
  H413     1.0000 0.42380  0.34090  0.69490  Biso   1.000  H
  C513     1.0000 0.49330  0.29600  0.69890  Biso   1.000  C
  H414     1.0000 0.52200  0.32040  0.70930  Biso   1.000  H
  H415     1.0000 0.50180  0.28560  0.67800  Biso   1.000  H
  C514     1.0000 0.47900  0.20100  0.71230  Biso   1.000  C
  H416     1.0000 0.50570  0.15550  0.71160  Biso   1.000  H
  H417     1.0000 0.46910  0.21080  0.73280  Biso   1.000  H
  H418     1.0000 0.45190  0.17350  0.70120  Biso   1.000  H
  N104     1.0000 0.32570  0.71790  0.74940  Biso   1.000  N
  H419     1.0000 0.30930  0.72360  0.73290  Biso   1.000  H
  O8       1.0000 0.40340  0.66600  0.76700  Biso   1.000  O
  C515     1.0000 0.51570  0.75400  0.67240  Biso   1.000  C
  C516     1.0000 0.46070  0.75400  0.67620  Biso   1.000  C
  C517     1.0000 0.43850  0.68900  0.69260  Biso   1.000  C
  H420     1.0000 0.40740  0.68670  0.68220  Biso   1.000  H
  H421     1.0000 0.43220  0.72860  0.71030  Biso   1.000  H
  C518     1.0000 0.43800  0.60300  0.70440  Biso   1.000  C
  H422     1.0000 0.47330  0.59190  0.70630  Biso   1.000  H
  H423     1.0000 0.42800  0.61950  0.72460  Biso   1.000  H
  C519     1.0000 0.42400  0.51300  0.70280  Biso   1.000  C
  H424     1.0000 0.42120  0.49590  0.72400  Biso   1.000  H
  H425     1.0000 0.39000  0.52250  0.69660  Biso   1.000  H
  C520     1.0000 0.43300  0.42800  0.69130  Biso   1.000  C
  H426     1.0000 0.42120  0.37670  0.70450  Biso   1.000  H
  H427     1.0000 0.41650  0.42230  0.67220  Biso   1.000  H
  H428     1.0000 0.46720  0.42090  0.68850  Biso   1.000  H
  C521     1.0000 0.74610  0.68720  0.15470  Biso   1.000  C
  C522     1.0000 0.69680  0.68820  0.15810  Biso   1.000  C
  H429     1.0000 0.68320  0.70740  0.17640  Biso   1.000  H
  C523     1.0000 0.66730  0.66110  0.13490  Biso   1.000  C
  C524     1.0000 0.68750  0.64090  0.10750  Biso   1.000  C
  H430     1.0000 0.66740  0.62630  0.09120  Biso   1.000  H
  C525     1.0000 0.73660  0.64190  0.10380  Biso   1.000  C
  H431     1.0000 0.75000  0.62760  0.08510  Biso   1.000  H
  C526     1.0000 0.76630  0.66400  0.12760  Biso   1.000  C
  C527     1.0000 0.81620  0.66300  0.12450  Biso   1.000  C
  C528     1.0000 0.83680  0.64700  0.09690  Biso   1.000  C
  H432     1.0000 0.81700  0.64180  0.08000  Biso   1.000  H
  C529     1.0000 0.88580  0.63800  0.09380  Biso   1.000  C
  H433     1.0000 0.89930  0.62130  0.07530  Biso   1.000  H
  C530     1.0000 0.91520  0.65400  0.11820  Biso   1.000  C
  H434     1.0000 0.94890  0.65540  0.11590  Biso   1.000  H
  C531     1.0000 0.89490  0.66700  0.14590  Biso   1.000  C
  H435     1.0000 0.91460  0.66730  0.16290  Biso   1.000  H
  C532     1.0000 0.84520  0.67900  0.14890  Biso   1.000  C
  C533     1.0000 0.82450  0.70000  0.17650  Biso   1.000  C
  C534     1.0000 0.85290  0.71800  0.20150  Biso   1.000  C
  H436     1.0000 0.88660  0.71150  0.20020  Biso   1.000  H
  C535     1.0000 0.83200  0.74420  0.22800  Biso   1.000  C
  H437     1.0000 0.85140  0.75460  0.24480  Biso   1.000  H
  C536     1.0000 0.78260  0.75570  0.23010  Biso   1.000  C
  H438     1.0000 0.76840  0.77620  0.24810  Biso   1.000  H
  C537     1.0000 0.75430  0.73670  0.20560  Biso   1.000  C
  H439     1.0000 0.72060  0.74240  0.20700  Biso   1.000  H
  C538     1.0000 0.77520  0.70900  0.17890  Biso   1.000  C
  C539     1.0000 0.58480  0.67080  0.16100  Biso   1.000  C
  C540     1.0000 0.53320  0.67280  0.15400  Biso   1.000  C
  N105     1.0000 0.61700  0.66280  0.13740  Biso   1.000  N
  H440     1.0000 0.60260  0.65770  0.12030  Biso   1.000  H
  O9       1.0000 0.60130  0.67220  0.18660  Biso   1.000  O
  C541     1.0000 0.49170  0.67500  0.17570  Biso   1.000  C
  C542     1.0000 0.48300  0.58600  0.19140  Biso   1.000  C
  H441     1.0000 0.51460  0.55990  0.19690  Biso   1.000  H
  H442     1.0000 0.46880  0.54040  0.17720  Biso   1.000  H
  C543     1.0000 0.45360  0.58300  0.21760  Biso   1.000  C
  H443     1.0000 0.47170  0.61720  0.23320  Biso   1.000  H
  H444     1.0000 0.42520  0.62330  0.21340  Biso   1.000  H
  C544     1.0000 0.43650  0.49500  0.23040  Biso   1.000  C
  H445     1.0000 0.41910  0.46080  0.21460  Biso   1.000  H
  H446     1.0000 0.46510  0.45580  0.23480  Biso   1.000  H
  C545     1.0000 0.40710  0.49000  0.25570  Biso   1.000  C
  H447     1.0000 0.37500  0.51120  0.24940  Biso   1.000  H
  H448     1.0000 0.41910  0.53940  0.26960  Biso   1.000  H
  C546     1.0000 0.40000  0.40400  0.27270  Biso   1.000  C
  H449     1.0000 0.37830  0.41800  0.28910  Biso   1.000  H
  H450     1.0000 0.43080  0.38170  0.28050  Biso   1.000  H
  H451     1.0000 0.38620  0.35330  0.26020  Biso   1.000  H
  C547     1.0000 0.31050  0.69500  0.32690  Biso   1.000  C
  C548     1.0000 0.33090  0.72300  0.30010  Biso   1.000  C
  H452     1.0000 0.36460  0.72300  0.29810  Biso   1.000  H
  C549     1.0000 0.30240  0.75000  0.27600  Biso   1.000  C
  C550     1.0000 0.25290  0.75100  0.27890  Biso   1.000  C
  H453     1.0000 0.23350  0.76980  0.26280  Biso   1.000  H
  C551     1.0000 0.23170  0.72400  0.30500  Biso   1.000  C
  H454     1.0000 0.19790  0.72330  0.30680  Biso   1.000  H
  C552     1.0000 0.26030  0.69700  0.32890  Biso   1.000  C
  C553     1.0000 0.23890  0.67300  0.35600  Biso   1.000  C
  C554     1.0000 0.18900  0.67300  0.35920  Biso   1.000  C
  H455     1.0000 0.16950  0.69050  0.34290  Biso   1.000  H
  C555     1.0000 0.16780  0.64800  0.38570  Biso   1.000  C
  H456     1.0000 0.13400  0.64390  0.38720  Biso   1.000  H
  C556     1.0000 0.19600  0.62770  0.41020  Biso   1.000  C
  H457     1.0000 0.18150  0.61420  0.42870  Biso   1.000  H
  C557     1.0000 0.24560  0.62800  0.40750  Biso   1.000  C
  H458     1.0000 0.26480  0.60950  0.42380  Biso   1.000  H
  C558     1.0000 0.26740  0.65400  0.38060  Biso   1.000  C
  C559     1.0000 0.31860  0.65400  0.37890  Biso   1.000  C
  C560     1.0000 0.34770  0.63800  0.40390  Biso   1.000  C
  H459     1.0000 0.33290  0.62420  0.42220  Biso   1.000  H
  C561     1.0000 0.39720  0.64300  0.40250  Biso   1.000  C
  H460     1.0000 0.41580  0.64140  0.42000  Biso   1.000  H
  C562     1.0000 0.41930  0.64900  0.37460  Biso   1.000  C
  H461     1.0000 0.45270  0.63930  0.37250  Biso   1.000  H
  C563     1.0000 0.39070  0.67100  0.35010  Biso   1.000  C
  H462     1.0000 0.40580  0.68710  0.33200  Biso   1.000  H
  C564     1.0000 0.34000  0.66900  0.35120  Biso   1.000  C
  C565     1.0000 0.37400  0.82300  0.24690  Biso   1.000  C
  C566     1.0000 0.38360  0.86700  0.21950  Biso   1.000  C
  H463     1.0000 0.38970  0.81310  0.20550  Biso   1.000  H
  H464     1.0000 0.35370  0.89850  0.21310  Biso   1.000  H
  C567     1.0000 0.41910  0.93200  0.21550  Biso   1.000  C
  H465     1.0000 0.44830  0.90630  0.22500  Biso   1.000  H
  H466     1.0000 0.41020  0.99210  0.22630  Biso   1.000  H
  C568     1.0000 0.43190  0.96000  0.18450  Biso   1.000  C
  H467     1.0000 0.44720  0.90420  0.17480  Biso   1.000  H
  H468     1.0000 0.40200  0.97470  0.17360  Biso   1.000  H
  C569     1.0000 0.46380  0.04400  0.18180  Biso   1.000  C
  H469     1.0000 0.46280  0.06660  0.16110  Biso   1.000  H
  H470     1.0000 0.49670  0.02200  0.18580  Biso   1.000  H
  C570     1.0000 0.45440  0.12900  0.20080  Biso   1.000  C
  H471     1.0000 0.45130  0.10720  0.22150  Biso   1.000  H
  H472     1.0000 0.42380  0.15910  0.19490  Biso   1.000  H
  C571     1.0000 0.49330  0.20400  0.19890  Biso   1.000  C
  H473     1.0000 0.52200  0.17960  0.20930  Biso   1.000  H
  H474     1.0000 0.50180  0.21440  0.17800  Biso   1.000  H
  C572     1.0000 0.47900  0.29900  0.21230  Biso   1.000  C
  H475     1.0000 0.50570  0.34450  0.21160  Biso   1.000  H
  H476     1.0000 0.46910  0.28920  0.23280  Biso   1.000  H
  H477     1.0000 0.45190  0.32650  0.20120  Biso   1.000  H
  N106     1.0000 0.32570  0.78210  0.24940  Biso   1.000  N
  H478     1.0000 0.30930  0.77640  0.23290  Biso   1.000  H
  O10      1.0000 0.40340  0.83400  0.26700  Biso   1.000  O
  C573     1.0000 0.51570  0.74600  0.17240  Biso   1.000  C
  C574     1.0000 0.46070  0.74600  0.17620  Biso   1.000  C
  C575     1.0000 0.43850  0.81100  0.19260  Biso   1.000  C
  H479     1.0000 0.40740  0.81330  0.18220  Biso   1.000  H
  H480     1.0000 0.43220  0.77140  0.21030  Biso   1.000  H
  C576     1.0000 0.43800  0.89700  0.20440  Biso   1.000  C
  H481     1.0000 0.47330  0.90810  0.20630  Biso   1.000  H
  H482     1.0000 0.42800  0.88050  0.22460  Biso   1.000  H
  C577     1.0000 0.42400  0.98700  0.20280  Biso   1.000  C
  H483     1.0000 0.42120  0.00410  0.22400  Biso   1.000  H
  H484     1.0000 0.39000  0.97750  0.19660  Biso   1.000  H
  C578     1.0000 0.43300  0.07200  0.19130  Biso   1.000  C
  H485     1.0000 0.42120  0.12330  0.20450  Biso   1.000  H
  H486     1.0000 0.41650  0.07770  0.17220  Biso   1.000  H
  H487     1.0000 0.46720  0.07910  0.18850  Biso   1.000  H
  C579     1.0000 0.24610  0.68720  0.34530  Biso   1.000  C
  C580     1.0000 0.19680  0.68820  0.34190  Biso   1.000  C
  H488     1.0000 0.18320  0.70740  0.32360  Biso   1.000  H
  C581     1.0000 0.16730  0.66110  0.36510  Biso   1.000  C
  C582     1.0000 0.18750  0.64090  0.39250  Biso   1.000  C
  H489     1.0000 0.16740  0.62630  0.40880  Biso   1.000  H
  C583     1.0000 0.23660  0.64190  0.39620  Biso   1.000  C
  H490     1.0000 0.25000  0.62760  0.41490  Biso   1.000  H
  C584     1.0000 0.26630  0.66400  0.37240  Biso   1.000  C
  C585     1.0000 0.31620  0.66300  0.37550  Biso   1.000  C
  C586     1.0000 0.33680  0.64700  0.40310  Biso   1.000  C
  H491     1.0000 0.31700  0.64180  0.42000  Biso   1.000  H
  C587     1.0000 0.38580  0.63800  0.40620  Biso   1.000  C
  H492     1.0000 0.39930  0.62130  0.42470  Biso   1.000  H
  C588     1.0000 0.41520  0.65400  0.38180  Biso   1.000  C
  H493     1.0000 0.44890  0.65540  0.38410  Biso   1.000  H
  C589     1.0000 0.39490  0.66700  0.35410  Biso   1.000  C
  H494     1.0000 0.41460  0.66730  0.33710  Biso   1.000  H
  C590     1.0000 0.34520  0.67900  0.35110  Biso   1.000  C
  C591     1.0000 0.32450  0.70000  0.32350  Biso   1.000  C
  C592     1.0000 0.35290  0.71800  0.29850  Biso   1.000  C
  H495     1.0000 0.38660  0.71150  0.29980  Biso   1.000  H
  C593     1.0000 0.33200  0.74420  0.27200  Biso   1.000  C
  H496     1.0000 0.35140  0.75460  0.25520  Biso   1.000  H
  C594     1.0000 0.28260  0.75570  0.26990  Biso   1.000  C
  H497     1.0000 0.26840  0.77620  0.25190  Biso   1.000  H
  C595     1.0000 0.25430  0.73670  0.29440  Biso   1.000  C
  H498     1.0000 0.22060  0.74240  0.29300  Biso   1.000  H
  C596     1.0000 0.27520  0.70900  0.32110  Biso   1.000  C
  C597     1.0000 0.08480  0.67080  0.33900  Biso   1.000  C
  C598     1.0000 0.03320  0.67280  0.34600  Biso   1.000  C
  N107     1.0000 0.11700  0.66280  0.36260  Biso   1.000  N
  H499     1.0000 0.10260  0.65770  0.37970  Biso   1.000  H
  O11      1.0000 0.10130  0.67220  0.31340  Biso   1.000  O
  C599     1.0000 0.99170  0.67500  0.32430  Biso   1.000  C
  C600     1.0000 0.98300  0.58600  0.30860  Biso   1.000  C
  H500     1.0000 0.01460  0.55990  0.30310  Biso   1.000  H
  H501     1.0000 0.96880  0.54040  0.32280  Biso   1.000  H
  C601     1.0000 0.95360  0.58300  0.28240  Biso   1.000  C
  H502     1.0000 0.97170  0.61720  0.26680  Biso   1.000  H
  H503     1.0000 0.92520  0.62330  0.28660  Biso   1.000  H
  C602     1.0000 0.93650  0.49500  0.26960  Biso   1.000  C
  H504     1.0000 0.91910  0.46080  0.28540  Biso   1.000  H
  H505     1.0000 0.96510  0.45580  0.26520  Biso   1.000  H
  C603     1.0000 0.90710  0.49000  0.24430  Biso   1.000  C
  H506     1.0000 0.87500  0.51120  0.25060  Biso   1.000  H
  H507     1.0000 0.91910  0.53940  0.23040  Biso   1.000  H
  C604     1.0000 0.90000  0.40400  0.22730  Biso   1.000  C
  H508     1.0000 0.87830  0.41800  0.21090  Biso   1.000  H
  H509     1.0000 0.93080  0.38170  0.21950  Biso   1.000  H
  H510     1.0000 0.88620  0.35330  0.23980  Biso   1.000  H
  C605     1.0000 0.81050  0.69500  0.17310  Biso   1.000  C
  C606     1.0000 0.83090  0.72300  0.19990  Biso   1.000  C
  H511     1.0000 0.86460  0.72300  0.20190  Biso   1.000  H
  C607     1.0000 0.80240  0.75000  0.22400  Biso   1.000  C
  C608     1.0000 0.75290  0.75100  0.22110  Biso   1.000  C
  H512     1.0000 0.73350  0.76980  0.23720  Biso   1.000  H
  C609     1.0000 0.73170  0.72400  0.19500  Biso   1.000  C
  H513     1.0000 0.69790  0.72330  0.19320  Biso   1.000  H
  C610     1.0000 0.76030  0.69700  0.17110  Biso   1.000  C
  C611     1.0000 0.73890  0.67300  0.14400  Biso   1.000  C
  C612     1.0000 0.68900  0.67300  0.14080  Biso   1.000  C
  H514     1.0000 0.66950  0.69050  0.15710  Biso   1.000  H
  C613     1.0000 0.66780  0.64800  0.11430  Biso   1.000  C
  H515     1.0000 0.63400  0.64390  0.11280  Biso   1.000  H
  C614     1.0000 0.69600  0.62770  0.08980  Biso   1.000  C
  H516     1.0000 0.68150  0.61420  0.07130  Biso   1.000  H
  C615     1.0000 0.74560  0.62800  0.09250  Biso   1.000  C
  H517     1.0000 0.76480  0.60950  0.07620  Biso   1.000  H
  C616     1.0000 0.76740  0.65400  0.11940  Biso   1.000  C
  C617     1.0000 0.81860  0.65400  0.12110  Biso   1.000  C
  C618     1.0000 0.84770  0.63800  0.09610  Biso   1.000  C
  H518     1.0000 0.83290  0.62420  0.07780  Biso   1.000  H
  C619     1.0000 0.89720  0.64300  0.09750  Biso   1.000  C
  H519     1.0000 0.91580  0.64140  0.08000  Biso   1.000  H
  C620     1.0000 0.91930  0.64900  0.12540  Biso   1.000  C
  H520     1.0000 0.95270  0.63930  0.12750  Biso   1.000  H
  C621     1.0000 0.89070  0.67100  0.14990  Biso   1.000  C
  H521     1.0000 0.90580  0.68710  0.16800  Biso   1.000  H
  C622     1.0000 0.84000  0.66900  0.14880  Biso   1.000  C
  C623     1.0000 0.87400  0.82300  0.25310  Biso   1.000  C
  C624     1.0000 0.88360  0.86700  0.28050  Biso   1.000  C
  H522     1.0000 0.88970  0.81310  0.29450  Biso   1.000  H
  H523     1.0000 0.85370  0.89850  0.28690  Biso   1.000  H
  C625     1.0000 0.91910  0.93200  0.28450  Biso   1.000  C
  H524     1.0000 0.94830  0.90630  0.27500  Biso   1.000  H
  H525     1.0000 0.91020  0.99210  0.27370  Biso   1.000  H
  C626     1.0000 0.93190  0.96000  0.31550  Biso   1.000  C
  H526     1.0000 0.94720  0.90420  0.32520  Biso   1.000  H
  H527     1.0000 0.90200  0.97470  0.32640  Biso   1.000  H
  C627     1.0000 0.96380  0.04400  0.31820  Biso   1.000  C
  H528     1.0000 0.96280  0.06660  0.33890  Biso   1.000  H
  H529     1.0000 0.99670  0.02200  0.31420  Biso   1.000  H
  C628     1.0000 0.95440  0.12900  0.29920  Biso   1.000  C
  H530     1.0000 0.95130  0.10720  0.27850  Biso   1.000  H
  H531     1.0000 0.92380  0.15910  0.30510  Biso   1.000  H
  C629     1.0000 0.99330  0.20400  0.30110  Biso   1.000  C
  H532     1.0000 0.02200  0.17960  0.29070  Biso   1.000  H
  H533     1.0000 0.00180  0.21440  0.32200  Biso   1.000  H
  C630     1.0000 0.97900  0.29900  0.28770  Biso   1.000  C
  H534     1.0000 0.00570  0.34450  0.28840  Biso   1.000  H
  H535     1.0000 0.96910  0.28920  0.26720  Biso   1.000  H
  H536     1.0000 0.95190  0.32650  0.29880  Biso   1.000  H
  N108     1.0000 0.82570  0.78210  0.25060  Biso   1.000  N
  H537     1.0000 0.80930  0.77640  0.26710  Biso   1.000  H
  O12      1.0000 0.90340  0.83400  0.23300  Biso   1.000  O
  C631     1.0000 0.01570  0.74600  0.32760  Biso   1.000  C
  C632     1.0000 0.96070  0.74600  0.32380  Biso   1.000  C
  C633     1.0000 0.93850  0.81100  0.30740  Biso   1.000  C
  H538     1.0000 0.90740  0.81330  0.31780  Biso   1.000  H
  H539     1.0000 0.93220  0.77140  0.28970  Biso   1.000  H
  C634     1.0000 0.93800  0.89700  0.29560  Biso   1.000  C
  H540     1.0000 0.97330  0.90810  0.29370  Biso   1.000  H
  H541     1.0000 0.92800  0.88050  0.27540  Biso   1.000  H
  C635     1.0000 0.92400  0.98700  0.29720  Biso   1.000  C
  H542     1.0000 0.92120  0.00410  0.27600  Biso   1.000  H
  H543     1.0000 0.89000  0.97750  0.30340  Biso   1.000  H
  C636     1.0000 0.93300  0.07200  0.30870  Biso   1.000  C
  H544     1.0000 0.92120  0.12330  0.29550  Biso   1.000  H
  H545     1.0000 0.91650  0.07770  0.32780  Biso   1.000  H
  H546     1.0000 0.96720  0.07910  0.31150  Biso   1.000  H
  C637     1.0000 0.75390  0.31280  0.65470  Biso   1.000  C
  C638     1.0000 0.80320  0.31180  0.65810  Biso   1.000  C
  H547     1.0000 0.81680  0.29260  0.67640  Biso   1.000  H
  C639     1.0000 0.83270  0.33890  0.63490  Biso   1.000  C
  C640     1.0000 0.81250  0.35910  0.60750  Biso   1.000  C
  H548     1.0000 0.83260  0.37370  0.59120  Biso   1.000  H
  C641     1.0000 0.76340  0.35810  0.60380  Biso   1.000  C
  H549     1.0000 0.75000  0.37240  0.58510  Biso   1.000  H
  C642     1.0000 0.73370  0.33600  0.62760  Biso   1.000  C
  C643     1.0000 0.68380  0.33700  0.62450  Biso   1.000  C
  C644     1.0000 0.66320  0.35300  0.59690  Biso   1.000  C
  H550     1.0000 0.68300  0.35820  0.58000  Biso   1.000  H
  C645     1.0000 0.61420  0.36200  0.59380  Biso   1.000  C
  H551     1.0000 0.60070  0.37870  0.57530  Biso   1.000  H
  C646     1.0000 0.58480  0.34600  0.61820  Biso   1.000  C
  H552     1.0000 0.55110  0.34460  0.61590  Biso   1.000  H
  C647     1.0000 0.60510  0.33300  0.64590  Biso   1.000  C
  H553     1.0000 0.58540  0.33270  0.66290  Biso   1.000  H
  C648     1.0000 0.65480  0.32100  0.64890  Biso   1.000  C
  C649     1.0000 0.67550  0.30000  0.67650  Biso   1.000  C
  C650     1.0000 0.64710  0.28200  0.70150  Biso   1.000  C
  H554     1.0000 0.61340  0.28850  0.70020  Biso   1.000  H
  C651     1.0000 0.66800  0.25580  0.72800  Biso   1.000  C
  H555     1.0000 0.64860  0.24540  0.74480  Biso   1.000  H
  C652     1.0000 0.71740  0.24430  0.73010  Biso   1.000  C
  H556     1.0000 0.73160  0.22380  0.74810  Biso   1.000  H
  C653     1.0000 0.74570  0.26330  0.70560  Biso   1.000  C
  H557     1.0000 0.77940  0.25760  0.70700  Biso   1.000  H
  C654     1.0000 0.72480  0.29100  0.67890  Biso   1.000  C
  C655     1.0000 0.91520  0.32920  0.66100  Biso   1.000  C
  C656     1.0000 0.96680  0.32720  0.65400  Biso   1.000  C
  N109     1.0000 0.88300  0.33720  0.63740  Biso   1.000  N
  H558     1.0000 0.89740  0.34230  0.62030  Biso   1.000  H
  O13      1.0000 0.89870  0.32780  0.68660  Biso   1.000  O
  C657     1.0000 0.00830  0.32500  0.67570  Biso   1.000  C
  C658     1.0000 0.01700  0.41400  0.69140  Biso   1.000  C
  H559     1.0000 0.98540  0.44010  0.69690  Biso   1.000  H
  H560     1.0000 0.03120  0.45960  0.67720  Biso   1.000  H
  C659     1.0000 0.04640  0.41700  0.71760  Biso   1.000  C
  H561     1.0000 0.02830  0.38280  0.73320  Biso   1.000  H
  H562     1.0000 0.07480  0.37670  0.71340  Biso   1.000  H
  C660     1.0000 0.06350  0.50500  0.73040  Biso   1.000  C
  H563     1.0000 0.08090  0.53920  0.71460  Biso   1.000  H
  H564     1.0000 0.03490  0.54420  0.73480  Biso   1.000  H
  C661     1.0000 0.09290  0.51000  0.75570  Biso   1.000  C
  H565     1.0000 0.12500  0.48880  0.74940  Biso   1.000  H
  H566     1.0000 0.08090  0.46060  0.76960  Biso   1.000  H
  C662     1.0000 0.10000  0.59600  0.77270  Biso   1.000  C
  H567     1.0000 0.12170  0.58200  0.78910  Biso   1.000  H
  H568     1.0000 0.06920  0.61830  0.78050  Biso   1.000  H
  H569     1.0000 0.11380  0.64670  0.76020  Biso   1.000  H
  C663     1.0000 0.18950  0.30500  0.82690  Biso   1.000  C
  C664     1.0000 0.16910  0.27700  0.80010  Biso   1.000  C
  H570     1.0000 0.13540  0.27700  0.79810  Biso   1.000  H
  C665     1.0000 0.19760  0.25000  0.77600  Biso   1.000  C
  C666     1.0000 0.24710  0.24900  0.77890  Biso   1.000  C
  H571     1.0000 0.26650  0.23020  0.76280  Biso   1.000  H
  C667     1.0000 0.26830  0.27600  0.80500  Biso   1.000  C
  H572     1.0000 0.30210  0.27670  0.80680  Biso   1.000  H
  C668     1.0000 0.23970  0.30300  0.82890  Biso   1.000  C
  C669     1.0000 0.26110  0.32700  0.85600  Biso   1.000  C
  C670     1.0000 0.31100  0.32700  0.85920  Biso   1.000  C
  H573     1.0000 0.33050  0.30950  0.84290  Biso   1.000  H
  C671     1.0000 0.33220  0.35200  0.88570  Biso   1.000  C
  H574     1.0000 0.36600  0.35610  0.88720  Biso   1.000  H
  C672     1.0000 0.30400  0.37230  0.91020  Biso   1.000  C
  H575     1.0000 0.31850  0.38580  0.92870  Biso   1.000  H
  C673     1.0000 0.25440  0.37200  0.90750  Biso   1.000  C
  H576     1.0000 0.23520  0.39050  0.92380  Biso   1.000  H
  C674     1.0000 0.23260  0.34600  0.88060  Biso   1.000  C
  C675     1.0000 0.18140  0.34600  0.87890  Biso   1.000  C
  C676     1.0000 0.15230  0.36200  0.90390  Biso   1.000  C
  H577     1.0000 0.16710  0.37580  0.92220  Biso   1.000  H
  C677     1.0000 0.10280  0.35700  0.90250  Biso   1.000  C
  H578     1.0000 0.08420  0.35860  0.92000  Biso   1.000  H
  C678     1.0000 0.08070  0.35100  0.87460  Biso   1.000  C
  H579     1.0000 0.04730  0.36070  0.87250  Biso   1.000  H
  C679     1.0000 0.10930  0.32900  0.85010  Biso   1.000  C
  H580     1.0000 0.09420  0.31290  0.83200  Biso   1.000  H
  C680     1.0000 0.16000  0.33100  0.85120  Biso   1.000  C
  C681     1.0000 0.12600  0.17700  0.74690  Biso   1.000  C
  C682     1.0000 0.11640  0.13300  0.71950  Biso   1.000  C
  H581     1.0000 0.11030  0.18690  0.70550  Biso   1.000  H
  H582     1.0000 0.14630  0.10150  0.71310  Biso   1.000  H
  C683     1.0000 0.08090  0.06800  0.71550  Biso   1.000  C
  H583     1.0000 0.05170  0.09370  0.72500  Biso   1.000  H
  H584     1.0000 0.08980  0.00790  0.72630  Biso   1.000  H
  C684     1.0000 0.06810  0.04000  0.68450  Biso   1.000  C
  H585     1.0000 0.05280  0.09580  0.67480  Biso   1.000  H
  H586     1.0000 0.09800  0.02530  0.67360  Biso   1.000  H
  C685     1.0000 0.03620  0.95600  0.68180  Biso   1.000  C
  H587     1.0000 0.03720  0.93340  0.66110  Biso   1.000  H
  H588     1.0000 0.00330  0.97800  0.68580  Biso   1.000  H
  C686     1.0000 0.04560  0.87100  0.70080  Biso   1.000  C
  H589     1.0000 0.04870  0.89280  0.72150  Biso   1.000  H
  H590     1.0000 0.07620  0.84090  0.69490  Biso   1.000  H
  C687     1.0000 0.00670  0.79600  0.69890  Biso   1.000  C
  H591     1.0000 0.97800  0.82040  0.70930  Biso   1.000  H
  H592     1.0000 0.99820  0.78560  0.67800  Biso   1.000  H
  C688     1.0000 0.02100  0.70100  0.71230  Biso   1.000  C
  H593     1.0000 0.99430  0.65550  0.71160  Biso   1.000  H
  H594     1.0000 0.03090  0.71080  0.73280  Biso   1.000  H
  H595     1.0000 0.04810  0.67350  0.70120  Biso   1.000  H
  N110     1.0000 0.17430  0.21790  0.74940  Biso   1.000  N
  H596     1.0000 0.19070  0.22360  0.73290  Biso   1.000  H
  O14      1.0000 0.09660  0.16600  0.76700  Biso   1.000  O
  C689     1.0000 0.98430  0.25400  0.67240  Biso   1.000  C
  C690     1.0000 0.03930  0.25400  0.67620  Biso   1.000  C
  C691     1.0000 0.06150  0.18900  0.69260  Biso   1.000  C
  H597     1.0000 0.09260  0.18670  0.68220  Biso   1.000  H
  H598     1.0000 0.06780  0.22860  0.71030  Biso   1.000  H
  C692     1.0000 0.06200  0.10300  0.70440  Biso   1.000  C
  H599     1.0000 0.02670  0.09190  0.70630  Biso   1.000  H
  H600     1.0000 0.07200  0.11950  0.72460  Biso   1.000  H
  C693     1.0000 0.07600  0.01300  0.70280  Biso   1.000  C
  H601     1.0000 0.07880  0.99590  0.72400  Biso   1.000  H
  H602     1.0000 0.11000  0.02250  0.69660  Biso   1.000  H
  C694     1.0000 0.06700  0.92800  0.69130  Biso   1.000  C
  H603     1.0000 0.07880  0.87670  0.70450  Biso   1.000  H
  H604     1.0000 0.08350  0.92230  0.67220  Biso   1.000  H
  H605     1.0000 0.03280  0.92090  0.68850  Biso   1.000  H
  C695     1.0000 0.25390  0.31280  0.84530  Biso   1.000  C
  C696     1.0000 0.30320  0.31180  0.84190  Biso   1.000  C
  H606     1.0000 0.31680  0.29260  0.82360  Biso   1.000  H
  C697     1.0000 0.33270  0.33890  0.86510  Biso   1.000  C
  C698     1.0000 0.31250  0.35910  0.89250  Biso   1.000  C
  H607     1.0000 0.33260  0.37370  0.90880  Biso   1.000  H
  C699     1.0000 0.26340  0.35810  0.89620  Biso   1.000  C
  H608     1.0000 0.25000  0.37240  0.91490  Biso   1.000  H
  C700     1.0000 0.23370  0.33600  0.87240  Biso   1.000  C
  C701     1.0000 0.18380  0.33700  0.87550  Biso   1.000  C
  C702     1.0000 0.16320  0.35300  0.90310  Biso   1.000  C
  H609     1.0000 0.18300  0.35820  0.92000  Biso   1.000  H
  C703     1.0000 0.11420  0.36200  0.90620  Biso   1.000  C
  H610     1.0000 0.10070  0.37870  0.92470  Biso   1.000  H
  C704     1.0000 0.08480  0.34600  0.88180  Biso   1.000  C
  H611     1.0000 0.05110  0.34460  0.88410  Biso   1.000  H
  C705     1.0000 0.10510  0.33300  0.85410  Biso   1.000  C
  H612     1.0000 0.08540  0.33270  0.83710  Biso   1.000  H
  C706     1.0000 0.15480  0.32100  0.85110  Biso   1.000  C
  C707     1.0000 0.17550  0.30000  0.82350  Biso   1.000  C
  C708     1.0000 0.14710  0.28200  0.79850  Biso   1.000  C
  H613     1.0000 0.11340  0.28850  0.79980  Biso   1.000  H
  C709     1.0000 0.16800  0.25580  0.77200  Biso   1.000  C
  H614     1.0000 0.14860  0.24540  0.75520  Biso   1.000  H
  C710     1.0000 0.21740  0.24430  0.76990  Biso   1.000  C
  H615     1.0000 0.23160  0.22380  0.75190  Biso   1.000  H
  C711     1.0000 0.24570  0.26330  0.79440  Biso   1.000  C
  H616     1.0000 0.27940  0.25760  0.79300  Biso   1.000  H
  C712     1.0000 0.22480  0.29100  0.82110  Biso   1.000  C
  C713     1.0000 0.41520  0.32920  0.83900  Biso   1.000  C
  C714     1.0000 0.46680  0.32720  0.84600  Biso   1.000  C
  N111     1.0000 0.38300  0.33720  0.86260  Biso   1.000  N
  H617     1.0000 0.39740  0.34230  0.87970  Biso   1.000  H
  O15      1.0000 0.39870  0.32780  0.81340  Biso   1.000  O
  C715     1.0000 0.50830  0.32500  0.82430  Biso   1.000  C
  C716     1.0000 0.51700  0.41400  0.80860  Biso   1.000  C
  H618     1.0000 0.48540  0.44010  0.80310  Biso   1.000  H
  H619     1.0000 0.53120  0.45960  0.82280  Biso   1.000  H
  C717     1.0000 0.54640  0.41700  0.78240  Biso   1.000  C
  H620     1.0000 0.52830  0.38280  0.76680  Biso   1.000  H
  H621     1.0000 0.57480  0.37670  0.78660  Biso   1.000  H
  C718     1.0000 0.56350  0.50500  0.76960  Biso   1.000  C
  H622     1.0000 0.58090  0.53920  0.78540  Biso   1.000  H
  H623     1.0000 0.53490  0.54420  0.76520  Biso   1.000  H
  C719     1.0000 0.59290  0.51000  0.74430  Biso   1.000  C
  H624     1.0000 0.62500  0.48880  0.75060  Biso   1.000  H
  H625     1.0000 0.58090  0.46060  0.73040  Biso   1.000  H
  C720     1.0000 0.60000  0.59600  0.72730  Biso   1.000  C
  H626     1.0000 0.62170  0.58200  0.71090  Biso   1.000  H
  H627     1.0000 0.56920  0.61830  0.71950  Biso   1.000  H
  H628     1.0000 0.61380  0.64670  0.73980  Biso   1.000  H
  C721     1.0000 0.68950  0.30500  0.67310  Biso   1.000  C
  C722     1.0000 0.66910  0.27700  0.69990  Biso   1.000  C
  H629     1.0000 0.63540  0.27700  0.70190  Biso   1.000  H
  C723     1.0000 0.69760  0.25000  0.72400  Biso   1.000  C
  C724     1.0000 0.74710  0.24900  0.72110  Biso   1.000  C
  H630     1.0000 0.76650  0.23020  0.73720  Biso   1.000  H
  C725     1.0000 0.76830  0.27600  0.69500  Biso   1.000  C
  H631     1.0000 0.80210  0.27670  0.69320  Biso   1.000  H
  C726     1.0000 0.73970  0.30300  0.67110  Biso   1.000  C
  C727     1.0000 0.76110  0.32700  0.64400  Biso   1.000  C
  C728     1.0000 0.81100  0.32700  0.64080  Biso   1.000  C
  H632     1.0000 0.83050  0.30950  0.65710  Biso   1.000  H
  C729     1.0000 0.83220  0.35200  0.61430  Biso   1.000  C
  H633     1.0000 0.86600  0.35610  0.61280  Biso   1.000  H
  C730     1.0000 0.80400  0.37230  0.58980  Biso   1.000  C
  H634     1.0000 0.81850  0.38580  0.57130  Biso   1.000  H
  C731     1.0000 0.75440  0.37200  0.59250  Biso   1.000  C
  H635     1.0000 0.73520  0.39050  0.57620  Biso   1.000  H
  C732     1.0000 0.73260  0.34600  0.61940  Biso   1.000  C
  C733     1.0000 0.68140  0.34600  0.62110  Biso   1.000  C
  C734     1.0000 0.65230  0.36200  0.59610  Biso   1.000  C
  H636     1.0000 0.66710  0.37580  0.57780  Biso   1.000  H
  C735     1.0000 0.60280  0.35700  0.59750  Biso   1.000  C
  H637     1.0000 0.58420  0.35860  0.58000  Biso   1.000  H
  C736     1.0000 0.58070  0.35100  0.62540  Biso   1.000  C
  H638     1.0000 0.54730  0.36070  0.62750  Biso   1.000  H
  C737     1.0000 0.60930  0.32900  0.64990  Biso   1.000  C
  H639     1.0000 0.59420  0.31290  0.66800  Biso   1.000  H
  C738     1.0000 0.66000  0.33100  0.64880  Biso   1.000  C
  C739     1.0000 0.62600  0.17700  0.75310  Biso   1.000  C
  C740     1.0000 0.61640  0.13300  0.78050  Biso   1.000  C
  H640     1.0000 0.61030  0.18690  0.79450  Biso   1.000  H
  H641     1.0000 0.64630  0.10150  0.78690  Biso   1.000  H
  C741     1.0000 0.58090  0.06800  0.78450  Biso   1.000  C
  H642     1.0000 0.55170  0.09370  0.77500  Biso   1.000  H
  H643     1.0000 0.58980  0.00790  0.77370  Biso   1.000  H
  C742     1.0000 0.56810  0.04000  0.81550  Biso   1.000  C
  H644     1.0000 0.55280  0.09580  0.82520  Biso   1.000  H
  H645     1.0000 0.59800  0.02530  0.82640  Biso   1.000  H
  C743     1.0000 0.53620  0.95600  0.81820  Biso   1.000  C
  H646     1.0000 0.53720  0.93340  0.83890  Biso   1.000  H
  H647     1.0000 0.50330  0.97800  0.81420  Biso   1.000  H
  C744     1.0000 0.54560  0.87100  0.79920  Biso   1.000  C
  H648     1.0000 0.54870  0.89280  0.77850  Biso   1.000  H
  H649     1.0000 0.57620  0.84090  0.80510  Biso   1.000  H
  C745     1.0000 0.50670  0.79600  0.80110  Biso   1.000  C
  H650     1.0000 0.47800  0.82040  0.79070  Biso   1.000  H
  H651     1.0000 0.49820  0.78560  0.82200  Biso   1.000  H
  C746     1.0000 0.52100  0.70100  0.78770  Biso   1.000  C
  H652     1.0000 0.49430  0.65550  0.78840  Biso   1.000  H
  H653     1.0000 0.53090  0.71080  0.76720  Biso   1.000  H
  H654     1.0000 0.54810  0.67350  0.79880  Biso   1.000  H
  N112     1.0000 0.67430  0.21790  0.75060  Biso   1.000  N
  H655     1.0000 0.69070  0.22360  0.76710  Biso   1.000  H
  O16      1.0000 0.59660  0.16600  0.73300  Biso   1.000  O
  C747     1.0000 0.48430  0.25400  0.82760  Biso   1.000  C
  C748     1.0000 0.53930  0.25400  0.82380  Biso   1.000  C
  C749     1.0000 0.56150  0.18900  0.80740  Biso   1.000  C
  H656     1.0000 0.59260  0.18670  0.81780  Biso   1.000  H
  H657     1.0000 0.56780  0.22860  0.78970  Biso   1.000  H
  C750     1.0000 0.56200  0.10300  0.79560  Biso   1.000  C
  H658     1.0000 0.52670  0.09190  0.79370  Biso   1.000  H
  H659     1.0000 0.57200  0.11950  0.77540  Biso   1.000  H
  C751     1.0000 0.57600  0.01300  0.79720  Biso   1.000  C
  H660     1.0000 0.57880  0.99590  0.77600  Biso   1.000  H
  H661     1.0000 0.61000  0.02250  0.80340  Biso   1.000  H
  C752     1.0000 0.56700  0.92800  0.80870  Biso   1.000  C
  H662     1.0000 0.57880  0.87670  0.79550  Biso   1.000  H
  H663     1.0000 0.58350  0.92230  0.82780  Biso   1.000  H
  H664     1.0000 0.53280  0.92090  0.81150  Biso   1.000  H
