data_image0
_cell_length_a       18.248
_cell_length_b       18.248
_cell_length_c       47.113
_cell_angle_alpha    90
_cell_angle_beta     90
_cell_angle_gamma    120

_symmetry_space_group_name_H-M    "P 1"
_symmetry_int_tables_number       1

loop_
  _symmetry_equiv_pos_as_xyz
  'x, y, z'

loop_
  _atom_site_label
  _atom_site_occupancy
  _atom_site_fract_x
  _atom_site_fract_y
  _atom_site_fract_z
  _atom_site_thermal_displace_type
  _atom_site_B_iso_or_equiv
  _atom_site_type_symbol
  Cu1      1.0000 0.52520  0.05090  0.47730  Biso   1.000  Cu
  O1       1.0000 0.41670  0.97960  0.46300  Biso   1.000  O
  O2       1.0000 0.62630  0.10870  0.49580  Biso   1.000  O
  O3       1.0000 0.47950  0.10400  0.49680  Biso   1.000  O
  O4       1.0000 0.56390  0.98420  0.46290  Biso   1.000  O
  C1       1.0000 0.36130  0.91080  0.47780  Biso   1.000  C
  C2       1.0000 0.28310  0.84660  0.46090  Biso   1.000  C
  C3       1.0000 0.22480  0.77900  0.47470  Biso   1.000  C
  C4       1.0000 0.27370  0.85660  0.43360  Biso   1.000  C
  H1       1.0000 0.23260  0.77160  0.49370  Biso   1.000  H
  C5       1.0000 0.15530  0.72170  0.46130  Biso   1.000  C
  C6       1.0000 0.20500  0.79780  0.42000  Biso   1.000  C
  H2       1.0000 0.31440  0.90410  0.42400  Biso   1.000  H
  C7       1.0000 0.14750  0.72840  0.43360  Biso   1.000  C
  C8       1.0000 0.08910  0.63640  0.47580  Biso   1.000  C
  C9       1.0000 0.19840  0.79880  0.38990  Biso   1.000  C
  H3       1.0000 0.10250  0.68520  0.42370  Biso   1.000  H
  C10      1.0000 0.19960  0.79240  0.36360  Biso   1.000  C
  B1       1.0000 0.20230  0.78690  0.33080  Biso   1.000  B
  B2       1.0000 0.28270  0.87120  0.31150  Biso   1.000  B
  B3       1.0000 0.17940  0.85470  0.31070  Biso   1.000  B
  B4       1.0000 0.10750  0.74540  0.31100  Biso   1.000  B
  B5       1.0000 0.16940  0.69880  0.31000  Biso   1.000  B
  B6       1.0000 0.27630  0.77200  0.31210  Biso   1.000  B
  H4       1.0000 0.33540  0.92620  0.32190  Biso   1.000  H
  B7       1.0000 0.29470  0.82790  0.28040  Biso   1.000  B
  B8       1.0000 0.23980  0.88390  0.28020  Biso   1.000  B
  H5       1.0000 0.16300  0.89900  0.32080  Biso   1.000  H
  B9       1.0000 0.13260  0.80200  0.27960  Biso   1.000  B
  C11      1.0000 0.12850  0.71480  0.28270  Biso   1.000  C
  H6       1.0000 0.04500  0.71700  0.32120  Biso   1.000  H
  C12      1.0000 0.22910  0.73360  0.28390  Biso   1.000  C
  H7       1.0000 0.14520  0.63450  0.31840  Biso   1.000  H
  H8       1.0000 0.32320  0.76030  0.32280  Biso   1.000  H
  H9       1.0000 0.35640  0.85190  0.26990  Biso   1.000  H
  H10      1.0000 0.26430  0.94770  0.27130  Biso   1.000  H
  H11      1.0000 0.08320  0.80930  0.26870  Biso   1.000  H
  H12      1.0000 0.07370  0.65860  0.27370  Biso   1.000  H
  H13      1.0000 0.24840  0.68980  0.27520  Biso   1.000  H
  C13      1.0000 0.18840  0.81510  0.36300  Biso   1.000  C
  C14      1.0000 0.08720  0.77140  0.28442  Biso   1.000  C
  H14      1.0000 0.02640  0.71930  0.27680  Biso   1.000  H
  C15      1.0000 0.18970  0.79150  0.28323  Biso   1.000  C
  H15      1.0000 0.20920  0.75000  0.27280  Biso   1.000  H
  B10      1.0000 0.17640  0.83200  0.33120  Biso   1.000  B
  B11      1.0000 0.25330  0.91720  0.31160  Biso   1.000  B
  H16      1.0000 0.30770  0.97010  0.32220  Biso   1.000  H
  B12      1.0000 0.15410  0.90350  0.31510  Biso   1.000  B
  H17      1.0000 0.14410  0.94770  0.32810  Biso   1.000  H
  B13      1.0000 0.07940  0.79990  0.31450  Biso   1.000  B
  H18      1.0000 0.02090  0.77420  0.32700  Biso   1.000  H
  B14      1.0000 0.13350  0.74610  0.30750  Biso   1.000  B
  H19      1.0000 0.10750  0.67890  0.31280  Biso   1.000  H
  B15      1.0000 0.24610  0.81760  0.30800  Biso   1.000  B
  H20      1.0000 0.29360  0.80120  0.31510  Biso   1.000  H
  B16      1.0000 0.26040  0.88100  0.27895  Biso   1.000  B
  H21      1.0000 0.32100  0.90800  0.26750  Biso   1.000  H
  B17      1.0000 0.20450  0.93310  0.28075  Biso   1.000  B
  H22      1.0000 0.22830  0.99620  0.27140  Biso   1.000  H
  B18      1.0000 0.09710  0.86080  0.28242  Biso   1.000  B
  H23      1.0000 0.05030  0.87590  0.27370  Biso   1.000  H
  Cu2      1.0000 0.94910  0.47430  0.47730  Biso   1.000  Cu
  O5       1.0000 0.02040  0.43710  0.46300  Biso   1.000  O
  O6       1.0000 0.89130  0.51760  0.49580  Biso   1.000  O
  O7       1.0000 0.89600  0.37550  0.49680  Biso   1.000  O
  O8       1.0000 0.01580  0.57970  0.46290  Biso   1.000  O
  C16      1.0000 0.08920  0.45050  0.47780  Biso   1.000  C
  C17      1.0000 0.15340  0.43650  0.46090  Biso   1.000  C
  C18      1.0000 0.22100  0.44580  0.47470  Biso   1.000  C
  C19      1.0000 0.14340  0.41710  0.43360  Biso   1.000  C
  H24      1.0000 0.22840  0.46100  0.49370  Biso   1.000  H
  C20      1.0000 0.27830  0.43360  0.46130  Biso   1.000  C
  C21      1.0000 0.20220  0.40720  0.42000  Biso   1.000  C
  H25      1.0000 0.09590  0.41030  0.42400  Biso   1.000  H
  C22      1.0000 0.27160  0.41910  0.43360  Biso   1.000  C
  C23      1.0000 0.36360  0.45270  0.47580  Biso   1.000  C
  C24      1.0000 0.20120  0.39960  0.38990  Biso   1.000  C
  H26      1.0000 0.31480  0.41730  0.42370  Biso   1.000  H
  C25      1.0000 0.20760  0.40720  0.36360  Biso   1.000  C
  B19      1.0000 0.21310  0.41540  0.33080  Biso   1.000  B
  B20      1.0000 0.12880  0.41150  0.31150  Biso   1.000  B
  B21      1.0000 0.14530  0.32470  0.31070  Biso   1.000  B
  B22      1.0000 0.25460  0.36210  0.31100  Biso   1.000  B
  B23      1.0000 0.30120  0.47060  0.31000  Biso   1.000  B
  B24      1.0000 0.22800  0.50430  0.31210  Biso   1.000  B
  H27      1.0000 0.07380  0.40920  0.32190  Biso   1.000  H
  B25      1.0000 0.17210  0.46680  0.28040  Biso   1.000  B
  B26      1.0000 0.11610  0.35590  0.28020  Biso   1.000  B
  H28      1.0000 0.10100  0.26400  0.32080  Biso   1.000  H
  B27      1.0000 0.19800  0.33060  0.27960  Biso   1.000  B
  C26      1.0000 0.28520  0.41370  0.28270  Biso   1.000  C
  H29      1.0000 0.28300  0.32800  0.32120  Biso   1.000  H
  C27      1.0000 0.26640  0.49550  0.28390  Biso   1.000  C
  H30      1.0000 0.36550  0.51070  0.31840  Biso   1.000  H
  H31      1.0000 0.23970  0.56290  0.32280  Biso   1.000  H
  H32      1.0000 0.14810  0.50450  0.26990  Biso   1.000  H
  H33      1.0000 0.05230  0.31660  0.27130  Biso   1.000  H
  H34      1.0000 0.19070  0.27390  0.26870  Biso   1.000  H
  H35      1.0000 0.34140  0.41510  0.27370  Biso   1.000  H
  H36      1.0000 0.31020  0.55860  0.27520  Biso   1.000  H
  C28      1.0000 0.18490  0.37330  0.36300  Biso   1.000  C
  C29      1.0000 0.22860  0.31580  0.28442  Biso   1.000  C
  H37      1.0000 0.28070  0.30710  0.27680  Biso   1.000  H
  C30      1.0000 0.20850  0.39820  0.28323  Biso   1.000  C
  H38      1.0000 0.25000  0.45920  0.27280  Biso   1.000  H
  B28      1.0000 0.16800  0.34440  0.33120  Biso   1.000  B
  B29      1.0000 0.08280  0.33610  0.31160  Biso   1.000  B
  H39      1.0000 0.02990  0.33760  0.32220  Biso   1.000  H
  B30      1.0000 0.09650  0.25060  0.31510  Biso   1.000  B
  H40      1.0000 0.05230  0.19640  0.32810  Biso   1.000  H
  B31      1.0000 0.20010  0.27950  0.31450  Biso   1.000  B
  H41      1.0000 0.22580  0.24670  0.32700  Biso   1.000  H
  B32      1.0000 0.25390  0.38740  0.30750  Biso   1.000  B
  H42      1.0000 0.32110  0.42860  0.31280  Biso   1.000  H
  B33      1.0000 0.18240  0.42850  0.30800  Biso   1.000  B
  H43      1.0000 0.19880  0.49240  0.31510  Biso   1.000  H
  B34      1.0000 0.11900  0.37940  0.27895  Biso   1.000  B
  H44      1.0000 0.09200  0.41300  0.26750  Biso   1.000  H
  B35      1.0000 0.06690  0.27140  0.28075  Biso   1.000  B
  H45      1.0000 0.00380  0.23210  0.27140  Biso   1.000  H
  B36      1.0000 0.13920  0.23630  0.28242  Biso   1.000  B
  H46      1.0000 0.12410  0.17440  0.27370  Biso   1.000  H
  Cu3      1.0000 0.52570  0.47480  0.47730  Biso   1.000  Cu
  O9       1.0000 0.56290  0.58330  0.46300  Biso   1.000  O
  O10      1.0000 0.48240  0.37370  0.49580  Biso   1.000  O
  O11      1.0000 0.62450  0.52050  0.49680  Biso   1.000  O
  O12      1.0000 0.42030  0.43610  0.46290  Biso   1.000  O
  C31      1.0000 0.54950  0.63870  0.47780  Biso   1.000  C
  C32      1.0000 0.56350  0.71690  0.46090  Biso   1.000  C
  C33      1.0000 0.55420  0.77520  0.47470  Biso   1.000  C
  C34      1.0000 0.58290  0.72630  0.43360  Biso   1.000  C
  H47      1.0000 0.53900  0.76740  0.49370  Biso   1.000  H
  C35      1.0000 0.56640  0.84470  0.46130  Biso   1.000  C
  C36      1.0000 0.59280  0.79500  0.42000  Biso   1.000  C
  H48      1.0000 0.58970  0.68560  0.42400  Biso   1.000  H
  C37      1.0000 0.58090  0.85250  0.43360  Biso   1.000  C
  C38      1.0000 0.54730  0.91090  0.47580  Biso   1.000  C
  C39      1.0000 0.60040  0.80160  0.38990  Biso   1.000  C
  H49      1.0000 0.58270  0.89750  0.42370  Biso   1.000  H
  C40      1.0000 0.59280  0.80040  0.36360  Biso   1.000  C
  B37      1.0000 0.58460  0.79770  0.33080  Biso   1.000  B
  B38      1.0000 0.58850  0.71730  0.31150  Biso   1.000  B
  B39      1.0000 0.67530  0.82060  0.31070  Biso   1.000  B
  B40      1.0000 0.63790  0.89250  0.31100  Biso   1.000  B
  B41      1.0000 0.52940  0.83060  0.31000  Biso   1.000  B
  B42      1.0000 0.49570  0.72370  0.31210  Biso   1.000  B
  H50      1.0000 0.59080  0.66460  0.32190  Biso   1.000  H
  B43      1.0000 0.53320  0.70530  0.28040  Biso   1.000  B
  B44      1.0000 0.64410  0.76020  0.28020  Biso   1.000  B
  H51      1.0000 0.73600  0.83700  0.32080  Biso   1.000  H
  B45      1.0000 0.66940  0.86740  0.27960  Biso   1.000  B
  C41      1.0000 0.58630  0.87150  0.28270  Biso   1.000  C
  H52      1.0000 0.67200  0.95500  0.32120  Biso   1.000  H
  C42      1.0000 0.50450  0.77090  0.28390  Biso   1.000  C
  H53      1.0000 0.48930  0.85480  0.31840  Biso   1.000  H
  H54      1.0000 0.43710  0.67680  0.32280  Biso   1.000  H
  H55      1.0000 0.49550  0.64360  0.26990  Biso   1.000  H
  H56      1.0000 0.68340  0.73570  0.27130  Biso   1.000  H
  H57      1.0000 0.72610  0.91680  0.26870  Biso   1.000  H
  H58      1.0000 0.58490  0.92630  0.27370  Biso   1.000  H
  H59      1.0000 0.44140  0.75160  0.27520  Biso   1.000  H
  C43      1.0000 0.62670  0.81160  0.36300  Biso   1.000  C
  C44      1.0000 0.68420  0.91280  0.28442  Biso   1.000  C
  H60      1.0000 0.69290  0.97360  0.27680  Biso   1.000  H
  C45      1.0000 0.60180  0.81030  0.28323  Biso   1.000  C
  H61      1.0000 0.54080  0.79080  0.27280  Biso   1.000  H
  B46      1.0000 0.65560  0.82360  0.33120  Biso   1.000  B
  B47      1.0000 0.66390  0.74670  0.31160  Biso   1.000  B
  H62      1.0000 0.66240  0.69230  0.32220  Biso   1.000  H
  B48      1.0000 0.74940  0.84590  0.31510  Biso   1.000  B
  H63      1.0000 0.80360  0.85590  0.32810  Biso   1.000  H
  B49      1.0000 0.72050  0.92060  0.31450  Biso   1.000  B
  H64      1.0000 0.75330  0.97910  0.32700  Biso   1.000  H
  B50      1.0000 0.61260  0.86650  0.30750  Biso   1.000  B
  H65      1.0000 0.57140  0.89250  0.31280  Biso   1.000  H
  B51      1.0000 0.57150  0.75390  0.30800  Biso   1.000  B
  H66      1.0000 0.50760  0.70640  0.31510  Biso   1.000  H
  B52      1.0000 0.62060  0.73960  0.27895  Biso   1.000  B
  H67      1.0000 0.58700  0.67900  0.26750  Biso   1.000  H
  B53      1.0000 0.72860  0.79550  0.28075  Biso   1.000  B
  H68      1.0000 0.76790  0.77170  0.27140  Biso   1.000  H
  B54      1.0000 0.76370  0.90290  0.28242  Biso   1.000  B
  H69      1.0000 0.82560  0.94970  0.27370  Biso   1.000  H
  Cu4      1.0000 0.94910  0.47480  0.02270  Biso   1.000  Cu
  O13      1.0000 0.02040  0.58330  0.03700  Biso   1.000  O
  O14      1.0000 0.89130  0.37370  0.00420  Biso   1.000  O
  O15      1.0000 0.89600  0.52050  0.00320  Biso   1.000  O
  O16      1.0000 0.01580  0.43610  0.03710  Biso   1.000  O
  C46      1.0000 0.08920  0.63870  0.02220  Biso   1.000  C
  C47      1.0000 0.15340  0.71690  0.03910  Biso   1.000  C
  C48      1.0000 0.22100  0.77520  0.02530  Biso   1.000  C
  C49      1.0000 0.14340  0.72630  0.06640  Biso   1.000  C
  H70      1.0000 0.22840  0.76740  0.00630  Biso   1.000  H
  C50      1.0000 0.27830  0.84470  0.03870  Biso   1.000  C
  C51      1.0000 0.20220  0.79500  0.08000  Biso   1.000  C
  H71      1.0000 0.09590  0.68560  0.07600  Biso   1.000  H
  C52      1.0000 0.27160  0.85250  0.06640  Biso   1.000  C
  C53      1.0000 0.36360  0.91090  0.02420  Biso   1.000  C
  C54      1.0000 0.20120  0.80160  0.11010  Biso   1.000  C
  H72      1.0000 0.31480  0.89750  0.07630  Biso   1.000  H
  C55      1.0000 0.20760  0.80040  0.13640  Biso   1.000  C
  B55      1.0000 0.21310  0.79770  0.16920  Biso   1.000  B
  B56      1.0000 0.12880  0.71730  0.18850  Biso   1.000  B
  B57      1.0000 0.14530  0.82060  0.18930  Biso   1.000  B
  B58      1.0000 0.25460  0.89250  0.18900  Biso   1.000  B
  B59      1.0000 0.30120  0.83060  0.19000  Biso   1.000  B
  B60      1.0000 0.22800  0.72370  0.18790  Biso   1.000  B
  H73      1.0000 0.07380  0.66460  0.17810  Biso   1.000  H
  B61      1.0000 0.17210  0.70530  0.21960  Biso   1.000  B
  B62      1.0000 0.11610  0.76020  0.21980  Biso   1.000  B
  H74      1.0000 0.10100  0.83700  0.17920  Biso   1.000  H
  B63      1.0000 0.19800  0.86740  0.22040  Biso   1.000  B
  C56      1.0000 0.28520  0.87150  0.21730  Biso   1.000  C
  H75      1.0000 0.28300  0.95500  0.17880  Biso   1.000  H
  C57      1.0000 0.26640  0.77090  0.21610  Biso   1.000  C
  H76      1.0000 0.36550  0.85480  0.18160  Biso   1.000  H
  H77      1.0000 0.23970  0.67680  0.17720  Biso   1.000  H
  H78      1.0000 0.14810  0.64360  0.23010  Biso   1.000  H
  H79      1.0000 0.05230  0.73570  0.22870  Biso   1.000  H
  H80      1.0000 0.19070  0.91680  0.23130  Biso   1.000  H
  H81      1.0000 0.34140  0.92630  0.22630  Biso   1.000  H
  H82      1.0000 0.31020  0.75160  0.22480  Biso   1.000  H
  C58      1.0000 0.18490  0.81160  0.13700  Biso   1.000  C
  C59      1.0000 0.22860  0.91280  0.21558  Biso   1.000  C
  H83      1.0000 0.28070  0.97360  0.22320  Biso   1.000  H
  C60      1.0000 0.20850  0.81030  0.21677  Biso   1.000  C
  H84      1.0000 0.25000  0.79080  0.22720  Biso   1.000  H
  B64      1.0000 0.16800  0.82360  0.16880  Biso   1.000  B
  B65      1.0000 0.08280  0.74670  0.18840  Biso   1.000  B
  H85      1.0000 0.02990  0.69230  0.17780  Biso   1.000  H
  B66      1.0000 0.09650  0.84590  0.18490  Biso   1.000  B
  H86      1.0000 0.05230  0.85590  0.17190  Biso   1.000  H
  B67      1.0000 0.20010  0.92060  0.18550  Biso   1.000  B
  H87      1.0000 0.22580  0.97910  0.17300  Biso   1.000  H
  B68      1.0000 0.25390  0.86650  0.19250  Biso   1.000  B
  H88      1.0000 0.32110  0.89250  0.18720  Biso   1.000  H
  B69      1.0000 0.18240  0.75390  0.19200  Biso   1.000  B
  H89      1.0000 0.19880  0.70640  0.18490  Biso   1.000  H
  B70      1.0000 0.11900  0.73960  0.22105  Biso   1.000  B
  H90      1.0000 0.09200  0.67900  0.23250  Biso   1.000  H
  B71      1.0000 0.06690  0.79550  0.21925  Biso   1.000  B
  H91      1.0000 0.00380  0.77170  0.22860  Biso   1.000  H
  B72      1.0000 0.13920  0.90290  0.21758  Biso   1.000  B
  H92      1.0000 0.12410  0.94970  0.22630  Biso   1.000  H
  Cu5      1.0000 0.52570  0.05090  0.02270  Biso   1.000  Cu
  O17      1.0000 0.56290  0.97960  0.03700  Biso   1.000  O
  O18      1.0000 0.48240  0.10870  0.00420  Biso   1.000  O
  O19      1.0000 0.62450  0.10400  0.00320  Biso   1.000  O
  O20      1.0000 0.42030  0.98420  0.03710  Biso   1.000  O
  C61      1.0000 0.54950  0.91080  0.02220  Biso   1.000  C
  C62      1.0000 0.56350  0.84660  0.03910  Biso   1.000  C
  C63      1.0000 0.55420  0.77900  0.02530  Biso   1.000  C
  C64      1.0000 0.58290  0.85660  0.06640  Biso   1.000  C
  H93      1.0000 0.53900  0.77160  0.00630  Biso   1.000  H
  C65      1.0000 0.56640  0.72170  0.03870  Biso   1.000  C
  C66      1.0000 0.59280  0.79780  0.08000  Biso   1.000  C
  H94      1.0000 0.58970  0.90410  0.07600  Biso   1.000  H
  C67      1.0000 0.58090  0.72840  0.06640  Biso   1.000  C
  C68      1.0000 0.54730  0.63640  0.02420  Biso   1.000  C
  C69      1.0000 0.60040  0.79880  0.11010  Biso   1.000  C
  H95      1.0000 0.58270  0.68520  0.07630  Biso   1.000  H
  C70      1.0000 0.59280  0.79240  0.13640  Biso   1.000  C
  B73      1.0000 0.58460  0.78690  0.16920  Biso   1.000  B
  B74      1.0000 0.58850  0.87120  0.18850  Biso   1.000  B
  B75      1.0000 0.67530  0.85470  0.18930  Biso   1.000  B
  B76      1.0000 0.63790  0.74540  0.18900  Biso   1.000  B
  B77      1.0000 0.52940  0.69880  0.19000  Biso   1.000  B
  B78      1.0000 0.49570  0.77200  0.18790  Biso   1.000  B
  H96      1.0000 0.59080  0.92620  0.17810  Biso   1.000  H
  B79      1.0000 0.53320  0.82790  0.21960  Biso   1.000  B
  B80      1.0000 0.64410  0.88390  0.21980  Biso   1.000  B
  H97      1.0000 0.73600  0.89900  0.17920  Biso   1.000  H
  B81      1.0000 0.66940  0.80200  0.22040  Biso   1.000  B
  C71      1.0000 0.58630  0.71480  0.21730  Biso   1.000  C
  H98      1.0000 0.67200  0.71700  0.17880  Biso   1.000  H
  C72      1.0000 0.50450  0.73360  0.21610  Biso   1.000  C
  H99      1.0000 0.48930  0.63450  0.18160  Biso   1.000  H
  H100     1.0000 0.43710  0.76030  0.17720  Biso   1.000  H
  H101     1.0000 0.49550  0.85190  0.23010  Biso   1.000  H
  H102     1.0000 0.68340  0.94770  0.22870  Biso   1.000  H
  H103     1.0000 0.72610  0.80930  0.23130  Biso   1.000  H
  H104     1.0000 0.58490  0.65860  0.22630  Biso   1.000  H
  H105     1.0000 0.44140  0.68980  0.22480  Biso   1.000  H
  C73      1.0000 0.62670  0.81510  0.13700  Biso   1.000  C
  C74      1.0000 0.68420  0.77140  0.21558  Biso   1.000  C
  H106     1.0000 0.69290  0.71930  0.22320  Biso   1.000  H
  C75      1.0000 0.60180  0.79150  0.21677  Biso   1.000  C
  H107     1.0000 0.54080  0.75000  0.22720  Biso   1.000  H
  B82      1.0000 0.65560  0.83200  0.16880  Biso   1.000  B
  B83      1.0000 0.66390  0.91720  0.18840  Biso   1.000  B
  H108     1.0000 0.66240  0.97010  0.17780  Biso   1.000  H
  B84      1.0000 0.74940  0.90350  0.18490  Biso   1.000  B
  H109     1.0000 0.80360  0.94770  0.17190  Biso   1.000  H
  B85      1.0000 0.72050  0.79990  0.18550  Biso   1.000  B
  H110     1.0000 0.75330  0.77420  0.17300  Biso   1.000  H
  B86      1.0000 0.61260  0.74610  0.19250  Biso   1.000  B
  H111     1.0000 0.57140  0.67890  0.18720  Biso   1.000  H
  B87      1.0000 0.57150  0.81760  0.19200  Biso   1.000  B
  H112     1.0000 0.50760  0.80120  0.18490  Biso   1.000  H
  B88      1.0000 0.62060  0.88100  0.22105  Biso   1.000  B
  H113     1.0000 0.58700  0.90800  0.23250  Biso   1.000  H
  B89      1.0000 0.72860  0.93310  0.21925  Biso   1.000  B
  H114     1.0000 0.76790  0.99620  0.22860  Biso   1.000  H
  B90      1.0000 0.76370  0.86080  0.21758  Biso   1.000  B
  H115     1.0000 0.82560  0.87590  0.22630  Biso   1.000  H
  Cu6      1.0000 0.52520  0.47430  0.02270  Biso   1.000  Cu
  O21      1.0000 0.41670  0.43710  0.03700  Biso   1.000  O
  O22      1.0000 0.62630  0.51760  0.00420  Biso   1.000  O
  O23      1.0000 0.47950  0.37550  0.00320  Biso   1.000  O
  O24      1.0000 0.56390  0.57970  0.03710  Biso   1.000  O
  C76      1.0000 0.36130  0.45050  0.02220  Biso   1.000  C
  C77      1.0000 0.28310  0.43650  0.03910  Biso   1.000  C
  C78      1.0000 0.22480  0.44580  0.02530  Biso   1.000  C
  C79      1.0000 0.27370  0.41710  0.06640  Biso   1.000  C
  H116     1.0000 0.23260  0.46100  0.00630  Biso   1.000  H
  C80      1.0000 0.15530  0.43360  0.03870  Biso   1.000  C
  C81      1.0000 0.20500  0.40720  0.08000  Biso   1.000  C
  H117     1.0000 0.31440  0.41030  0.07600  Biso   1.000  H
  C82      1.0000 0.14750  0.41910  0.06640  Biso   1.000  C
  C83      1.0000 0.08910  0.45270  0.02420  Biso   1.000  C
  C84      1.0000 0.19840  0.39960  0.11010  Biso   1.000  C
  H118     1.0000 0.10250  0.41730  0.07630  Biso   1.000  H
  C85      1.0000 0.19960  0.40720  0.13640  Biso   1.000  C
  B91      1.0000 0.20230  0.41540  0.16920  Biso   1.000  B
  B92      1.0000 0.28270  0.41150  0.18850  Biso   1.000  B
  B93      1.0000 0.17940  0.32470  0.18930  Biso   1.000  B
  B94      1.0000 0.10750  0.36210  0.18900  Biso   1.000  B
  B95      1.0000 0.16940  0.47060  0.19000  Biso   1.000  B
  B96      1.0000 0.27630  0.50430  0.18790  Biso   1.000  B
  H119     1.0000 0.33540  0.40920  0.17810  Biso   1.000  H
  B97      1.0000 0.29470  0.46680  0.21960  Biso   1.000  B
  B98      1.0000 0.23980  0.35590  0.21980  Biso   1.000  B
  H120     1.0000 0.16300  0.26400  0.17920  Biso   1.000  H
  B99      1.0000 0.13260  0.33060  0.22040  Biso   1.000  B
  C86      1.0000 0.12850  0.41370  0.21730  Biso   1.000  C
  H121     1.0000 0.04500  0.32800  0.17880  Biso   1.000  H
  C87      1.0000 0.22910  0.49550  0.21610  Biso   1.000  C
  H122     1.0000 0.14520  0.51070  0.18160  Biso   1.000  H
  H123     1.0000 0.32320  0.56290  0.17720  Biso   1.000  H
  H124     1.0000 0.35640  0.50450  0.23010  Biso   1.000  H
  H125     1.0000 0.26430  0.31660  0.22870  Biso   1.000  H
  H126     1.0000 0.08320  0.27390  0.23130  Biso   1.000  H
  H127     1.0000 0.07370  0.41510  0.22630  Biso   1.000  H
  H128     1.0000 0.24840  0.55860  0.22480  Biso   1.000  H
  C88      1.0000 0.18840  0.37330  0.13700  Biso   1.000  C
  C89      1.0000 0.08720  0.31580  0.21558  Biso   1.000  C
  H129     1.0000 0.02640  0.30710  0.22320  Biso   1.000  H
  C90      1.0000 0.18970  0.39820  0.21677  Biso   1.000  C
  H130     1.0000 0.20920  0.45920  0.22720  Biso   1.000  H
  B100     1.0000 0.17640  0.34440  0.16880  Biso   1.000  B
  B101     1.0000 0.25330  0.33610  0.18840  Biso   1.000  B
  H131     1.0000 0.30770  0.33760  0.17780  Biso   1.000  H
  B102     1.0000 0.15410  0.25060  0.18490  Biso   1.000  B
  H132     1.0000 0.14410  0.19640  0.17190  Biso   1.000  H
  B103     1.0000 0.07940  0.27950  0.18550  Biso   1.000  B
  H133     1.0000 0.02090  0.24670  0.17300  Biso   1.000  H
  B104     1.0000 0.13350  0.38740  0.19250  Biso   1.000  B
  H134     1.0000 0.10750  0.42860  0.18720  Biso   1.000  H
  B105     1.0000 0.24610  0.42850  0.19200  Biso   1.000  B
  H135     1.0000 0.29360  0.49240  0.18490  Biso   1.000  H
  B106     1.0000 0.26040  0.37940  0.22105  Biso   1.000  B
  H136     1.0000 0.32100  0.41300  0.23250  Biso   1.000  H
  B107     1.0000 0.20450  0.27140  0.21925  Biso   1.000  B
  H137     1.0000 0.22830  0.23210  0.22860  Biso   1.000  H
  B108     1.0000 0.09710  0.23630  0.21758  Biso   1.000  B
  H138     1.0000 0.05030  0.17440  0.22630  Biso   1.000  H
  Cu7      1.0000 0.47480  0.94910  0.52270  Biso   1.000  Cu
  O25      1.0000 0.58330  0.02040  0.53700  Biso   1.000  O
  O26      1.0000 0.37370  0.89130  0.50420  Biso   1.000  O
  O27      1.0000 0.52050  0.89600  0.50320  Biso   1.000  O
  O28      1.0000 0.43610  0.01580  0.53710  Biso   1.000  O
  C91      1.0000 0.63870  0.08920  0.52220  Biso   1.000  C
  C92      1.0000 0.71690  0.15340  0.53910  Biso   1.000  C
  C93      1.0000 0.77520  0.22100  0.52530  Biso   1.000  C
  C94      1.0000 0.72630  0.14340  0.56640  Biso   1.000  C
  H139     1.0000 0.76740  0.22840  0.50630  Biso   1.000  H
  C95      1.0000 0.84470  0.27830  0.53870  Biso   1.000  C
  C96      1.0000 0.79500  0.20220  0.58000  Biso   1.000  C
  H140     1.0000 0.68560  0.09590  0.57600  Biso   1.000  H
  C97      1.0000 0.85250  0.27160  0.56640  Biso   1.000  C
  C98      1.0000 0.91090  0.36360  0.52420  Biso   1.000  C
  C99      1.0000 0.80160  0.20120  0.61010  Biso   1.000  C
  H141     1.0000 0.89750  0.31480  0.57630  Biso   1.000  H
  C100     1.0000 0.80040  0.20760  0.63640  Biso   1.000  C
  B109     1.0000 0.79770  0.21310  0.66920  Biso   1.000  B
  B110     1.0000 0.71730  0.12880  0.68850  Biso   1.000  B
  B111     1.0000 0.82060  0.14530  0.68930  Biso   1.000  B
  B112     1.0000 0.89250  0.25460  0.68900  Biso   1.000  B
  B113     1.0000 0.83060  0.30120  0.69000  Biso   1.000  B
  B114     1.0000 0.72370  0.22800  0.68790  Biso   1.000  B
  H142     1.0000 0.66460  0.07380  0.67810  Biso   1.000  H
  B115     1.0000 0.70530  0.17210  0.71960  Biso   1.000  B
  B116     1.0000 0.76020  0.11610  0.71980  Biso   1.000  B
  H143     1.0000 0.83700  0.10100  0.67920  Biso   1.000  H
  B117     1.0000 0.86740  0.19800  0.72040  Biso   1.000  B
  C101     1.0000 0.87150  0.28520  0.71730  Biso   1.000  C
  H144     1.0000 0.95500  0.28300  0.67880  Biso   1.000  H
  C102     1.0000 0.77090  0.26640  0.71610  Biso   1.000  C
  H145     1.0000 0.85480  0.36550  0.68160  Biso   1.000  H
  H146     1.0000 0.67680  0.23970  0.67720  Biso   1.000  H
  H147     1.0000 0.64360  0.14810  0.73010  Biso   1.000  H
  H148     1.0000 0.73570  0.05230  0.72870  Biso   1.000  H
  H149     1.0000 0.91680  0.19070  0.73130  Biso   1.000  H
  H150     1.0000 0.92630  0.34140  0.72630  Biso   1.000  H
  H151     1.0000 0.75160  0.31020  0.72480  Biso   1.000  H
  C103     1.0000 0.81160  0.18490  0.63700  Biso   1.000  C
  C104     1.0000 0.91280  0.22860  0.71558  Biso   1.000  C
  H152     1.0000 0.97360  0.28070  0.72320  Biso   1.000  H
  C105     1.0000 0.81030  0.20850  0.71677  Biso   1.000  C
  H153     1.0000 0.79080  0.25000  0.72720  Biso   1.000  H
  B118     1.0000 0.82360  0.16800  0.66880  Biso   1.000  B
  B119     1.0000 0.74670  0.08280  0.68840  Biso   1.000  B
  H154     1.0000 0.69230  0.02990  0.67780  Biso   1.000  H
  B120     1.0000 0.84590  0.09650  0.68490  Biso   1.000  B
  H155     1.0000 0.85590  0.05230  0.67190  Biso   1.000  H
  B121     1.0000 0.92060  0.20010  0.68550  Biso   1.000  B
  H156     1.0000 0.97910  0.22580  0.67300  Biso   1.000  H
  B122     1.0000 0.86650  0.25390  0.69250  Biso   1.000  B
  H157     1.0000 0.89250  0.32110  0.68720  Biso   1.000  H
  B123     1.0000 0.75390  0.18240  0.69200  Biso   1.000  B
  H158     1.0000 0.70640  0.19880  0.68490  Biso   1.000  H
  B124     1.0000 0.73960  0.11900  0.72105  Biso   1.000  B
  H159     1.0000 0.67900  0.09200  0.73250  Biso   1.000  H
  B125     1.0000 0.79550  0.06690  0.71925  Biso   1.000  B
  H160     1.0000 0.77170  0.00380  0.72860  Biso   1.000  H
  B126     1.0000 0.90290  0.13920  0.71758  Biso   1.000  B
  H161     1.0000 0.94970  0.12410  0.72630  Biso   1.000  H
  Cu8      1.0000 0.05090  0.52570  0.52270  Biso   1.000  Cu
  O29      1.0000 0.97960  0.56290  0.53700  Biso   1.000  O
  O30      1.0000 0.10870  0.48240  0.50420  Biso   1.000  O
  O31      1.0000 0.10400  0.62450  0.50320  Biso   1.000  O
  O32      1.0000 0.98420  0.42030  0.53710  Biso   1.000  O
  C106     1.0000 0.91080  0.54950  0.52220  Biso   1.000  C
  C107     1.0000 0.84660  0.56350  0.53910  Biso   1.000  C
  C108     1.0000 0.77900  0.55420  0.52530  Biso   1.000  C
  C109     1.0000 0.85660  0.58290  0.56640  Biso   1.000  C
  H162     1.0000 0.77160  0.53900  0.50630  Biso   1.000  H
  C110     1.0000 0.72170  0.56640  0.53870  Biso   1.000  C
  C111     1.0000 0.79780  0.59280  0.58000  Biso   1.000  C
  H163     1.0000 0.90410  0.58970  0.57600  Biso   1.000  H
  C112     1.0000 0.72840  0.58090  0.56640  Biso   1.000  C
  C113     1.0000 0.63640  0.54730  0.52420  Biso   1.000  C
  C114     1.0000 0.79880  0.60040  0.61010  Biso   1.000  C
  H164     1.0000 0.68520  0.58270  0.57630  Biso   1.000  H
  C115     1.0000 0.79240  0.59280  0.63640  Biso   1.000  C
  B127     1.0000 0.78690  0.58460  0.66920  Biso   1.000  B
  B128     1.0000 0.87120  0.58850  0.68850  Biso   1.000  B
  B129     1.0000 0.85470  0.67530  0.68930  Biso   1.000  B
  B130     1.0000 0.74540  0.63790  0.68900  Biso   1.000  B
  B131     1.0000 0.69880  0.52940  0.69000  Biso   1.000  B
  B132     1.0000 0.77200  0.49570  0.68790  Biso   1.000  B
  H165     1.0000 0.92620  0.59080  0.67810  Biso   1.000  H
  B133     1.0000 0.82790  0.53320  0.71960  Biso   1.000  B
  B134     1.0000 0.88390  0.64410  0.71980  Biso   1.000  B
  H166     1.0000 0.89900  0.73600  0.67920  Biso   1.000  H
  B135     1.0000 0.80200  0.66940  0.72040  Biso   1.000  B
  C116     1.0000 0.71480  0.58630  0.71730  Biso   1.000  C
  H167     1.0000 0.71700  0.67200  0.67880  Biso   1.000  H
  C117     1.0000 0.73360  0.50450  0.71610  Biso   1.000  C
  H168     1.0000 0.63450  0.48930  0.68160  Biso   1.000  H
  H169     1.0000 0.76030  0.43710  0.67720  Biso   1.000  H
  H170     1.0000 0.85190  0.49550  0.73010  Biso   1.000  H
  H171     1.0000 0.94770  0.68340  0.72870  Biso   1.000  H
  H172     1.0000 0.80930  0.72610  0.73130  Biso   1.000  H
  H173     1.0000 0.65860  0.58490  0.72630  Biso   1.000  H
  H174     1.0000 0.68980  0.44140  0.72480  Biso   1.000  H
  C118     1.0000 0.81510  0.62670  0.63700  Biso   1.000  C
  C119     1.0000 0.77140  0.68420  0.71558  Biso   1.000  C
  H175     1.0000 0.71930  0.69290  0.72320  Biso   1.000  H
  C120     1.0000 0.79150  0.60180  0.71677  Biso   1.000  C
  H176     1.0000 0.75000  0.54080  0.72720  Biso   1.000  H
  B136     1.0000 0.83200  0.65560  0.66880  Biso   1.000  B
  B137     1.0000 0.91720  0.66390  0.68840  Biso   1.000  B
  H177     1.0000 0.97010  0.66240  0.67780  Biso   1.000  H
  B138     1.0000 0.90350  0.74940  0.68490  Biso   1.000  B
  H178     1.0000 0.94770  0.80360  0.67190  Biso   1.000  H
  B139     1.0000 0.79990  0.72050  0.68550  Biso   1.000  B
  H179     1.0000 0.77420  0.75330  0.67300  Biso   1.000  H
  B140     1.0000 0.74610  0.61260  0.69250  Biso   1.000  B
  H180     1.0000 0.67890  0.57140  0.68720  Biso   1.000  H
  B141     1.0000 0.81760  0.57150  0.69200  Biso   1.000  B
  H181     1.0000 0.80120  0.50760  0.68490  Biso   1.000  H
  B142     1.0000 0.88100  0.62060  0.72105  Biso   1.000  B
  H182     1.0000 0.90800  0.58700  0.73250  Biso   1.000  H
  B143     1.0000 0.93310  0.72860  0.71925  Biso   1.000  B
  H183     1.0000 0.99620  0.76790  0.72860  Biso   1.000  H
  B144     1.0000 0.86080  0.76370  0.71758  Biso   1.000  B
  H184     1.0000 0.87590  0.82560  0.72630  Biso   1.000  H
  Cu9      1.0000 0.47430  0.52520  0.52270  Biso   1.000  Cu
  O33      1.0000 0.43710  0.41670  0.53700  Biso   1.000  O
  O34      1.0000 0.51760  0.62630  0.50420  Biso   1.000  O
  O35      1.0000 0.37550  0.47950  0.50320  Biso   1.000  O
  O36      1.0000 0.57970  0.56390  0.53710  Biso   1.000  O
  C121     1.0000 0.45050  0.36130  0.52220  Biso   1.000  C
  C122     1.0000 0.43650  0.28310  0.53910  Biso   1.000  C
  C123     1.0000 0.44580  0.22480  0.52530  Biso   1.000  C
  C124     1.0000 0.41710  0.27370  0.56640  Biso   1.000  C
  H185     1.0000 0.46100  0.23260  0.50630  Biso   1.000  H
  C125     1.0000 0.43360  0.15530  0.53870  Biso   1.000  C
  C126     1.0000 0.40720  0.20500  0.58000  Biso   1.000  C
  H186     1.0000 0.41030  0.31440  0.57600  Biso   1.000  H
  C127     1.0000 0.41910  0.14750  0.56640  Biso   1.000  C
  C128     1.0000 0.45270  0.08910  0.52420  Biso   1.000  C
  C129     1.0000 0.39960  0.19840  0.61010  Biso   1.000  C
  H187     1.0000 0.41730  0.10250  0.57630  Biso   1.000  H
  C130     1.0000 0.40720  0.19960  0.63640  Biso   1.000  C
  B145     1.0000 0.41540  0.20230  0.66920  Biso   1.000  B
  B146     1.0000 0.41150  0.28270  0.68850  Biso   1.000  B
  B147     1.0000 0.32470  0.17940  0.68930  Biso   1.000  B
  B148     1.0000 0.36210  0.10750  0.68900  Biso   1.000  B
  B149     1.0000 0.47060  0.16940  0.69000  Biso   1.000  B
  B150     1.0000 0.50430  0.27630  0.68790  Biso   1.000  B
  H188     1.0000 0.40920  0.33540  0.67810  Biso   1.000  H
  B151     1.0000 0.46680  0.29470  0.71960  Biso   1.000  B
  B152     1.0000 0.35590  0.23980  0.71980  Biso   1.000  B
  H189     1.0000 0.26400  0.16300  0.67920  Biso   1.000  H
  B153     1.0000 0.33060  0.13260  0.72040  Biso   1.000  B
  C131     1.0000 0.41370  0.12850  0.71730  Biso   1.000  C
  H190     1.0000 0.32800  0.04500  0.67880  Biso   1.000  H
  C132     1.0000 0.49550  0.22910  0.71610  Biso   1.000  C
  H191     1.0000 0.51070  0.14520  0.68160  Biso   1.000  H
  H192     1.0000 0.56290  0.32320  0.67720  Biso   1.000  H
  H193     1.0000 0.50450  0.35640  0.73010  Biso   1.000  H
  H194     1.0000 0.31660  0.26430  0.72870  Biso   1.000  H
  H195     1.0000 0.27390  0.08320  0.73130  Biso   1.000  H
  H196     1.0000 0.41510  0.07370  0.72630  Biso   1.000  H
  H197     1.0000 0.55860  0.24840  0.72480  Biso   1.000  H
  C133     1.0000 0.37330  0.18840  0.63700  Biso   1.000  C
  C134     1.0000 0.31580  0.08720  0.71558  Biso   1.000  C
  H198     1.0000 0.30710  0.02640  0.72320  Biso   1.000  H
  C135     1.0000 0.39820  0.18970  0.71677  Biso   1.000  C
  H199     1.0000 0.45920  0.20920  0.72720  Biso   1.000  H
  B154     1.0000 0.34440  0.17640  0.66880  Biso   1.000  B
  B155     1.0000 0.33610  0.25330  0.68840  Biso   1.000  B
  H200     1.0000 0.33760  0.30770  0.67780  Biso   1.000  H
  B156     1.0000 0.25060  0.15410  0.68490  Biso   1.000  B
  H201     1.0000 0.19640  0.14410  0.67190  Biso   1.000  H
  B157     1.0000 0.27950  0.07940  0.68550  Biso   1.000  B
  H202     1.0000 0.24670  0.02090  0.67300  Biso   1.000  H
  B158     1.0000 0.38740  0.13350  0.69250  Biso   1.000  B
  H203     1.0000 0.42860  0.10750  0.68720  Biso   1.000  H
  B159     1.0000 0.42850  0.24610  0.69200  Biso   1.000  B
  H204     1.0000 0.49240  0.29360  0.68490  Biso   1.000  H
  B160     1.0000 0.37940  0.26040  0.72105  Biso   1.000  B
  H205     1.0000 0.41300  0.32100  0.73250  Biso   1.000  H
  B161     1.0000 0.27140  0.20450  0.71925  Biso   1.000  B
  H206     1.0000 0.23210  0.22830  0.72860  Biso   1.000  H
  B162     1.0000 0.23630  0.09710  0.71758  Biso   1.000  B
  H207     1.0000 0.17440  0.05030  0.72630  Biso   1.000  H
  Cu10     1.0000 0.05090  0.52520  0.97730  Biso   1.000  Cu
  O37      1.0000 0.97960  0.41670  0.96300  Biso   1.000  O
  O38      1.0000 0.10870  0.62630  0.99580  Biso   1.000  O
  O39      1.0000 0.10400  0.47950  0.99680  Biso   1.000  O
  O40      1.0000 0.98420  0.56390  0.96290  Biso   1.000  O
  C136     1.0000 0.91080  0.36130  0.97780  Biso   1.000  C
  C137     1.0000 0.84660  0.28310  0.96090  Biso   1.000  C
  C138     1.0000 0.77900  0.22480  0.97470  Biso   1.000  C
  C139     1.0000 0.85660  0.27370  0.93360  Biso   1.000  C
  H208     1.0000 0.77160  0.23260  0.99370  Biso   1.000  H
  C140     1.0000 0.72170  0.15530  0.96130  Biso   1.000  C
  C141     1.0000 0.79780  0.20500  0.92000  Biso   1.000  C
  H209     1.0000 0.90410  0.31440  0.92400  Biso   1.000  H
  C142     1.0000 0.72840  0.14750  0.93360  Biso   1.000  C
  C143     1.0000 0.63640  0.08910  0.97580  Biso   1.000  C
  C144     1.0000 0.79880  0.19840  0.88990  Biso   1.000  C
  H210     1.0000 0.68520  0.10250  0.92370  Biso   1.000  H
  C145     1.0000 0.79240  0.19960  0.86360  Biso   1.000  C
  B163     1.0000 0.78690  0.20230  0.83080  Biso   1.000  B
  B164     1.0000 0.87120  0.28270  0.81150  Biso   1.000  B
  B165     1.0000 0.85470  0.17940  0.81070  Biso   1.000  B
  B166     1.0000 0.74540  0.10750  0.81100  Biso   1.000  B
  B167     1.0000 0.69880  0.16940  0.81000  Biso   1.000  B
  B168     1.0000 0.77200  0.27630  0.81210  Biso   1.000  B
  H211     1.0000 0.92620  0.33540  0.82190  Biso   1.000  H
  B169     1.0000 0.82790  0.29470  0.78040  Biso   1.000  B
  B170     1.0000 0.88390  0.23980  0.78020  Biso   1.000  B
  H212     1.0000 0.89900  0.16300  0.82080  Biso   1.000  H
  B171     1.0000 0.80200  0.13260  0.77960  Biso   1.000  B
  C146     1.0000 0.71480  0.12850  0.78270  Biso   1.000  C
  H213     1.0000 0.71700  0.04500  0.82120  Biso   1.000  H
  C147     1.0000 0.73360  0.22910  0.78390  Biso   1.000  C
  H214     1.0000 0.63450  0.14520  0.81840  Biso   1.000  H
  H215     1.0000 0.76030  0.32320  0.82280  Biso   1.000  H
  H216     1.0000 0.85190  0.35640  0.76990  Biso   1.000  H
  H217     1.0000 0.94770  0.26430  0.77130  Biso   1.000  H
  H218     1.0000 0.80930  0.08320  0.76870  Biso   1.000  H
  H219     1.0000 0.65860  0.07370  0.77370  Biso   1.000  H
  H220     1.0000 0.68980  0.24840  0.77520  Biso   1.000  H
  C148     1.0000 0.81510  0.18840  0.86300  Biso   1.000  C
  C149     1.0000 0.77140  0.08720  0.78442  Biso   1.000  C
  H221     1.0000 0.71930  0.02640  0.77680  Biso   1.000  H
  C150     1.0000 0.79150  0.18970  0.78323  Biso   1.000  C
  H222     1.0000 0.75000  0.20920  0.77280  Biso   1.000  H
  B172     1.0000 0.83200  0.17640  0.83120  Biso   1.000  B
  B173     1.0000 0.91720  0.25330  0.81160  Biso   1.000  B
  H223     1.0000 0.97010  0.30770  0.82220  Biso   1.000  H
  B174     1.0000 0.90350  0.15410  0.81510  Biso   1.000  B
  H224     1.0000 0.94770  0.14410  0.82810  Biso   1.000  H
  B175     1.0000 0.79990  0.07940  0.81450  Biso   1.000  B
  H225     1.0000 0.77420  0.02090  0.82700  Biso   1.000  H
  B176     1.0000 0.74610  0.13350  0.80750  Biso   1.000  B
  H226     1.0000 0.67890  0.10750  0.81280  Biso   1.000  H
  B177     1.0000 0.81760  0.24610  0.80800  Biso   1.000  B
  H227     1.0000 0.80120  0.29360  0.81510  Biso   1.000  H
  B178     1.0000 0.88100  0.26040  0.77895  Biso   1.000  B
  H228     1.0000 0.90800  0.32100  0.76750  Biso   1.000  H
  B179     1.0000 0.93310  0.20450  0.78075  Biso   1.000  B
  H229     1.0000 0.99620  0.22830  0.77140  Biso   1.000  H
  B180     1.0000 0.86080  0.09710  0.78242  Biso   1.000  B
  H230     1.0000 0.87590  0.05030  0.77370  Biso   1.000  H
  Cu11     1.0000 0.47430  0.94910  0.97730  Biso   1.000  Cu
  O41      1.0000 0.43710  0.02040  0.96300  Biso   1.000  O
  O42      1.0000 0.51760  0.89130  0.99580  Biso   1.000  O
  O43      1.0000 0.37550  0.89600  0.99680  Biso   1.000  O
  O44      1.0000 0.57970  0.01580  0.96290  Biso   1.000  O
  C151     1.0000 0.45050  0.08920  0.97780  Biso   1.000  C
  C152     1.0000 0.43650  0.15340  0.96090  Biso   1.000  C
  C153     1.0000 0.44580  0.22100  0.97470  Biso   1.000  C
  C154     1.0000 0.41710  0.14340  0.93360  Biso   1.000  C
  H231     1.0000 0.46100  0.22840  0.99370  Biso   1.000  H
  C155     1.0000 0.43360  0.27830  0.96130  Biso   1.000  C
  C156     1.0000 0.40720  0.20220  0.92000  Biso   1.000  C
  H232     1.0000 0.41030  0.09590  0.92400  Biso   1.000  H
  C157     1.0000 0.41910  0.27160  0.93360  Biso   1.000  C
  C158     1.0000 0.45270  0.36360  0.97580  Biso   1.000  C
  C159     1.0000 0.39960  0.20120  0.88990  Biso   1.000  C
  H233     1.0000 0.41730  0.31480  0.92370  Biso   1.000  H
  C160     1.0000 0.40720  0.20760  0.86360  Biso   1.000  C
  B181     1.0000 0.41540  0.21310  0.83080  Biso   1.000  B
  B182     1.0000 0.41150  0.12880  0.81150  Biso   1.000  B
  B183     1.0000 0.32470  0.14530  0.81070  Biso   1.000  B
  B184     1.0000 0.36210  0.25460  0.81100  Biso   1.000  B
  B185     1.0000 0.47060  0.30120  0.81000  Biso   1.000  B
  B186     1.0000 0.50430  0.22800  0.81210  Biso   1.000  B
  H234     1.0000 0.40920  0.07380  0.82190  Biso   1.000  H
  B187     1.0000 0.46680  0.17210  0.78040  Biso   1.000  B
  B188     1.0000 0.35590  0.11610  0.78020  Biso   1.000  B
  H235     1.0000 0.26400  0.10100  0.82080  Biso   1.000  H
  B189     1.0000 0.33060  0.19800  0.77960  Biso   1.000  B
  C161     1.0000 0.41370  0.28520  0.78270  Biso   1.000  C
  H236     1.0000 0.32800  0.28300  0.82120  Biso   1.000  H
  C162     1.0000 0.49550  0.26640  0.78390  Biso   1.000  C
  H237     1.0000 0.51070  0.36550  0.81840  Biso   1.000  H
  H238     1.0000 0.56290  0.23970  0.82280  Biso   1.000  H
  H239     1.0000 0.50450  0.14810  0.76990  Biso   1.000  H
  H240     1.0000 0.31660  0.05230  0.77130  Biso   1.000  H
  H241     1.0000 0.27390  0.19070  0.76870  Biso   1.000  H
  H242     1.0000 0.41510  0.34140  0.77370  Biso   1.000  H
  H243     1.0000 0.55860  0.31020  0.77520  Biso   1.000  H
  C163     1.0000 0.37330  0.18490  0.86300  Biso   1.000  C
  C164     1.0000 0.31580  0.22860  0.78442  Biso   1.000  C
  H244     1.0000 0.30710  0.28070  0.77680  Biso   1.000  H
  C165     1.0000 0.39820  0.20850  0.78323  Biso   1.000  C
  H245     1.0000 0.45920  0.25000  0.77280  Biso   1.000  H
  B190     1.0000 0.34440  0.16800  0.83120  Biso   1.000  B
  B191     1.0000 0.33610  0.08280  0.81160  Biso   1.000  B
  H246     1.0000 0.33760  0.02990  0.82220  Biso   1.000  H
  B192     1.0000 0.25060  0.09650  0.81510  Biso   1.000  B
  H247     1.0000 0.19640  0.05230  0.82810  Biso   1.000  H
  B193     1.0000 0.27950  0.20010  0.81450  Biso   1.000  B
  H248     1.0000 0.24670  0.22580  0.82700  Biso   1.000  H
  B194     1.0000 0.38740  0.25390  0.80750  Biso   1.000  B
  H249     1.0000 0.42860  0.32110  0.81280  Biso   1.000  H
  B195     1.0000 0.42850  0.18240  0.80800  Biso   1.000  B
  H250     1.0000 0.49240  0.19880  0.81510  Biso   1.000  H
  B196     1.0000 0.37940  0.11900  0.77895  Biso   1.000  B
  H251     1.0000 0.41300  0.09200  0.76750  Biso   1.000  H
  B197     1.0000 0.27140  0.06690  0.78075  Biso   1.000  B
  H252     1.0000 0.23210  0.00380  0.77140  Biso   1.000  H
  B198     1.0000 0.23630  0.13920  0.78242  Biso   1.000  B
  H253     1.0000 0.17440  0.12410  0.77370  Biso   1.000  H
  Cu12     1.0000 0.47480  0.52570  0.97730  Biso   1.000  Cu
  O45      1.0000 0.58330  0.56290  0.96300  Biso   1.000  O
  O46      1.0000 0.37370  0.48240  0.99580  Biso   1.000  O
  O47      1.0000 0.52050  0.62450  0.99680  Biso   1.000  O
  O48      1.0000 0.43610  0.42030  0.96290  Biso   1.000  O
  C166     1.0000 0.63870  0.54950  0.97780  Biso   1.000  C
  C167     1.0000 0.71690  0.56350  0.96090  Biso   1.000  C
  C168     1.0000 0.77520  0.55420  0.97470  Biso   1.000  C
  C169     1.0000 0.72630  0.58290  0.93360  Biso   1.000  C
  H254     1.0000 0.76740  0.53900  0.99370  Biso   1.000  H
  C170     1.0000 0.84470  0.56640  0.96130  Biso   1.000  C
  C171     1.0000 0.79500  0.59280  0.92000  Biso   1.000  C
  H255     1.0000 0.68560  0.58970  0.92400  Biso   1.000  H
  C172     1.0000 0.85250  0.58090  0.93360  Biso   1.000  C
  C173     1.0000 0.91090  0.54730  0.97580  Biso   1.000  C
  C174     1.0000 0.80160  0.60040  0.88990  Biso   1.000  C
  H256     1.0000 0.89750  0.58270  0.92370  Biso   1.000  H
  C175     1.0000 0.80040  0.59280  0.86360  Biso   1.000  C
  B199     1.0000 0.79770  0.58460  0.83080  Biso   1.000  B
  B200     1.0000 0.71730  0.58850  0.81150  Biso   1.000  B
  B201     1.0000 0.82060  0.67530  0.81070  Biso   1.000  B
  B202     1.0000 0.89250  0.63790  0.81100  Biso   1.000  B
  B203     1.0000 0.83060  0.52940  0.81000  Biso   1.000  B
  B204     1.0000 0.72370  0.49570  0.81210  Biso   1.000  B
  H257     1.0000 0.66460  0.59080  0.82190  Biso   1.000  H
  B205     1.0000 0.70530  0.53320  0.78040  Biso   1.000  B
  B206     1.0000 0.76020  0.64410  0.78020  Biso   1.000  B
  H258     1.0000 0.83700  0.73600  0.82080  Biso   1.000  H
  B207     1.0000 0.86740  0.66940  0.77960  Biso   1.000  B
  C176     1.0000 0.87150  0.58630  0.78270  Biso   1.000  C
  H259     1.0000 0.95500  0.67200  0.82120  Biso   1.000  H
  C177     1.0000 0.77090  0.50450  0.78390  Biso   1.000  C
  H260     1.0000 0.85480  0.48930  0.81840  Biso   1.000  H
  H261     1.0000 0.67680  0.43710  0.82280  Biso   1.000  H
  H262     1.0000 0.64360  0.49550  0.76990  Biso   1.000  H
  H263     1.0000 0.73570  0.68340  0.77130  Biso   1.000  H
  H264     1.0000 0.91680  0.72610  0.76870  Biso   1.000  H
  H265     1.0000 0.92630  0.58490  0.77370  Biso   1.000  H
  H266     1.0000 0.75160  0.44140  0.77520  Biso   1.000  H
  C178     1.0000 0.81160  0.62670  0.86300  Biso   1.000  C
  C179     1.0000 0.91280  0.68420  0.78442  Biso   1.000  C
  H267     1.0000 0.97360  0.69290  0.77680  Biso   1.000  H
  C180     1.0000 0.81030  0.60180  0.78323  Biso   1.000  C
  H268     1.0000 0.79080  0.54080  0.77280  Biso   1.000  H
  B208     1.0000 0.82360  0.65560  0.83120  Biso   1.000  B
  B209     1.0000 0.74670  0.66390  0.81160  Biso   1.000  B
  H269     1.0000 0.69230  0.66240  0.82220  Biso   1.000  H
  B210     1.0000 0.84590  0.74940  0.81510  Biso   1.000  B
  H270     1.0000 0.85590  0.80360  0.82810  Biso   1.000  H
  B211     1.0000 0.92060  0.72050  0.81450  Biso   1.000  B
  H271     1.0000 0.97910  0.75330  0.82700  Biso   1.000  H
  B212     1.0000 0.86650  0.61260  0.80750  Biso   1.000  B
  H272     1.0000 0.89250  0.57140  0.81280  Biso   1.000  H
  B213     1.0000 0.75390  0.57150  0.80800  Biso   1.000  B
  H273     1.0000 0.70640  0.50760  0.81510  Biso   1.000  H
  B214     1.0000 0.73960  0.62060  0.77895  Biso   1.000  B
  H274     1.0000 0.67900  0.58700  0.76750  Biso   1.000  H
  B215     1.0000 0.79550  0.72860  0.78075  Biso   1.000  B
  H275     1.0000 0.77170  0.76790  0.77140  Biso   1.000  H
  B216     1.0000 0.90290  0.76370  0.78242  Biso   1.000  B
  H276     1.0000 0.94970  0.82560  0.77370  Biso   1.000  H
  Co1      1.0000 0.20570  0.79430  0.25000  Biso   1.000  Co
  Co2      1.0000 0.15700  0.84300  0.25000  Biso   1.000  Co
  Co3      1.0000 0.20570  0.41140  0.25000  Biso   1.000  Co
  Co4      1.0000 0.15700  0.31400  0.25000  Biso   1.000  Co
  Co5      1.0000 0.58860  0.79430  0.25000  Biso   1.000  Co
  Co6      1.0000 0.68600  0.84300  0.25000  Biso   1.000  Co
  Co7      1.0000 0.79430  0.20570  0.75000  Biso   1.000  Co
  Co8      1.0000 0.84300  0.15700  0.75000  Biso   1.000  Co
  Co9      1.0000 0.79430  0.58860  0.75000  Biso   1.000  Co
  Co10     1.0000 0.84300  0.68600  0.75000  Biso   1.000  Co
  Co11     1.0000 0.41140  0.20570  0.75000  Biso   1.000  Co
  Co12     1.0000 0.31400  0.15700  0.75000  Biso   1.000  Co
