data_SOKXOH_clean
_audit_creation_date              2015-10-16
_audit_creation_method            'Materials Studio'
_symmetry_space_group_name_H-M    'P1'
_symmetry_Int_Tables_number       1
_symmetry_cell_setting            triclinic
loop_
_symmetry_equiv_pos_as_xyz
  x,y,z
_cell_length_a                    36.5490
_cell_length_b                    38.1480
_cell_length_c                    38.3254
_cell_angle_alpha                 119.8470
_cell_angle_beta                  118.4780
_cell_angle_gamma                 90.0001
loop_
_atom_site_label
_atom_site_type_symbol
_atom_site_fract_x
_atom_site_fract_y
_atom_site_fract_z
_atom_site_U_iso_or_equiv
_atom_site_adp_type
_atom_site_occupancy
Co1    Co    0.92595   0.53066   0.38650   0.01267  Uiso   1.00
Co2    Co    0.42383   0.04384   0.84766   0.01267  Uiso   1.00
Co3    Co    0.92595   0.85584   0.38650   0.01267  Uiso   1.00
Co4    Co    0.46055   0.85584   0.38650   0.01267  Uiso   1.00
Co5    Co    0.42383   0.80382   0.84766   0.01267  Uiso   1.00
Co6    Co    0.07405   0.46934   0.61350   0.01267  Uiso   1.00
Co7    Co    0.07405   0.14416   0.61350   0.01267  Uiso   1.00
Co8    Co    0.46055   0.53066   0.38650   0.01267  Uiso   1.00
Co9    Co    0.53945   0.14416   0.61350   0.01267  Uiso   1.00
Co10   Co    0.57617   0.19618   0.15234   0.01267  Uiso   1.00
Co11   Co    0.53945   0.46934   0.61350   0.01267  Uiso   1.00
Co12   Co    0.57617   0.95616   0.15234   0.01267  Uiso   1.00
Cu1    Cu    0.95188   0.09974   0.19948   0.01267  Uiso   1.00
Cu2    Cu    0.13852   0.33935   0.27704   0.01267  Uiso   1.00
Cu3    Cu    0.04812   0.90026   0.80052   0.01267  Uiso   1.00
Cu4    Cu    0.10325   0.25663   0.20650   0.01267  Uiso   1.00
Cu5    Cu    0.75240   0.90026   0.80052   0.01267  Uiso   1.00
Cu6    Cu    0.24760   0.09974   0.19948   0.01267  Uiso   1.00
Cu7    Cu    0.66715   0.86854   0.73708   0.01267  Uiso   1.00
Cu8    Cu    0.19964   0.20222   0.00000   0.01267  Uiso   1.00
Cu9    Cu    0.14539   0.84367   0.00000   0.01267  Uiso   1.00
Cu10   Cu    0.86148   0.06231   0.72296   0.01267  Uiso   1.00
Cu11   Cu    0.89675   0.05013   0.79350   0.01267  Uiso   1.00
Cu12   Cu    0.86148   0.66065   0.72296   0.01267  Uiso   1.00
Cu13   Cu    0.13852   0.93769   0.27704   0.01267  Uiso   1.00
Cu14   Cu    0.10325   0.94987   0.20650   0.01267  Uiso   1.00
Cu15   Cu    0.80036   0.20222  -0.00000   0.01267  Uiso   1.00
Cu16   Cu    0.80036   0.79778   0.00000   0.01267  Uiso   1.00
Cu17   Cu    0.85461   0.84367   0.00000   0.01267  Uiso   1.00
Cu18   Cu    0.19964   0.79778   0.00000   0.01267  Uiso   1.00
Cu19   Cu    0.33285   0.13146   0.26292   0.01267  Uiso   1.00
Cu20   Cu    0.14539   0.15633   0.00000   0.01267  Uiso   1.00
Cu21   Cu    0.89675   0.74337   0.79350   0.01267  Uiso   1.00
Cu22   Cu    0.93007   0.13146   0.26292   0.01267  Uiso   1.00
Cu23   Cu    0.06993   0.86854   0.73708   0.01267  Uiso   1.00
Cu24   Cu    0.85461   0.15633   0.00000   0.01267  Uiso   1.00
B1     B     0.96430   0.87470   0.49160   0.01267  Uiso   1.00
B2     B     0.55980   0.97330   0.20140   0.01267  Uiso   1.00
B3     B     0.07940   0.39100   0.50380   0.01267  Uiso   1.00
B4     B     0.48400   0.21800   0.12920   0.01267  Uiso   1.00
B5     B     0.62790   0.93490   0.09700   0.01267  Uiso   1.00
B6     B     0.95690   0.80360   0.31200   0.01267  Uiso   1.00
B7     B     0.88351   0.49361   0.31262   0.01267  Uiso   1.00
B8     B     0.51160   0.24130   0.19160   0.01267  Uiso   1.00
B9     B     0.53960   0.83500   0.45440   0.01267  Uiso   1.00
B10    B     0.57560   0.60900   0.49620   0.01267  Uiso   1.00
B11    B     0.88850   0.82490   0.39720   0.01267  Uiso   1.00
B12    B     0.92060   0.88720   0.49620   0.01267  Uiso   1.00
B13    B     0.43400   0.46650   0.33740   0.01267  Uiso   1.00
B14    B     0.40820   0.79830   0.33180   0.01267  Uiso   1.00
B15    B     0.89750   0.55400   0.46520   0.01267  Uiso   1.00
B16    B     0.02130   0.51870   0.66020   0.01267  Uiso   1.00
B17    B     0.52040   0.99910   0.19800   0.01267  Uiso   1.00
B18    B     0.50600   0.00990   0.85900   0.01267  Uiso   1.00
B19    B     0.32090   0.04220   0.85000   0.01267  Uiso   1.00
B20    B     0.43230   0.44600   0.53480   0.01267  Uiso   1.00
B21    B     0.59180   0.46650   0.66820   0.01267  Uiso   1.00
B22    B     0.51300   0.91380   0.44220   0.01267  Uiso   1.00
B23    B     0.47960   0.00090   0.80200   0.01267  Uiso   1.00
B24    B     0.03570   0.12530   0.50840   0.01267  Uiso   1.00
B25    B     0.06480   0.54700   0.72140   0.01267  Uiso   1.00
B26    B     0.52730   0.61690   0.49160   0.01267  Uiso   1.00
B27    B     0.53090   0.83790   0.90300   0.01267  Uiso   1.00
B28    B     0.54050   0.23970   0.15780   0.01267  Uiso   1.00
B29    B     0.48840   0.04970   0.80840   0.01267  Uiso   1.00
B30    B     0.42911   0.81901   0.31262   0.01267  Uiso   1.00
B31    B     0.44020   0.02670   0.79860   0.01267  Uiso   1.00
B32    B     0.47270   0.38310   0.50840   0.01267  Uiso   1.00
B33    B     0.43610   0.42020   0.56240   0.01267  Uiso   1.00
B34    B     0.65660   0.54700   0.72140   0.01267  Uiso   1.00
B35    B     0.36110   0.48130   0.33980   0.01267  Uiso   1.00
B36    B     0.43610   0.14220   0.56240   0.01267  Uiso   1.00
B37    B     0.04310   0.49160   0.68800   0.01267  Uiso   1.00
B38    B     0.59170   0.91290   0.10400   0.01267  Uiso   1.00
B39    B     0.57089   0.18099   0.68738   0.01267  Uiso   1.00
B40    B     0.46910   0.93490   0.09700   0.01267  Uiso   1.00
B41    B     0.56770   0.91120   0.46520   0.01267  Uiso   1.00
B42    B     0.48400   0.91120   0.12920   0.01267  Uiso   1.00
B43    B     0.52430   0.87310   0.40540   0.01267  Uiso   1.00
B44    B     0.97870   0.85850   0.33980   0.01267  Uiso   1.00
B45    B     0.51300   0.52840   0.44220   0.01267  Uiso   1.00
B46    B     0.49400   0.15090   0.14100   0.01267  Uiso   1.00
B47    B     0.88760   0.44440   0.27800   0.01267  Uiso   1.00
B48    B     0.47960   0.80110   0.80200   0.01267  Uiso   1.00
B49    B     0.48840   0.75870   0.80840   0.01267  Uiso   1.00
B50    B     0.10250   0.08880   0.53480   0.01267  Uiso   1.00
B51    B     0.92920   0.91380   0.44220   0.01267  Uiso   1.00
B52    B     0.90100   0.78880   0.27500   0.01267  Uiso   1.00
B53    B     0.57089   0.50639   0.68738   0.01267  Uiso   1.00
B54    B     0.34340   0.82560   0.27860   0.01267  Uiso   1.00
B55    B     0.55980   0.22810   0.20140   0.01267  Uiso   1.00
B56    B     0.61730   0.91810   0.15780   0.01267  Uiso   1.00
B57    B     0.47270   0.12530   0.50840   0.01267  Uiso   1.00
B58    B     0.93600   0.44110   0.31780   0.01267  Uiso   1.00
B59    B     0.11649   0.50639   0.68738   0.01267  Uiso   1.00
B60    B     0.38180   0.44110   0.31780   0.01267  Uiso   1.00
B61    B     0.88351   0.81901   0.31262   0.01267  Uiso   1.00
B62    B     0.88110   0.87310   0.40540   0.01267  Uiso   1.00
B63    B     0.47090   0.19220   0.15000   0.01267  Uiso   1.00
B64    B     0.92360   0.53350   0.33180   0.01267  Uiso   1.00
B65    B     0.67910   0.19220   0.15000   0.01267  Uiso   1.00
B66    B     0.11240   0.55560   0.72200   0.01267  Uiso   1.00
B67    B     0.62600   0.51380   0.72500   0.01267  Uiso   1.00
B68    B     0.49130   0.42770   0.60280   0.01267  Uiso   1.00
B69    B     0.65660   0.17440   0.72140   0.01267  Uiso   1.00
B70    B     0.37400   0.78880   0.27500   0.01267  Uiso   1.00
B71    B     0.51600   0.08880   0.87080   0.01267  Uiso   1.00
B72    B     0.45950   0.08190   0.84220   0.01267  Uiso   1.00
B73    B     0.90100   0.48620   0.27500   0.01267  Uiso   1.00
B74    B     0.61820   0.12330   0.68220   0.01267  Uiso   1.00
B75    B     0.06400   0.12330   0.68220   0.01267  Uiso   1.00
B76    B     0.95440   0.92130   0.49840   0.01267  Uiso   1.00
B77    B     0.46040   0.16500   0.54560   0.01267  Uiso   1.00
B78    B     0.07080   0.47160   0.55780   0.01267  Uiso   1.00
B79    B     0.07940   0.11280   0.50380   0.01267  Uiso   1.00
B80    B     0.88760   0.83360   0.27800   0.01267  Uiso   1.00
B81    B     0.90340   0.46650   0.33740   0.01267  Uiso   1.00
B82    B     0.11649   0.18099   0.68738   0.01267  Uiso   1.00
B83    B     0.52730   0.87470   0.49160   0.01267  Uiso   1.00
B84    B     0.92060   0.60900   0.49620   0.01267  Uiso   1.00
B85    B     0.12630   0.14220   0.56240   0.01267  Uiso   1.00
B86    B     0.88850   0.57230   0.39720   0.01267  Uiso   1.00
B87    B     0.11890   0.46770   0.59460   0.01267  Uiso   1.00
B88    B     0.92360   0.79830   0.33180   0.01267  Uiso   1.00
B89    B     0.52910   0.80780   0.85000   0.01267  Uiso   1.00
B90    B     0.35510   0.80360   0.31200   0.01267  Uiso   1.00
B91    B     0.88110   0.53230   0.40540   0.01267  Uiso   1.00
B92    B     0.87370   0.57980   0.43760   0.01267  Uiso   1.00
B93    B     0.64490   0.19640   0.68800   0.01267  Uiso   1.00
B94    B     0.52910   0.04220   0.85000   0.01267  Uiso   1.00
B95    B     0.61820   0.55890   0.68220   0.01267  Uiso   1.00
B96    B     0.37210   0.06510   0.90300   0.01267  Uiso   1.00
B97    B     0.51600   0.78200   0.87080   0.01267  Uiso   1.00
B98    B     0.07080   0.08620   0.55780   0.01267  Uiso   1.00
B99    B     0.59170   0.19110   0.10400   0.01267  Uiso   1.00
B100   B     0.09900   0.21120   0.72500   0.01267  Uiso   1.00
B101   B     0.96430   0.61690   0.49160   0.01267  Uiso   1.00
B102   B     0.36110   0.85850   0.33980   0.01267  Uiso   1.00
B103   B     0.32240   0.00090   0.80200   0.01267  Uiso   1.00
B104   B     0.91480   0.83500   0.45440   0.01267  Uiso   1.00
B105   B     0.35480   0.08880   0.87080   0.01267  Uiso   1.00
B106   B     0.04310   0.19640   0.68800   0.01267  Uiso   1.00
B107   B     0.64520   0.91120   0.12920   0.01267  Uiso   1.00
B108   B     0.50600   0.84910   0.85900   0.01267  Uiso   1.00
B109   B     0.07640   0.46650   0.66820   0.01267  Uiso   1.00
B110   B     0.39040   0.44440   0.27800   0.01267  Uiso   1.00
B111   B     0.50870   0.82490   0.39720   0.01267  Uiso   1.00
B112   B     0.54400   0.92130   0.49840   0.01267  Uiso   1.00
B113   B     0.56600   0.53350   0.66260   0.01267  Uiso   1.00
B114   B     0.48700   0.47160   0.55780   0.01267  Uiso   1.00
B115   B     0.02130   0.14150   0.66020   0.01267  Uiso   1.00
B116   B     0.93600   0.87670   0.31780   0.01267  Uiso   1.00
B117   B     0.56600   0.12910   0.66260   0.01267  Uiso   1.00
B118   B     0.08520   0.16500   0.54560   0.01267  Uiso   1.00
B119   B     0.04560   0.42290   0.50160   0.01267  Uiso   1.00
B120   B     0.06400   0.55890   0.68220   0.01267  Uiso   1.00
B121   B     0.56390   0.57980   0.43760   0.01267  Uiso   1.00
B122   B     0.40830   0.08710   0.89600   0.01267  Uiso   1.00
B123   B     0.67760   0.99910   0.19800   0.01267  Uiso   1.00
B124   B     0.52430   0.53230   0.40540   0.01267  Uiso   1.00
B125   B     0.38180   0.87670   0.31780   0.01267  Uiso   1.00
B126   B     0.45600   0.42290   0.50160   0.01267  Uiso   1.00
B127   B     0.68000   0.24130   0.19160   0.01267  Uiso   1.00
B128   B     0.51160   0.95030   0.19160   0.01267  Uiso   1.00
B129   B     0.64160   0.97330   0.20140   0.01267  Uiso   1.00
B130   B     0.35480   0.78200   0.87080   0.01267  Uiso   1.00
B131   B     0.11150   0.42770   0.60280   0.01267  Uiso   1.00
B132   B     0.53960   0.61940   0.45440   0.01267  Uiso   1.00
B133   B     0.97870   0.48130   0.33980   0.01267  Uiso   1.00
B134   B     0.35300   0.84910   0.85900   0.01267  Uiso   1.00
B135   B     0.48770   0.80890   0.89600   0.01267  Uiso   1.00
B136   B     0.43400   0.87090   0.33740   0.01267  Uiso   1.00
B137   B     0.60960   0.55560   0.72200   0.01267  Uiso   1.00
B138   B     0.32240   0.80110   0.80200   0.01267  Uiso   1.00
B139   B     0.63890   0.14150   0.66020   0.01267  Uiso   1.00
B140   B     0.62790   0.16210   0.09700   0.01267  Uiso   1.00
B141   B     0.08520   0.38060   0.54560   0.01267  Uiso   1.00
B142   B     0.68000   0.95030   0.19160   0.01267  Uiso   1.00
B143   B     0.53090   0.06510   0.90300   0.01267  Uiso   1.00
B144   B     0.48700   0.08620   0.55780   0.01267  Uiso   1.00
B145   B     0.48770   0.08710   0.89600   0.01267  Uiso   1.00
B146   B     0.45950   0.76030   0.84220   0.01267  Uiso   1.00
B147   B     0.56770   0.55400   0.46520   0.01267  Uiso   1.00
B148   B     0.37400   0.48620   0.27500   0.01267  Uiso   1.00
B149   B     0.07640   0.20170   0.66820   0.01267  Uiso   1.00
B150   B     0.42440   0.11280   0.50380   0.01267  Uiso   1.00
B151   B     0.38270   0.76030   0.84220   0.01267  Uiso   1.00
B152   B     0.92920   0.52840   0.44220   0.01267  Uiso   1.00
B153   B     0.61730   0.23970   0.15780   0.01267  Uiso   1.00
B154   B     0.64700   0.15090   0.14100   0.01267  Uiso   1.00
B155   B     0.51230   0.19110   0.10400   0.01267  Uiso   1.00
B156   B     0.64700   0.99010   0.14100   0.01267  Uiso   1.00
B157   B     0.52040   0.19890   0.19800   0.01267  Uiso   1.00
B158   B     0.32000   0.75870   0.80840   0.01267  Uiso   1.00
B159   B     0.63890   0.51870   0.66020   0.01267  Uiso   1.00
B160   B     0.47090   0.95780   0.15000   0.01267  Uiso   1.00
B161   B     0.42911   0.49361   0.31262   0.01267  Uiso   1.00
B162   B     0.93520   0.45300   0.27860   0.01267  Uiso   1.00
B163   B     0.62600   0.21120   0.72500   0.01267  Uiso   1.00
B164   B     0.11890   0.12690   0.59460   0.01267  Uiso   1.00
B165   B     0.10250   0.44600   0.53480   0.01267  Uiso   1.00
B166   B     0.38270   0.08190   0.84220   0.01267  Uiso   1.00
B167   B     0.49400   0.99010   0.14100   0.01267  Uiso   1.00
B168   B     0.11150   0.17510   0.60280   0.01267  Uiso   1.00
B169   B     0.50870   0.57230   0.39720   0.01267  Uiso   1.00
B170   B     0.39040   0.83360   0.27800   0.01267  Uiso   1.00
B171   B     0.40820   0.53350   0.33180   0.01267  Uiso   1.00
B172   B     0.09660   0.12910   0.66260   0.01267  Uiso   1.00
B173   B     0.04560   0.07870   0.50160   0.01267  Uiso   1.00
B174   B     0.43230   0.08880   0.53480   0.01267  Uiso   1.00
B175   B     0.46040   0.38060   0.54560   0.01267  Uiso   1.00
B176   B     0.64490   0.49160   0.68800   0.01267  Uiso   1.00
B177   B     0.40830   0.80890   0.89600   0.01267  Uiso   1.00
B178   B     0.59180   0.20170   0.66820   0.01267  Uiso   1.00
B179   B     0.11240   0.16640   0.72200   0.01267  Uiso   1.00
B180   B     0.93520   0.82560   0.27860   0.01267  Uiso   1.00
B181   B     0.47570   0.46770   0.59460   0.01267  Uiso   1.00
B182   B     0.54400   0.57710   0.49840   0.01267  Uiso   1.00
B183   B     0.56390   0.85780   0.43760   0.01267  Uiso   1.00
B184   B     0.09660   0.53350   0.66260   0.01267  Uiso   1.00
B185   B     0.44020   0.77190   0.79860   0.01267  Uiso   1.00
B186   B     0.89750   0.91120   0.46520   0.01267  Uiso   1.00
B187   B     0.09900   0.51380   0.72500   0.01267  Uiso   1.00
B188   B     0.35840   0.02670   0.79860   0.01267  Uiso   1.00
B189   B     0.46910   0.16210   0.09700   0.01267  Uiso   1.00
B190   B     0.57560   0.88720   0.49620   0.01267  Uiso   1.00
B191   B     0.03570   0.38310   0.50840   0.01267  Uiso   1.00
B192   B     0.67760   0.19890   0.19800   0.01267  Uiso   1.00
B193   B     0.64160   0.22810   0.20140   0.01267  Uiso   1.00
B194   B     0.42440   0.39100   0.50380   0.01267  Uiso   1.00
B195   B     0.91480   0.61940   0.45440   0.01267  Uiso   1.00
B196   B     0.06480   0.17440   0.72140   0.01267  Uiso   1.00
B197   B     0.67910   0.95780   0.15000   0.01267  Uiso   1.00
B198   B     0.47570   0.12690   0.59460   0.01267  Uiso   1.00
B199   B     0.35300   0.00990   0.85900   0.01267  Uiso   1.00
B200   B     0.12630   0.42020   0.56240   0.01267  Uiso   1.00
B201   B     0.87370   0.85780   0.43760   0.01267  Uiso   1.00
B202   B     0.34340   0.45300   0.27860   0.01267  Uiso   1.00
B203   B     0.95690   0.50840   0.31200   0.01267  Uiso   1.00
B204   B     0.95440   0.57710   0.49840   0.01267  Uiso   1.00
B205   B     0.32000   0.04970   0.80840   0.01267  Uiso   1.00
B206   B     0.64520   0.21800   0.12920   0.01267  Uiso   1.00
B207   B     0.45600   0.07870   0.50160   0.01267  Uiso   1.00
B208   B     0.49130   0.17510   0.60280   0.01267  Uiso   1.00
B209   B     0.51230   0.91290   0.10400   0.01267  Uiso   1.00
B210   B     0.35840   0.77190   0.79860   0.01267  Uiso   1.00
B211   B     0.37210   0.83790   0.90300   0.01267  Uiso   1.00
B212   B     0.32090   0.80780   0.85000   0.01267  Uiso   1.00
B213   B     0.60960   0.16640   0.72200   0.01267  Uiso   1.00
B214   B     0.54050   0.91810   0.15780   0.01267  Uiso   1.00
B215   B     0.35510   0.50840   0.31200   0.01267  Uiso   1.00
B216   B     0.90340   0.87090   0.33740   0.01267  Uiso   1.00
H1     H     0.43270   0.03680   0.91400   0.01267  Uiso   1.00
H2     H     0.04040   0.18660   0.58000   0.01267  Uiso   1.00
H3     H     0.81660   0.16550   0.18760   0.01267  Uiso   1.00
H4     H     0.00620   0.12500   0.47920   0.01267  Uiso   1.00
H5     H     0.49200   0.81200   0.92840   0.01267  Uiso   1.00
H6     H     0.02080   0.08030   0.59320   0.01267  Uiso   1.00
H7     H     0.46030   0.89320   0.34420   0.01267  Uiso   1.00
H8     H     0.89330   0.96630   0.62840   0.01267  Uiso   1.00
H9     H     0.65280   0.23460   0.11500   0.01267  Uiso   1.00
H10    H     0.00620   0.35420   0.47920   0.01267  Uiso   1.00
H11    H     0.56240   0.86000   0.93880   0.01267  Uiso   1.00
H12    H     0.40480   0.45940   0.52400   0.01267  Uiso   1.00
H13    H     0.42970   0.96810   0.80960   0.01267  Uiso   1.00
H14    H     0.22950   0.32640   0.12220   0.01267  Uiso   1.00
H15    H     0.63960   0.24400   0.75840   0.01267  Uiso   1.00
H16    H     0.31740   0.89670   0.08900   0.01267  Uiso   1.00
H17    H     0.62010   0.03190   0.19040   0.01267  Uiso   1.00
H18    H     0.06610   0.05890   0.56060   0.01267  Uiso   1.00
H19    H     0.91060   0.65020   0.45900   0.01267  Uiso   1.00
H20    H     0.87450   0.14870   0.11380   0.01267  Uiso   1.00
H21    H     0.88390   0.45100   0.34420   0.01267  Uiso   1.00
H22    H     0.29050   0.05240   0.78200   0.01267  Uiso   1.00
H23    H     0.50850   0.27040   0.21800   0.01267  Uiso   1.00
H24    H     0.77160   0.89670   0.08900   0.01267  Uiso   1.00
H25    H     0.22840   0.80770   0.91100   0.01267  Uiso   1.00
H26    H     0.43760   0.92120   0.06120   0.01267  Uiso   1.00
H27    H     0.56360   0.88360   0.07160   0.01267  Uiso   1.00
H28    H     0.34540   0.87950   0.86600   0.01267  Uiso   1.00
H29    H     0.50800   0.18800   0.07160   0.01267  Uiso   1.00
H30    H     0.11920   0.45940   0.52400   0.01267  Uiso   1.00
H31    H     0.43270   0.87720   0.91400   0.01267  Uiso   1.00
H32    H     0.37990   0.84150   0.80960   0.01267  Uiso   1.00
H33    H     0.91060   0.80880   0.45900   0.01267  Uiso   1.00
H34    H     0.39390   0.73200   0.83860   0.01267  Uiso   1.00
H35    H     0.53960   0.39340   0.58000   0.01267  Uiso   1.00
H36    H     0.57030   0.15850   0.19040   0.01267  Uiso   1.00
H37    H     0.97920   0.91970   0.40680   0.01267  Uiso   1.00
H38    H     0.58950   0.25280   0.23740   0.01267  Uiso   1.00
H39    H     0.47300   0.12500   0.47920   0.01267  Uiso   1.00
H40    H     0.52410   0.02870   0.22980   0.01267  Uiso   1.00
H41    H     0.91940   0.56390   0.33520   0.01267  Uiso   1.00
H42    H     0.60610   0.89340   0.16140   0.01267  Uiso   1.00
H43    H     0.79300   0.14610   0.77080   0.01267  Uiso   1.00
H44    H     0.35210   0.74720   0.76260   0.01267  Uiso   1.00
H45    H     0.02220   0.85390   0.22920   0.01267  Uiso   1.00
H46    H     0.10730   0.67360   0.87780   0.01267  Uiso   1.00
H47    H     0.46730   0.90330   0.46620   0.01267  Uiso   1.00
H48    H     0.62900   0.83450   0.81240   0.01267  Uiso   1.00
H49    H     0.85840   0.41570   0.24620   0.01267  Uiso   1.00
H50    H     0.11880   0.24400   0.75840   0.01267  Uiso   1.00
H51    H     0.68260   0.80770   0.91100   0.01267  Uiso   1.00
H52    H     0.54840   0.65020   0.45900   0.01267  Uiso   1.00
H53    H     0.93390   0.94110   0.43940   0.01267  Uiso   1.00
H54    H     0.54760   0.19440   0.69740   0.01267  Uiso   1.00
H55    H     0.34720   0.76540   0.88500   0.01267  Uiso   1.00
H56    H     0.32830   0.78090   0.30400   0.01267  Uiso   1.00
H57    H     0.48130   0.87720   0.91400   0.01267  Uiso   1.00
H58    H     0.06050   0.59000   0.68740   0.01267  Uiso   1.00
H59    H     0.97780   0.62470   0.77080   0.01267  Uiso   1.00
H60    H     0.02080   0.51290   0.59320   0.01267  Uiso   1.00
H61    H     0.01240   0.47860   0.35100   0.01267  Uiso   1.00
H62    H     0.73510   0.96630   0.62840   0.01267  Uiso   1.00
H63    H     0.63960   0.51440   0.75840   0.01267  Uiso   1.00
H64    H     0.97390   0.86240   0.11560   0.01267  Uiso   1.00
H65    H     0.13450   0.20750   0.63560   0.01267  Uiso   1.00
H66    H     0.73510   0.66210   0.62840   0.01267  Uiso   1.00
H67    H     0.29430   0.79890   0.77020   0.01267  Uiso   1.00
H68    H     0.88080   0.54060   0.47600   0.01267  Uiso   1.00
H69    H     0.06050   0.09740   0.68740   0.01267  Uiso   1.00
H70    H     0.18340   0.83450   0.81240   0.01267  Uiso   1.00
H71    H     0.66250   0.88600   0.63500   0.01267  Uiso   1.00
H72    H     0.99380   0.87500   0.52080   0.01267  Uiso   1.00
H73    H     0.81660   0.02210   0.18760   0.01267  Uiso   1.00
H74    H     0.54840   0.80880   0.45900   0.01267  Uiso   1.00
H75    H     0.35210   0.01540   0.76260   0.01267  Uiso   1.00
H76    H     0.10730   0.20420   0.87780   0.01267  Uiso   1.00
H77    H     0.10670   0.03370   0.37160   0.01267  Uiso   1.00
H78    H     0.70570   0.20110   0.22980   0.01267  Uiso   1.00
H79    H     0.36040   0.48560   0.24160   0.01267  Uiso   1.00
H80    H     0.52060   0.98650   0.86600   0.01267  Uiso   1.00
H81    H     0.52360   0.87290   0.37580   0.01267  Uiso   1.00
H82    H     0.43760   0.14000   0.06120   0.01267  Uiso   1.00
H83    H     0.62690   0.09740   0.68740   0.01267  Uiso   1.00
H84    H     0.58930   0.58290   0.43000   0.01267  Uiso   1.00
H85    H     0.85020   0.49700   0.30260   0.01267  Uiso   1.00
H86    H     0.53780   0.11960   0.88500   0.01267  Uiso   1.00
H87    H     0.51870   0.96320   0.08600   0.01267  Uiso   1.00
H88    H     0.93950   0.90260   0.31260   0.01267  Uiso   1.00
H89    H     0.59840   0.15710   0.60120   0.01267  Uiso   1.00
H90    H     0.04040   0.39340   0.58000   0.01267  Uiso   1.00
H91    H     0.50110   0.42810   0.63560   0.01267  Uiso   1.00
H92    H     0.04030   0.21330   0.25300   0.01267  Uiso   1.00
H93    H     0.14980   0.19440   0.69740   0.01267  Uiso   1.00
H94    H     0.46730   0.56290   0.46620   0.01267  Uiso   1.00
H95    H     0.02430   0.21910   0.69600   0.01267  Uiso   1.00
H96    H     0.47940   0.01350   0.13400   0.01267  Uiso   1.00
H97    H     0.49200   0.11640   0.92840   0.01267  Uiso   1.00
H98    H     0.87450   0.96510   0.11380   0.01267  Uiso   1.00
H99    H     0.97570   0.52310   0.30400   0.01267  Uiso   1.00
H100   H     0.36040   0.75600   0.24160   0.01267  Uiso   1.00
H101   H     0.88080   0.93540   0.47600   0.01267  Uiso   1.00
H102   H     0.50550   0.49830   0.43940   0.01267  Uiso   1.00
H103   H     0.47940   0.12050   0.13400   0.01267  Uiso   1.00
H104   H     0.02290   0.42050   0.46740   0.01267  Uiso   1.00
H105   H     0.55550   0.57950   0.53260   0.01267  Uiso   1.00
H106   H     0.58420   0.43610   0.66480   0.01267  Uiso   1.00
H107   H     0.93390   0.49830   0.43940   0.01267  Uiso   1.00
H108   H     0.97390   0.25320   0.11560   0.01267  Uiso   1.00
H109   H     0.37100   0.16550   0.18760   0.01267  Uiso   1.00
H110   H     0.50110   0.20750   0.63560   0.01267  Uiso   1.00
H111   H     0.97710   0.57950   0.53260   0.01267  Uiso   1.00
H112   H     0.58420   0.22870   0.66480   0.01267  Uiso   1.00
H113   H     0.45160   0.34980   0.54100   0.01267  Uiso   1.00
H114   H     0.95970   0.96030   0.74700   0.01267  Uiso   1.00
H115   H     0.57240   0.51290   0.59320   0.01267  Uiso   1.00
H116   H     0.52700   0.87500   0.52080   0.01267  Uiso   1.00
H117   H     0.23930   0.14870   0.11380   0.01267  Uiso   1.00
H118   H     0.97780   0.14610   0.77080   0.01267  Uiso   1.00
H119   H     0.53960   0.18660   0.58000   0.01267  Uiso   1.00
H120   H     0.70570   0.02870   0.22980   0.01267  Uiso   1.00
H121   H     0.86550   0.79250   0.36440   0.01267  Uiso   1.00
H122   H     0.46040   0.81340   0.42000   0.01267  Uiso   1.00
H123   H     0.46040   0.60660   0.42000   0.01267  Uiso   1.00
H124   H     0.40480   0.06460   0.52400   0.01267  Uiso   1.00
H125   H     0.41050   0.74720   0.76260   0.01267  Uiso   1.00
H126   H     0.65280   0.88040   0.11500   0.01267  Uiso   1.00
H127   H     0.45160   0.19120   0.54100   0.01267  Uiso   1.00
H128   H     0.49890   0.79250   0.36440   0.01267  Uiso   1.00
H129   H     0.59520   0.54060   0.47600   0.01267  Uiso   1.00
H130   H     0.11920   0.06460   0.52400   0.01267  Uiso   1.00
H131   H     0.47640   0.49710   0.62420   0.01267  Uiso   1.00
H132   H     0.11610   0.10680   0.65580   0.01267  Uiso   1.00
H133   H     0.41070   0.15290   0.57000   0.01267  Uiso   1.00
H134   H     0.33750   0.11400   0.36500   0.01267  Uiso   1.00
H135   H     0.89270   0.79580   0.12220   0.01267  Uiso   1.00
H136   H     0.88390   0.89320   0.34420   0.01267  Uiso   1.00
H137   H     0.58950   0.98460   0.23740   0.01267  Uiso   1.00
H138   H     0.58930   0.84710   0.43000   0.01267  Uiso   1.00
H139   H     0.56240   0.07880   0.93880   0.01267  Uiso   1.00
H140   H     0.02610   0.74680   0.88440   0.01267  Uiso   1.00
H141   H     0.61220   0.16950   0.75380   0.01267  Uiso   1.00
H142   H     0.78730   0.96030   0.74700   0.01267  Uiso   1.00
H143   H     0.38780   0.83050   0.24620   0.01267  Uiso   1.00
H144   H     0.46220   0.88040   0.11500   0.01267  Uiso   1.00
H145   H     0.21270   0.03970   0.25300   0.01267  Uiso   1.00
H146   H     0.61220   0.58430   0.75380   0.01267  Uiso   1.00
H147   H     0.02220   0.37530   0.22920   0.01267  Uiso   1.00
H148   H     0.10670   0.33790   0.37160   0.01267  Uiso   1.00
H149   H     0.47300   0.35420   0.47920   0.01267  Uiso   1.00
H150   H     0.98760   0.12760   0.64900   0.01267  Uiso   1.00
H151   H     0.47590   0.79890   0.77020   0.01267  Uiso   1.00
H152   H     0.52360   0.50290   0.37580   0.01267  Uiso   1.00
H153   H     0.97250   0.88600   0.63500   0.01267  Uiso   1.00
H154   H     0.77050   0.67360   0.87780   0.01267  Uiso   1.00
H155   H     0.79300   0.62470   0.77080   0.01267  Uiso   1.00
H156   H     0.49150   0.05240   0.78200   0.01267  Uiso   1.00
H157   H     0.29050   0.72960   0.78200   0.01267  Uiso   1.00
H158   H     0.95960   0.81340   0.42000   0.01267  Uiso   1.00
H159   H     0.08940   0.19120   0.54100   0.01267  Uiso   1.00
H160   H     0.43640   0.11640   0.92840   0.01267  Uiso   1.00
H161   H     0.97920   0.48710   0.40680   0.01267  Uiso   1.00
H162   H     0.62900   0.97790   0.81240   0.01267  Uiso   1.00
H163   H     0.44470   0.10660   0.83860   0.01267  Uiso   1.00
H164   H     0.44450   0.04690   0.46740   0.01267  Uiso   1.00
H165   H     0.14780   0.12710   0.62420   0.01267  Uiso   1.00
H166   H     0.67170   0.47690   0.69600   0.01267  Uiso   1.00
H167   H     0.00110   0.43710   0.53380   0.01267  Uiso   1.00
H168   H     0.02610   0.13760   0.88440   0.01267  Uiso   1.00
H169   H     0.67170   0.21910   0.69600   0.01267  Uiso   1.00
H170   H     0.99380   0.64580   0.52080   0.01267  Uiso   1.00
H171   H     0.44450   0.42050   0.46740   0.01267  Uiso   1.00
H172   H     0.56360   0.18800   0.07160   0.01267  Uiso   1.00
H173   H     0.70950   0.27040   0.21800   0.01267  Uiso   1.00
H174   H     0.14780   0.49710   0.62420   0.01267  Uiso   1.00
H175   H     0.12550   0.03490   0.88620   0.01267  Uiso   1.00
H176   H     0.99720   0.55590   0.39880   0.01267  Uiso   1.00
H177   H     0.26490   0.33790   0.37160   0.01267  Uiso   1.00
H178   H     0.14160   0.58430   0.75380   0.01267  Uiso   1.00
H179   H     0.00280   0.15710   0.60120   0.01267  Uiso   1.00
H180   H     0.37310   0.90260   0.31260   0.01267  Uiso   1.00
H181   H     0.48130   0.03680   0.91400   0.01267  Uiso   1.00
H182   H     0.08940   0.34980   0.54100   0.01267  Uiso   1.00
H183   H     0.14160   0.16950   0.75380   0.01267  Uiso   1.00
H184   H     0.11880   0.51440   0.75840   0.01267  Uiso   1.00
H185   H     0.86550   0.57190   0.36440   0.01267  Uiso   1.00
H186   H     0.85840   0.83050   0.24620   0.01267  Uiso   1.00
H187   H     0.99890   0.90330   0.46620   0.01267  Uiso   1.00
H188   H     0.47640   0.12710   0.62420   0.01267  Uiso   1.00
H189   H     0.08060   0.22870   0.66480   0.01267  Uiso   1.00
H190   H     0.52060   0.87950   0.86600   0.01267  Uiso   1.00
H191   H     0.62690   0.59000   0.68740   0.01267  Uiso   1.00
H192   H     0.34540   0.98650   0.86600   0.01267  Uiso   1.00
H193   H     0.15930   0.15290   0.57000   0.01267  Uiso   1.00
H194   H     0.08060   0.43610   0.66480   0.01267  Uiso   1.00
H195   H     0.66250   0.74900   0.63500   0.01267  Uiso   1.00
H196   H     0.56730   0.96320   0.08600   0.01267  Uiso   1.00
H197   H     0.53970   0.54900   0.65580   0.01267  Uiso   1.00
H198   H     0.20700   0.85390   0.22920   0.01267  Uiso   1.00
H199   H     0.34720   0.11960   0.88500   0.01267  Uiso   1.00
H200   H     0.66140   0.12760   0.64900   0.01267  Uiso   1.00
H201   H     0.70950   0.94760   0.21800   0.01267  Uiso   1.00
H202   H     0.64790   0.25280   0.23740   0.01267  Uiso   1.00
H203   H     0.42760   0.91970   0.40680   0.01267  Uiso   1.00
H204   H     0.76070   0.03490   0.88620   0.01267  Uiso   1.00
H205   H     0.49890   0.57190   0.36440   0.01267  Uiso   1.00
H206   H     0.50800   0.88360   0.07160   0.01267  Uiso   1.00
H207   H     0.56730   0.12280   0.08600   0.01267  Uiso   1.00
H208   H     0.68260   0.10330   0.91100   0.01267  Uiso   1.00
H209   H     0.02750   0.25100   0.36500   0.01267  Uiso   1.00
H210   H     0.02430   0.47690   0.69600   0.01267  Uiso   1.00
H211   H     0.43640   0.81200   0.92840   0.01267  Uiso   1.00
H212   H     0.23930   0.96510   0.11380   0.01267  Uiso   1.00
H213   H     0.37310   0.41000   0.31260   0.01267  Uiso   1.00
H214   H     0.41070   0.41710   0.57000   0.01267  Uiso   1.00
H215   H     0.45240   0.49700   0.30260   0.01267  Uiso   1.00
H216   H     0.52410   0.20110   0.22980   0.01267  Uiso   1.00
H217   H     0.50850   0.94760   0.21800   0.01267  Uiso   1.00
H218   H     0.46220   0.23460   0.11500   0.01267  Uiso   1.00
H219   H     0.49450   0.05890   0.56060   0.01267  Uiso   1.00
H220   H     0.95970   0.78670   0.74700   0.01267  Uiso   1.00
H221   H     0.59840   0.44410   0.60120   0.01267  Uiso   1.00
H222   H     0.54760   0.50300   0.69740   0.01267  Uiso   1.00
H223   H     0.97710   0.95310   0.53260   0.01267  Uiso   1.00
H224   H     0.49150   0.72960   0.78200   0.01267  Uiso   1.00
H225   H     0.37640   0.86000   0.93880   0.01267  Uiso   1.00
H226   H     0.50550   0.94110   0.43940   0.01267  Uiso   1.00
H227   H     0.62360   0.92120   0.06120   0.01267  Uiso   1.00
H228   H     0.14170   0.86240   0.11560   0.01267  Uiso   1.00
H229   H     0.52700   0.64580   0.52080   0.01267  Uiso   1.00
H230   H     0.00110   0.09670   0.53380   0.01267  Uiso   1.00
H231   H     0.53270   0.09670   0.53380   0.01267  Uiso   1.00
H232   H     0.65460   0.12050   0.13400   0.01267  Uiso   1.00
H233   H     0.85020   0.80560   0.30260   0.01267  Uiso   1.00
H234   H     0.01240   0.87240   0.35100   0.01267  Uiso   1.00
H235   H     0.14980   0.50300   0.69740   0.01267  Uiso   1.00
H236   H     0.88120   0.48560   0.24160   0.01267  Uiso   1.00
H237   H     0.97250   0.74900   0.63500   0.01267  Uiso   1.00
H238   H     0.98760   0.52140   0.64900   0.01267  Uiso   1.00
H239   H     0.06610   0.50170   0.56060   0.01267  Uiso   1.00
H240   H     0.37100   0.02210   0.18760   0.01267  Uiso   1.00
H241   H     0.89270   0.32640   0.12220   0.01267  Uiso   1.00
H242   H     0.26490   0.03370   0.37160   0.01267  Uiso   1.00
H243   H     0.02750   0.11400   0.36500   0.01267  Uiso   1.00
H244   H     0.84070   0.58290   0.43000   0.01267  Uiso   1.00
H245   H     0.62360   0.14000   0.06120   0.01267  Uiso   1.00
H246   H     0.20700   0.37530   0.22920   0.01267  Uiso   1.00
H247   H     0.47590   0.97130   0.77020   0.01267  Uiso   1.00
H248   H     0.85220   0.50290   0.37580   0.01267  Uiso   1.00
H249   H     0.62010   0.15850   0.19040   0.01267  Uiso   1.00
H250   H     0.40160   0.55590   0.39880   0.01267  Uiso   1.00
H251   H     0.12550   0.85130   0.88620   0.01267  Uiso   1.00
H252   H     0.53780   0.76540   0.88500   0.01267  Uiso   1.00
H253   H     0.39390   0.10660   0.83860   0.01267  Uiso   1.00
H254   H     0.65460   0.01350   0.13400   0.01267  Uiso   1.00
H255   H     0.41050   0.01540   0.76260   0.01267  Uiso   1.00
H256   H     0.18340   0.97790   0.81240   0.01267  Uiso   1.00
H257   H     0.33860   0.87240   0.35100   0.01267  Uiso   1.00
H258   H     0.13450   0.42810   0.63560   0.01267  Uiso   1.00
H259   H     0.91940   0.77130   0.33520   0.01267  Uiso   1.00
H260   H     0.85830   0.74680   0.88440   0.01267  Uiso   1.00
H261   H     0.29430   0.97130   0.77020   0.01267  Uiso   1.00
H262   H     0.51870   0.12280   0.08600   0.01267  Uiso   1.00
H263   H     0.37990   0.96810   0.80960   0.01267  Uiso   1.00
H264   H     0.99890   0.56290   0.46620   0.01267  Uiso   1.00
H265   H     0.93950   0.41000   0.31260   0.01267  Uiso   1.00
H266   H     0.59520   0.93540   0.47600   0.01267  Uiso   1.00
H267   H     0.85830   0.13760   0.88440   0.01267  Uiso   1.00
H268   H     0.66140   0.52140   0.64900   0.01267  Uiso   1.00
H269   H     0.55550   0.95310   0.53260   0.01267  Uiso   1.00
H270   H     0.22840   0.10330   0.91100   0.01267  Uiso   1.00
H271   H     0.46030   0.45100   0.34420   0.01267  Uiso   1.00
H272   H     0.04030   0.03970   0.25300   0.01267  Uiso   1.00
H273   H     0.32830   0.52310   0.30400   0.01267  Uiso   1.00
H274   H     0.45240   0.80560   0.30260   0.01267  Uiso   1.00
H275   H     0.57030   0.03190   0.19040   0.01267  Uiso   1.00
H276   H     0.31740   0.19230   0.08900   0.01267  Uiso   1.00
H277   H     0.97570   0.78090   0.30400   0.01267  Uiso   1.00
H278   H     0.37640   0.07880   0.93880   0.01267  Uiso   1.00
H279   H     0.42970   0.84150   0.80960   0.01267  Uiso   1.00
H280   H     0.85220   0.87290   0.37580   0.01267  Uiso   1.00
H281   H     0.99720   0.84290   0.39880   0.01267  Uiso   1.00
H282   H     0.64790   0.98460   0.23740   0.01267  Uiso   1.00
H283   H     0.38780   0.41570   0.24620   0.01267  Uiso   1.00
H284   H     0.89330   0.66210   0.62840   0.01267  Uiso   1.00
H285   H     0.21270   0.21330   0.25300   0.01267  Uiso   1.00
H286   H     0.22950   0.79580   0.12220   0.01267  Uiso   1.00
H287   H     0.00280   0.44410   0.60120   0.01267  Uiso   1.00
H288   H     0.02290   0.04690   0.46740   0.01267  Uiso   1.00
H289   H     0.49450   0.50170   0.56060   0.01267  Uiso   1.00
H290   H     0.42760   0.48710   0.40680   0.01267  Uiso   1.00
H291   H     0.15930   0.41710   0.57000   0.01267  Uiso   1.00
H292   H     0.41580   0.56390   0.33520   0.01267  Uiso   1.00
H293   H     0.84070   0.84710   0.43000   0.01267  Uiso   1.00
H294   H     0.55530   0.26800   0.16140   0.01267  Uiso   1.00
H295   H     0.53970   0.10680   0.65580   0.01267  Uiso   1.00
H296   H     0.77050   0.20420   0.87780   0.01267  Uiso   1.00
H297   H     0.44470   0.73200   0.83860   0.01267  Uiso   1.00
H298   H     0.76070   0.85130   0.88620   0.01267  Uiso   1.00
H299   H     0.77160   0.19230   0.08900   0.01267  Uiso   1.00
H300   H     0.78730   0.78670   0.74700   0.01267  Uiso   1.00
H301   H     0.88120   0.75600   0.24160   0.01267  Uiso   1.00
H302   H     0.11610   0.54900   0.65580   0.01267  Uiso   1.00
H303   H     0.95960   0.60660   0.42000   0.01267  Uiso   1.00
H304   H     0.60610   0.26800   0.16140   0.01267  Uiso   1.00
H305   H     0.53270   0.43710   0.53380   0.01267  Uiso   1.00
H306   H     0.33750   0.25100   0.36500   0.01267  Uiso   1.00
H307   H     0.57240   0.08030   0.59320   0.01267  Uiso   1.00
H308   H     0.33860   0.47860   0.35100   0.01267  Uiso   1.00
H309   H     0.14170   0.25320   0.11560   0.01267  Uiso   1.00
H310   H     0.41580   0.77130   0.33520   0.01267  Uiso   1.00
H311   H     0.40160   0.84290   0.39880   0.01267  Uiso   1.00
H312   H     0.55530   0.89340   0.16140   0.01267  Uiso   1.00
C1     C     0.17470   0.82760   0.89840   0.01267  Uiso   1.00
C2     C     0.00612   0.31532   0.17784   0.01267  Uiso   1.00
C3     C     0.50842   0.43282   0.54244   0.01267  Uiso   1.00
C4     C     0.41530   0.88650   0.37420   0.01267  Uiso   1.00
C5     C     0.82530   0.17240   0.10160   0.01267  Uiso   1.00
C6     C     0.05080   0.30840   0.20040   0.01267  Uiso   1.00
C7     C     0.21180   0.04010   0.86140   0.01267  Uiso   1.00
C8     C     0.24030   0.17660   0.06480   0.01267  Uiso   1.00
C9     C     0.26783   0.04413   0.35486   0.01267  Uiso   1.00
C10    C     0.68480   0.07600   0.89320   0.01267  Uiso   1.00
C11    C     0.64960   0.82130   0.86140   0.01267  Uiso   1.00
C12    C     0.08100   0.10160   0.46020   0.01267  Uiso   1.00
C13    C     0.60030   0.47330   0.63200   0.01267  Uiso   1.00
C14    C     0.27630   0.17240   0.10160   0.01267  Uiso   1.00
C15    C     0.24030   0.88820   0.06480   0.01267  Uiso   1.00
C16    C     0.95890   0.88650   0.37420   0.01267  Uiso   1.00
C17    C     0.23350   0.27620   0.30800   0.01267  Uiso   1.00
C18    C     0.99825   0.84835   0.19970   0.01267  Uiso   1.00
C19    C     0.92840   0.82840   0.11300   0.01267  Uiso   1.00
C20    C     0.73200   0.03570   0.87820   0.01267  Uiso   1.00
C21    C     0.92068   0.81338   0.13616   0.01267  Uiso   1.00
C22    C     0.04628   0.23598   0.28336   0.01267  Uiso   1.00
C23    C     0.51280   0.40750   0.56920   0.01267  Uiso   1.00
C24    C     0.58470   0.11350   0.62580   0.01267  Uiso   1.00
C25    C     0.00175   0.64865   0.80030   0.01267  Uiso   1.00
C26    C     0.17330   0.24570   0.06800   0.01267  Uiso   1.00
C27    C     0.19220   0.28580   0.28520   0.01267  Uiso   1.00
C28    C     0.92550   0.96820   0.69200   0.01267  Uiso   1.00
C29    C     0.48720   0.59250   0.43080   0.01267  Uiso   1.00
C30    C     0.17172   0.86252   0.17784   0.01267  Uiso   1.00
C31    C     0.65300   0.91040   0.57600   0.01267  Uiso   1.00
C32    C     0.72230   0.92520   0.69540   0.01267  Uiso   1.00
C33    C     0.48160   0.84680   0.88640   0.01267  Uiso   1.00
C34    C     0.20145   0.35135   0.19970   0.01267  Uiso   1.00
C35    C     0.30050   0.81980   0.23960   0.01267  Uiso   1.00
C36    C     0.96210   0.74170   0.64980   0.01267  Uiso   1.00
C37    C     0.97310   0.77020   0.69540   0.01267  Uiso   1.00
C38    C     0.24520   0.03930   0.85160   0.01267  Uiso   1.00
C39    C     0.27620   0.80680   0.84880   0.01267  Uiso   1.00
C40    C     0.30910   0.07520   0.37520   0.01267  Uiso   1.00
C41    C     0.94920   0.69160   0.79960   0.01267  Uiso   1.00
C42    C     0.24520   0.81230   0.85160   0.01267  Uiso   1.00
C43    C     0.20840   0.07600   0.89320   0.01267  Uiso   1.00
C44    C     0.07450   0.03180   0.30800   0.01267  Uiso   1.00
C45    C     0.07160   0.17160   0.88700   0.01267  Uiso   1.00
C46    C     0.41530   0.48770   0.37420   0.01267  Uiso   1.00
C47    C     0.04110   0.11350   0.62580   0.01267  Uiso   1.00
C48    C     0.69090   0.92480   0.62480   0.01267  Uiso   1.00
C49    C     0.96598   0.89038   0.45756   0.01267  Uiso   1.00
C50    C     0.88470   0.13880   0.18340   0.01267  Uiso   1.00
C51    C     0.04110   0.51230   0.62580   0.01267  Uiso   1.00
C52    C     0.50842   0.10962   0.54244   0.01267  Uiso   1.00
C53    C     0.30360   0.00020   0.15560   0.01267  Uiso   1.00
C54    C     0.09300   0.99940   0.28520   0.01267  Uiso   1.00
C55    C     0.76650   0.72380   0.69200   0.01267  Uiso   1.00
C56    C     0.59520   0.15320   0.11360   0.01267  Uiso   1.00
C57    C     0.27610   0.18260   0.27180   0.01267  Uiso   1.00
C58    C     0.78820   0.95990   0.13860   0.01267  Uiso   1.00
C59    C     0.42740   0.19320   0.15120   0.01267  Uiso   1.00
C60    C     0.75970   0.11180   0.93520   0.01267  Uiso   1.00
C61    C     0.92840   0.28460   0.11300   0.01267  Uiso   1.00
C62    C     0.72390   0.81740   0.72820   0.01267  Uiso   1.00
C63    C     0.95372   0.76402   0.71664   0.01267  Uiso   1.00
C64    C     0.57260   0.04200   0.84880   0.01267  Uiso   1.00
C65    C     0.93910   0.81980   0.23960   0.01267  Uiso   1.00
C66    C     0.06610   0.07520   0.37520   0.01267  Uiso   1.00
C67    C     0.94740   0.81800   0.21240   0.01267  Uiso   1.00
C68    C     0.62080   0.89840   0.53980   0.01267  Uiso   1.00
C69    C     0.82670   0.75430   0.93200   0.01267  Uiso   1.00
C70    C     0.11530   0.86120   0.81660   0.01267  Uiso   1.00
C71    C     0.82670   0.17770   0.93200   0.01267  Uiso   1.00
C72    C     0.09300   0.28580   0.28520   0.01267  Uiso   1.00
C73    C     0.17330   0.82230   0.06800   0.01267  Uiso   1.00
C74    C     0.30910   0.30000   0.37520   0.01267  Uiso   1.00
C75    C     0.96830   0.84130   0.36800   0.01267  Uiso   1.00
C76    C     0.72230   0.77020   0.69540   0.01267  Uiso   1.00
C77    C     0.99570   0.18260   0.27180   0.01267  Uiso   1.00
C78    C     0.65390   0.83330   0.83600   0.01267  Uiso   1.00
C79    C     0.96830   0.52670   0.36800   0.01267  Uiso   1.00
C80    C     0.68480   0.81720   0.89320   0.01267  Uiso   1.00
C81    C     0.21180   0.82130   0.86140   0.01267  Uiso   1.00
C82    C     0.62520   0.00020   0.17380   0.01267  Uiso   1.00
C83    C     0.72380   0.95800   0.15120   0.01267  Uiso   1.00
C84    C     0.39360   0.96070   0.14840   0.01267  Uiso   1.00
C85    C     0.40480   0.03960   0.88640   0.01267  Uiso   1.00
C86    C     0.03170   0.47330   0.63200   0.01267  Uiso   1.00
C87    C     0.26500   0.81800   0.21240   0.01267  Uiso   1.00
C88    C     0.49158   0.56718   0.45756   0.01267  Uiso   1.00
C89    C     0.18460   0.28460   0.11300   0.01267  Uiso   1.00
C90    C     0.05080   0.89200   0.20040   0.01267  Uiso   1.00
C91    C     0.96959   0.27969   0.13218   0.01267  Uiso   1.00
C92    C     0.95890   0.48770   0.37420   0.01267  Uiso   1.00
C93    C     0.03041   0.72031   0.86782   0.01267  Uiso   1.00
C94    C     0.76650   0.96820   0.69200   0.01267  Uiso   1.00
C95    C     0.21548   0.32278   0.13616   0.01267  Uiso   1.00
C96    C     0.70130   0.86120   0.81660   0.01267  Uiso   1.00
C97    C     0.23708   0.23598   0.28336   0.01267  Uiso   1.00
C98    C     0.05640   0.40750   0.56920   0.01267  Uiso   1.00
C99    C     0.99388   0.13748   0.82216   0.01267  Uiso   1.00
C100   C     0.69640   0.84460   0.84440   0.01267  Uiso   1.00
C101   C     0.45140   0.82640   0.82620   0.01267  Uiso   1.00
C102   C     0.91297   0.95587   0.64514   0.01267  Uiso   1.00
C103   C     0.94360   0.83830   0.43080   0.01267  Uiso   1.00
C104   C     0.97310   0.92520   0.69540   0.01267  Uiso   1.00
C105   C     0.68770   0.74170   0.64980   0.01267  Uiso   1.00
C106   C     0.92300   0.91040   0.57600   0.01267  Uiso   1.00
C107   C     0.59520   0.96040   0.11360   0.01267  Uiso   1.00
C108   C     0.60640   0.81230   0.85160   0.01267  Uiso   1.00
C109   C     0.95660   0.35570   0.18140   0.01267  Uiso   1.00
C110   C     0.69950   0.58020   0.76040   0.01267  Uiso   1.00
C111   C     0.91900   0.89840   0.53980   0.01267  Uiso   1.00
C112   C     0.03402   0.43282   0.54244   0.01267  Uiso   1.00
C113   C     0.07700   0.33440   0.42400   0.01267  Uiso   1.00
C114   C     0.21548   0.81338   0.13616   0.01267  Uiso   1.00
C115   C     0.82450   0.17660   0.06480   0.01267  Uiso   1.00
C116   C     0.80780   0.00060   0.71480   0.01267  Uiso   1.00
C117   C     0.03790   0.09190   0.35020   0.01267  Uiso   1.00
C118   C     0.65300   0.66560   0.57600   0.01267  Uiso   1.00
C119   C     0.51840   0.96040   0.11360   0.01267  Uiso   1.00
C120   C     0.82828   0.13748   0.82216   0.01267  Uiso   1.00
C121   C     0.17550   0.11180   0.93520   0.01267  Uiso   1.00
C122   C     0.26800   0.96430   0.12180   0.01267  Uiso   1.00
C123   C     0.16259   0.27969   0.13218   0.01267  Uiso   1.00
C124   C     0.07932   0.18662   0.86384   0.01267  Uiso   1.00
C125   C     0.78452   0.18662   0.86384   0.01267  Uiso   1.00
C126   C     0.14620   0.84250   0.87820   0.01267  Uiso   1.00
C127   C     0.81540   0.71540   0.88700   0.01267  Uiso   1.00
C128   C     0.85200   0.00020   0.15560   0.01267  Uiso   1.00
C129   C     0.79855   0.15165   0.80030   0.01267  Uiso   1.00
C130   C     0.65390   0.00270   0.83600   0.01267  Uiso   1.00
C131   C     0.69640   0.99980   0.84440   0.01267  Uiso   1.00
C132   C     0.72370   0.07080   0.89840   0.01267  Uiso   1.00
C133   C     0.48160   0.03960   0.88640   0.01267  Uiso   1.00
C134   C     0.27770   0.22980   0.30460   0.01267  Uiso   1.00
C135   C     0.29870   0.13880   0.18340   0.01267  Uiso   1.00
C136   C     0.18460   0.82840   0.11300   0.01267  Uiso   1.00
C137   C     0.68770   0.90810   0.64980   0.01267  Uiso   1.00
C138   C     0.99825   0.35135   0.19970   0.01267  Uiso   1.00
C139   C     0.51840   0.15320   0.11360   0.01267  Uiso   1.00
C140   C     0.81540   0.17160   0.88700   0.01267  Uiso   1.00
C141   C     0.93390   0.70000   0.62480   0.01267  Uiso   1.00
C142   C     0.05260   0.60560   0.78760   0.01267  Uiso   1.00
C143   C     0.03402   0.10962   0.54244   0.01267  Uiso   1.00
C144   C     0.75480   0.18770   0.14840   0.01267  Uiso   1.00
C145   C     0.08703   0.31073   0.35486   0.01267  Uiso   1.00
C146   C     0.54860   0.00020   0.17380   0.01267  Uiso   1.00
C147   C     0.82450   0.88820   0.06480   0.01267  Uiso   1.00
C148   C     0.72380   0.19320   0.15120   0.01267  Uiso   1.00
C149   C     0.76292   0.76402   0.71664   0.01267  Uiso   1.00
C150   C     0.73200   0.84250   0.87820   0.01267  Uiso   1.00
C151   C     0.75970   0.82340   0.93520   0.01267  Uiso   1.00
C152   C     0.60640   0.03930   0.85160   0.01267  Uiso   1.00
C153   C     0.05260   0.18200   0.78760   0.01267  Uiso   1.00
C154   C     0.79855   0.64865   0.80030   0.01267  Uiso   1.00
C155   C     0.30360   0.15540   0.15560   0.01267  Uiso   1.00
C156   C     0.95372   0.95262   0.71664   0.01267  Uiso   1.00
C157   C     0.93390   0.92480   0.62480   0.01267  Uiso   1.00
C158   C     0.70130   0.95540   0.81660   0.01267  Uiso   1.00
C159   C     0.00612   0.86252   0.17784   0.01267  Uiso   1.00
C160   C     0.20145   0.84835   0.19970   0.01267  Uiso   1.00
C161   C     0.26500   0.39440   0.21240   0.01267  Uiso   1.00
C162   C     0.83741   0.14751   0.86782   0.01267  Uiso   1.00
C163   C     0.85380   0.96430   0.12180   0.01267  Uiso   1.00
C164   C     0.03790   0.25830   0.35020   0.01267  Uiso   1.00
C165   C     0.89470   0.82230   0.06800   0.01267  Uiso   1.00
C166   C     0.20840   0.81720   0.89320   0.01267  Uiso   1.00
C167   C     0.91297   0.68927   0.64514   0.01267  Uiso   1.00
C168   C     0.72390   0.91080   0.72820   0.01267  Uiso   1.00
C169   C     0.37920   0.10160   0.46020   0.01267  Uiso   1.00
C170   C     0.82530   0.92920   0.10160   0.01267  Uiso   1.00
C171   C     0.88470   0.04460   0.18340   0.01267  Uiso   1.00
C172   C     0.60030   0.15870   0.63200   0.01267  Uiso   1.00
C173   C     0.39360   0.18770   0.14840   0.01267  Uiso   1.00
C174   C     0.85040   0.10800   0.79960   0.01267  Uiso   1.00
C175   C     0.57260   0.80680   0.84880   0.01267  Uiso   1.00
C176   C     0.35040   0.95990   0.13860   0.01267  Uiso   1.00
C177   C     0.42740   0.95800   0.15120   0.01267  Uiso   1.00
C178   C     0.18210   0.83330   0.83600   0.01267  Uiso   1.00
C179   C     0.94360   0.59250   0.43080   0.01267  Uiso   1.00
C180   C     0.93910   0.41980   0.23960   0.01267  Uiso   1.00
C181   C     0.07450   0.27620   0.30800   0.01267  Uiso   1.00
C182   C     0.22480   0.35570   0.18140   0.01267  Uiso   1.00
C183   C     0.73500   0.18200   0.78760   0.01267  Uiso   1.00
C184   C     0.54860   0.17360   0.17380   0.01267  Uiso   1.00
C185   C     0.85200   0.15540   0.15560   0.01267  Uiso   1.00
C186   C     0.73217   0.95587   0.64514   0.01267  Uiso   1.00
C187   C     0.27770   0.07480   0.30460   0.01267  Uiso   1.00
C188   C     0.02690   0.22980   0.30460   0.01267  Uiso   1.00
C189   C     0.80780   0.71420   0.71480   0.01267  Uiso   1.00
C190   C     0.92068   0.32278   0.13616   0.01267  Uiso   1.00
C191   C     0.96959   0.85249   0.13218   0.01267  Uiso   1.00
C192   C     0.34610   0.99730   0.16400   0.01267  Uiso   1.00
C193   C     0.27630   0.92920   0.10160   0.01267  Uiso   1.00
C194   C     0.85040   0.69160   0.79960   0.01267  Uiso   1.00
C195   C     0.31520   0.92400   0.10680   0.01267  Uiso   1.00
C196   C     0.62080   0.64140   0.53980   0.01267  Uiso   1.00
C197   C     0.04340   0.64430   0.81860   0.01267  Uiso   1.00
C198   C     0.06610   0.30000   0.37520   0.01267  Uiso   1.00
C199   C     0.27610   0.08920   0.27180   0.01267  Uiso   1.00
C200   C     0.26800   0.15750   0.12180   0.01267  Uiso   1.00
C201   C     0.19220   0.99940   0.28520   0.01267  Uiso   1.00
C202   C     0.22480   0.82570   0.18140   0.01267  Uiso   1.00
C203   C     0.34700   0.08960   0.42400   0.01267  Uiso   1.00
C204   C     0.06090   0.18020   0.76040   0.01267  Uiso   1.00
C205   C     0.76292   0.95262   0.71664   0.01267  Uiso   1.00
C206   C     0.37480   0.99980   0.82620   0.01267  Uiso   1.00
C207   C     0.14800   0.84460   0.84440   0.01267  Uiso   1.00
C208   C     0.31230   0.09190   0.35020   0.01267  Uiso   1.00
C209   C     0.77520   0.64430   0.81860   0.01267  Uiso   1.00
C210   C     0.58470   0.51230   0.62580   0.01267  Uiso   1.00
C211   C     0.96598   0.56718   0.45756   0.01267  Uiso   1.00
C212   C     0.40480   0.84680   0.88640   0.01267  Uiso   1.00
C213   C     0.04628   0.04738   0.28336   0.01267  Uiso   1.00
C214   C     0.51280   0.16170   0.56920   0.01267  Uiso   1.00
C215   C     0.10530   0.75430   0.93200   0.01267  Uiso   1.00
C216   C     0.85380   0.15750   0.12180   0.01267  Uiso   1.00
C217   C     0.83741   0.72031   0.86782   0.01267  Uiso   1.00
C218   C     0.89470   0.24570   0.06800   0.01267  Uiso   1.00
C219   C     0.27620   0.04200   0.84880   0.01267  Uiso   1.00
C220   C     0.79160   0.18280   0.10680   0.01267  Uiso   1.00
C221   C     0.73217   0.68927   0.64514   0.01267  Uiso   1.00
C222   C     0.08703   0.04413   0.35486   0.01267  Uiso   1.00
C223   C     0.64960   0.04010   0.86140   0.01267  Uiso   1.00
C224   C     0.95660   0.82570   0.18140   0.01267  Uiso   1.00
C225   C     0.07932   0.67722   0.86384   0.01267  Uiso   1.00
C226   C     0.99388   0.68468   0.82216   0.01267  Uiso   1.00
C227   C     0.14800   0.99980   0.84440   0.01267  Uiso   1.00
C228   C     0.23350   0.03180   0.30800   0.01267  Uiso   1.00
C229   C     0.81790   0.99730   0.16400   0.01267  Uiso   1.00
C230   C     0.29870   0.04460   0.18340   0.01267  Uiso   1.00
C231   C     0.26783   0.31073   0.35486   0.01267  Uiso   1.00
C232   C     0.14960   0.89200   0.20040   0.01267  Uiso   1.00
C233   C     0.07160   0.71540   0.88700   0.01267  Uiso   1.00
C234   C     0.77520   0.17430   0.81860   0.01267  Uiso   1.00
C235   C     0.75480   0.96070   0.14840   0.01267  Uiso   1.00
C236   C     0.16259   0.85249   0.13218   0.01267  Uiso   1.00
C237   C     0.31520   0.18280   0.10680   0.01267  Uiso   1.00
C238   C     0.14620   0.03570   0.87820   0.01267  Uiso   1.00
C239   C     0.90700   0.00060   0.71480   0.01267  Uiso   1.00
C240   C     0.69090   0.70000   0.62480   0.01267  Uiso   1.00
C241   C     0.78820   0.17870   0.13860   0.01267  Uiso   1.00
C242   C     0.99570   0.08920   0.27180   0.01267  Uiso   1.00
C243   C     0.18210   0.00270   0.83600   0.01267  Uiso   1.00
C244   C     0.39970   0.52670   0.36800   0.01267  Uiso   1.00
C245   C     0.49158   0.89038   0.45756   0.01267  Uiso   1.00
C246   C     0.10530   0.17770   0.93200   0.01267  Uiso   1.00
C247   C     0.17172   0.31532   0.17784   0.01267  Uiso   1.00
C248   C     0.37480   0.82640   0.82620   0.01267  Uiso   1.00
C249   C     0.73500   0.60560   0.78760   0.01267  Uiso   1.00
C250   C     0.92300   0.66560   0.57600   0.01267  Uiso   1.00
C251   C     0.94740   0.39440   0.21240   0.01267  Uiso   1.00
C252   C     0.78452   0.67722   0.86384   0.01267  Uiso   1.00
C253   C     0.03170   0.15870   0.63200   0.01267  Uiso   1.00
C254   C     0.02690   0.07480   0.30460   0.01267  Uiso   1.00
C255   C     0.90700   0.71420   0.71480   0.01267  Uiso   1.00
C256   C     0.00430   0.91080   0.72820   0.01267  Uiso   1.00
C257   C     0.14960   0.30840   0.20040   0.01267  Uiso   1.00
C258   C     0.34610   0.16670   0.16400   0.01267  Uiso   1.00
C259   C     0.96210   0.90810   0.64980   0.01267  Uiso   1.00
C260   C     0.17470   0.07080   0.89840   0.01267  Uiso   1.00
C261   C     0.23708   0.04738   0.28336   0.01267  Uiso   1.00
C262   C     0.69950   0.18020   0.76040   0.01267  Uiso   1.00
C263   C     0.45140   0.99980   0.82620   0.01267  Uiso   1.00
C264   C     0.07700   0.08960   0.42400   0.01267  Uiso   1.00
C265   C     0.08100   0.35860   0.46020   0.01267  Uiso   1.00
C266   C     0.62520   0.17360   0.17380   0.01267  Uiso   1.00
C267   C     0.91900   0.64140   0.53980   0.01267  Uiso   1.00
C268   C     0.17550   0.82340   0.93520   0.01267  Uiso   1.00
C269   C     0.39970   0.84130   0.36800   0.01267  Uiso   1.00
C270   C     0.06090   0.58020   0.76040   0.01267  Uiso   1.00
C271   C     0.30050   0.41980   0.23960   0.01267  Uiso   1.00
C272   C     0.04340   0.17430   0.81860   0.01267  Uiso   1.00
C273   C     0.82828   0.68468   0.82216   0.01267  Uiso   1.00
C274   C     0.34700   0.33440   0.42400   0.01267  Uiso   1.00
C275   C     0.72370   0.82760   0.89840   0.01267  Uiso   1.00
C276   C     0.48720   0.83830   0.43080   0.01267  Uiso   1.00
C277   C     0.94920   0.10800   0.79960   0.01267  Uiso   1.00
C278   C     0.37920   0.35860   0.46020   0.01267  Uiso   1.00
C279   C     0.92550   0.72380   0.69200   0.01267  Uiso   1.00
C280   C     0.79160   0.92400   0.10680   0.01267  Uiso   1.00
C281   C     0.81790   0.16670   0.16400   0.01267  Uiso   1.00
C282   C     0.05640   0.16170   0.56920   0.01267  Uiso   1.00
C283   C     0.31230   0.25830   0.35020   0.01267  Uiso   1.00
C284   C     0.00430   0.81740   0.72820   0.01267  Uiso   1.00
C285   C     0.11530   0.95540   0.81660   0.01267  Uiso   1.00
C286   C     0.03041   0.14751   0.86782   0.01267  Uiso   1.00
C287   C     0.00175   0.15165   0.80030   0.01267  Uiso   1.00
C288   C     0.35040   0.17870   0.13860   0.01267  Uiso   1.00
O1     O     0.84332   0.65942   0.76324   0.01267  Uiso   1.00
O2     O     0.80109   0.84407   0.95078   0.01267  Uiso   1.00
O3     O     0.09273   0.87903   0.83128   0.01267  Uiso   1.00
O4     O     0.14925   0.21054   0.04908   0.01267  Uiso   1.00
O5     O     0.14969   0.84407   0.95078   0.01267  Uiso   1.00
O6     O     0.11099   0.92450   0.77740   0.01267  Uiso   1.00
O7     O     0.10017   0.16146   0.95092   0.01267  Uiso   1.00
O8     O     0.09273   0.95225   0.83128   0.01267  Uiso   1.00
O9     O     0.87486   0.09482   0.82344   0.01267  Uiso   1.00
O10    O     0.33359   0.07550   0.22260   0.01267  Uiso   1.00
O11    O     0.75761   0.80576   0.95552   0.01267  Uiso   1.00
O12    O     0.11611   0.98346   0.30852   0.01267  Uiso   1.00
O13    O     0.24578   0.15253   0.23746   0.01267  Uiso   1.00
O14    O     0.85075   0.78946   0.95092   0.01267  Uiso   1.00
O15    O     0.91992   0.10382   0.76324   0.01267  Uiso   1.00
O16    O     0.83990   0.74617   0.75444   0.01267  Uiso   1.00
O17    O     0.19891   0.89329   0.04922   0.01267  Uiso   1.00
O18    O     0.88901   0.14710   0.22260   0.01267  Uiso   1.00
O19    O     0.73855   0.87903   0.83128   0.01267  Uiso   1.00
O20    O     0.90727   0.04775   0.16872   0.01267  Uiso   1.00
O21    O     0.16010   0.25383   0.24556   0.01267  Uiso   1.00
O22    O     0.97606   0.18433   0.29446   0.01267  Uiso   1.00
O23    O     0.26145   0.12097   0.16872   0.01267  Uiso   1.00
O24    O     0.80209   0.85024   0.04448   0.01267  Uiso   1.00
O25    O     0.02394   0.81567   0.70554   0.01267  Uiso   1.00
O26    O     0.68160   0.81567   0.70554   0.01267  Uiso   1.00
O27    O     0.08546   0.25383   0.24556   0.01267  Uiso   1.00
O28    O     0.00832   0.91507   0.76254   0.01267  Uiso   1.00
O29    O     0.80759   0.01654   0.69148   0.01267  Uiso   1.00
O30    O     0.91454   0.00827   0.75444   0.01267  Uiso   1.00
O31    O     0.85031   0.89329   0.04922   0.01267  Uiso   1.00
O32    O     0.83990   0.00827   0.75444   0.01267  Uiso   1.00
O33    O     0.88389   0.67494   0.69148   0.01267  Uiso   1.00
O34    O     0.91992   0.65942   0.76324   0.01267  Uiso   1.00
O35    O     0.94858   0.72862   0.82344   0.01267  Uiso   1.00
O36    O     0.19891   0.15593   0.04922   0.01267  Uiso   1.00
O37    O     0.80405   0.20136   0.94998   0.01267  Uiso   1.00
O38    O     0.24578   0.08493   0.23746   0.01267  Uiso   1.00
O39    O     0.80759   0.67494   0.69148   0.01267  Uiso   1.00
O40    O     0.19595   0.79864   0.05002   0.01267  Uiso   1.00
O41    O     0.91454   0.74617   0.75444   0.01267  Uiso   1.00
O42    O     0.15668   0.89618   0.23676   0.01267  Uiso   1.00
O43    O     0.24239   0.85024   0.04448   0.01267  Uiso   1.00
O44    O     0.66641   0.92450   0.77740   0.01267  Uiso   1.00
O45    O     0.99168   0.08493   0.23746   0.01267  Uiso   1.00
O46    O     0.88901   0.07550   0.22260   0.01267  Uiso   1.00
O47    O     0.89983   0.83854   0.04908   0.01267  Uiso   1.00
O48    O     0.85407   0.79864   0.05002   0.01267  Uiso   1.00
O49    O     0.14593   0.20136   0.94998   0.01267  Uiso   1.00
O50    O     0.10017   0.78946   0.95092   0.01267  Uiso   1.00
O51    O     0.19241   0.98346   0.30852   0.01267  Uiso   1.00
O52    O     0.12514   0.90518   0.17656   0.01267  Uiso   1.00
O53    O     0.97606   0.11013   0.29446   0.01267  Uiso   1.00
O54    O     0.68160   0.88987   0.70554   0.01267  Uiso   1.00
O55    O     0.26145   0.04775   0.16872   0.01267  Uiso   1.00
O56    O     0.19241   0.32506   0.30852   0.01267  Uiso   1.00
O57    O     0.89983   0.21054   0.04908   0.01267  Uiso   1.00
O58    O     0.85031   0.15593   0.04922   0.01267  Uiso   1.00
O59    O     0.19791   0.80576   0.95552   0.01267  Uiso   1.00
O60    O     0.15668   0.34058   0.23676   0.01267  Uiso   1.00
O61    O     0.02394   0.88987   0.70554   0.01267  Uiso   1.00
O62    O     0.00832   0.84747   0.76254   0.01267  Uiso   1.00
O63    O     0.05142   0.27138   0.17656   0.01267  Uiso   1.00
O64    O     0.11099   0.85290   0.77740   0.01267  Uiso   1.00
O65    O     0.05142   0.90518   0.17656   0.01267  Uiso   1.00
O66    O     0.85407   0.25138   0.05002   0.01267  Uiso   1.00
O67    O     0.80405   0.74862   0.94998   0.01267  Uiso   1.00
O68    O     0.08008   0.34058   0.23676   0.01267  Uiso   1.00
O69    O     0.31840   0.18433   0.29446   0.01267  Uiso   1.00
O70    O     0.08008   0.89618   0.23676   0.01267  Uiso   1.00
O71    O     0.19595   0.25138   0.05002   0.01267  Uiso   1.00
O72    O     0.75422   0.84747   0.76254   0.01267  Uiso   1.00
O73    O     0.73855   0.95225   0.83128   0.01267  Uiso   1.00
O74    O     0.08546   0.99173   0.24556   0.01267  Uiso   1.00
O75    O     0.94858   0.09482   0.82344   0.01267  Uiso   1.00
O76    O     0.24239   0.19424   0.04448   0.01267  Uiso   1.00
O77    O     0.19791   0.14976   0.95552   0.01267  Uiso   1.00
O78    O     0.85075   0.16146   0.95092   0.01267  Uiso   1.00
O79    O     0.80109   0.10671   0.95078   0.01267  Uiso   1.00
O80    O     0.33359   0.14710   0.22260   0.01267  Uiso   1.00
O81    O     0.84332   0.10382   0.76324   0.01267  Uiso   1.00
O82    O     0.75422   0.91507   0.76254   0.01267  Uiso   1.00
O83    O     0.12514   0.27138   0.17656   0.01267  Uiso   1.00
O84    O     0.90727   0.12097   0.16872   0.01267  Uiso   1.00
O85    O     0.11611   0.32506   0.30852   0.01267  Uiso   1.00
O86    O     0.87486   0.72862   0.82344   0.01267  Uiso   1.00
O87    O     0.99168   0.15253   0.23746   0.01267  Uiso   1.00
O88    O     0.14925   0.83854   0.04908   0.01267  Uiso   1.00
O89    O     0.75761   0.14976   0.95552   0.01267  Uiso   1.00
O90    O     0.14969   0.10671   0.95078   0.01267  Uiso   1.00
O91    O     0.88389   0.01654   0.69148   0.01267  Uiso   1.00
O92    O     0.31840   0.11013   0.29446   0.01267  Uiso   1.00
O93    O     0.14593   0.74862   0.94998   0.01267  Uiso   1.00
O94    O     0.66641   0.85290   0.77740   0.01267  Uiso   1.00
O95    O     0.16010   0.99173   0.24556   0.01267  Uiso   1.00
O96    O     0.80209   0.19424   0.04448   0.01267  Uiso   1.00
