data_image0
_cell_length_a       37.083
_cell_length_b       37.083
_cell_length_c       30.0291
_cell_angle_alpha    90
_cell_angle_beta     90
_cell_angle_gamma    120

_symmetry_space_group_name_H-M    "P 1"
_symmetry_int_tables_number       1

loop_
  _symmetry_equiv_pos_as_xyz
  'x, y, z'

loop_
  _atom_site_label
  _atom_site_occupancy
  _atom_site_fract_x
  _atom_site_fract_y
  _atom_site_fract_z
  _atom_site_thermal_displace_type
  _atom_site_B_iso_or_equiv
  _atom_site_type_symbol
  Zn1      1.0000 0.22440  0.36590  0.73880  Biso   1.000  Zn
  Zn2      1.0000 0.15700  0.29630  0.80180  Biso   1.000  Zn
  Zn3      1.0000 0.62230  0.34160  0.71980  Biso   1.000  Zn
  O1       1.0000 0.26000  0.35400  0.77500  Biso   1.000  O
  O2       1.0000 0.36800  0.23900  0.17700  Biso   1.000  O
  O3       1.0000 0.59100  0.34200  0.77200  Biso   1.000  O
  O4       1.0000 0.21200  0.30700  0.82100  Biso   1.000  O
  C1       1.0000 0.28100  0.32200  0.82900  Biso   1.000  C
  C2       1.0000 0.32400  0.34900  0.82200  Biso   1.000  C
  C3       1.0000 0.35230  0.34200  0.84500  Biso   1.000  C
  H1       1.0000 0.38070  0.35980  0.83990  Biso   1.000  H
  C4       1.0000 0.33900  0.30900  0.87400  Biso   1.000  C
  C5       1.0000 0.29600  0.28300  0.88100  Biso   1.000  C
  H2       1.0000 0.28730  0.26100  0.90150  Biso   1.000  H
  C6       1.0000 0.26760  0.29000  0.85900  Biso   1.000  C
  C7       1.0000 0.58200  0.32600  0.81200  Biso   1.000  C
  O5       1.0000 0.31700  0.17500  0.14900  Biso   1.000  O
  C8       1.0000 0.36900  0.30100  0.89900  Biso   1.000  C
  C9       1.0000 0.40500  0.30800  0.87820  Biso   1.000  C
  H3       1.0000 0.41120  0.31730  0.84910  Biso   1.000  H
  C10      1.0000 0.43300  0.30000  0.90100  Biso   1.000  C
  C11      1.0000 0.42500  0.28500  0.94500  Biso   1.000  C
  H4       1.0000 0.44340  0.28020  0.96050  Biso   1.000  H
  C12      1.0000 0.38800  0.27800  0.96530  Biso   1.000  C
  C13      1.0000 0.36000  0.28600  0.94200  Biso   1.000  C
  H5       1.0000 0.33570  0.28140  0.95580  Biso   1.000  H
  C14      1.0000 0.35900  0.23000  0.09800  Biso   1.000  C
  C15      1.0000 0.40000  0.25900  0.08700  Biso   1.000  C
  C16      1.0000 0.40900  0.27500  0.04400  Biso   1.000  C
  H6       1.0000 0.43670  0.29490  0.03660  Biso   1.000  H
  C17      1.0000 0.37800  0.26200  0.01200  Biso   1.000  C
  C18      1.0000 0.33800  0.23200  0.02300  Biso   1.000  C
  H7       1.0000 0.31670  0.22340  0.00160  Biso   1.000  H
  C19      1.0000 0.32800  0.21700  0.06600  Biso   1.000  C
  C20      1.0000 0.22200  0.44300  0.75000  Biso   1.000  C
  C21      1.0000 0.24800  0.32700  0.80300  Biso   1.000  C
  C22      1.0000 0.34900  0.21200  0.14500  Biso   1.000  C
  C23      1.0000 0.47100  0.30600  0.87800  Biso   1.000  C
  C24      1.0000 0.49300  0.34000  0.85000  Biso   1.000  C
  H8       1.0000 0.48310  0.35840  0.84420  Biso   1.000  H
  C25      1.0000 0.52900  0.34700  0.82900  Biso   1.000  C
  C26      1.0000 0.54400  0.31900  0.83700  Biso   1.000  C
  C27      1.0000 0.52200  0.28600  0.86600  Biso   1.000  C
  C28      1.0000 0.48600  0.27900  0.88600  Biso   1.000  C
  H9       1.0000 0.47150  0.25660  0.90510  Biso   1.000  H
  O6       1.0000 0.61500  0.32700  0.83100  Biso   1.000  O
  C29      1.0000 0.11300  0.22700  0.75000  Biso   1.000  C
  C30      1.0000 0.52900  0.24700  0.88300  Biso   1.000  C
  H10      1.0000 0.54790  0.25600  0.90760  Biso   1.000  H
  H11      1.0000 0.54110  0.23890  0.85880  Biso   1.000  H
  H12      1.0000 0.50300  0.22370  0.89120  Biso   1.000  H
  O7       1.0000 0.12800  0.23900  0.78800  Biso   1.000  O
  O8       1.0000 0.24200  0.42500  0.75000  Biso   1.000  O
  C31      1.0000 0.10300  0.15500  0.77600  Biso   1.000  C
  C32      1.0000 0.30400  0.55500  0.72900  Biso   1.000  C
  H13      1.0000 0.32950  0.56890  0.71410  Biso   1.000  H
  C33      1.0000 0.08100  0.11100  0.77600  Biso   1.000  C
  H14      1.0000 0.09050  0.09640  0.79240  Biso   1.000  H
  C34      1.0000 0.14100  0.17000  0.80700  Biso   1.000  C
  H15      1.0000 0.14630  0.14890  0.81290  Biso   1.000  H
  H16      1.0000 0.13500  0.18060  0.83410  Biso   1.000  H
  H17      1.0000 0.16430  0.19350  0.79240  Biso   1.000  H
  C35      1.0000 0.28300  0.51200  0.72900  Biso   1.000  C
  C36      1.0000 0.30800  0.50000  0.70300  Biso   1.000  C
  H18      1.0000 0.30880  0.47540  0.71870  Biso   1.000  H
  H19      1.0000 0.33630  0.52050  0.69980  Biso   1.000  H
  H20      1.0000 0.29630  0.48830  0.67410  Biso   1.000  H
  C37      1.0000 0.22500  0.25800  0.87500  Biso   1.000  C
  H21      1.0000 0.22220  0.26380  0.90560  Biso   1.000  H
  H22      1.0000 0.22190  0.23060  0.87320  Biso   1.000  H
  H23      1.0000 0.20420  0.25900  0.85740  Biso   1.000  H
  C38      1.0000 0.43800  0.27600  0.11700  Biso   1.000  C
  H24      1.0000 0.44490  0.30360  0.12730  Biso   1.000  H
  H25      1.0000 0.46080  0.27780  0.10100  Biso   1.000  H
  H26      1.0000 0.43170  0.25820  0.14240  Biso   1.000  H
  Zn4      1.0000 0.18810  0.30120  0.72250  Biso   1.000  Zn
  Zn5      1.0000 0.20710  0.37130  0.79440  Biso   1.000  Zn
  O9       1.0000 0.36500  0.18800  0.15100  Biso   1.000  O
  O10      1.0000 0.23100  0.30500  0.76500  Biso   1.000  O
  O11      1.0000 0.32200  0.21000  0.16200  Biso   1.000  O
  O12      1.0000 0.24800  0.35800  0.81300  Biso   1.000  O
  C39      1.0000 0.28800  0.33200  0.87400  Biso   1.000  C
  C40      1.0000 0.38600  0.23100  0.02500  Biso   1.000  C
  H27      1.0000 0.39790  0.22040  0.00540  Biso   1.000  H
  C41      1.0000 0.31700  0.32500  0.89700  Biso   1.000  C
  H28      1.0000 0.32120  0.33070  0.92720  Biso   1.000  H
  C42      1.0000 0.36100  0.27700  0.04200  Biso   1.000  C
  H29      1.0000 0.35530  0.29760  0.03280  Biso   1.000  H
  C43      1.0000 0.35200  0.26200  0.08500  Biso   1.000  C
  C44      1.0000 0.30200  0.30600  0.80500  Biso   1.000  C
  C45      1.0000 0.37700  0.21500  0.06800  Biso   1.000  C
  C46      1.0000 0.33100  0.29900  0.82900  Biso   1.000  C
  H30      1.0000 0.34540  0.28750  0.81470  Biso   1.000  H
  C47      1.0000 0.50500  0.31500  0.90100  Biso   1.000  C
  H31      1.0000 0.50630  0.31910  0.93140  Biso   1.000  H
  C48      1.0000 0.50900  0.31100  0.81300  Biso   1.000  C
  C49      1.0000 0.47600  0.30300  0.83400  Biso   1.000  C
  H32      1.0000 0.45230  0.29530  0.81600  Biso   1.000  H
  C50      1.0000 0.53600  0.31700  0.88000  Biso   1.000  C
  O13      1.0000 0.60600  0.36200  0.80600  Biso   1.000  O
  O14      1.0000 0.57800  0.28800  0.80900  Biso   1.000  O
  O15      1.0000 0.15600  0.25000  0.72500  Biso   1.000  O
  O16      1.0000 0.23600  0.43000  0.77700  Biso   1.000  O
  C51      1.0000 0.28300  0.51100  0.77100  Biso   1.000  C
  C52      1.0000 0.30200  0.49600  0.80500  Biso   1.000  C
  H33      1.0000 0.28180  0.47820  0.82630  Biso   1.000  H
  H34      1.0000 0.32450  0.51940  0.82040  Biso   1.000  H
  H35      1.0000 0.31360  0.48070  0.79030  Biso   1.000  H
  C53      1.0000 0.08000  0.11100  0.72300  Biso   1.000  C
  H36      1.0000 0.08970  0.09680  0.70580  Biso   1.000  H
  C54      1.0000 0.30400  0.55500  0.77100  Biso   1.000  C
  H37      1.0000 0.32930  0.56990  0.78670  Biso   1.000  H
  C55      1.0000 0.10200  0.15500  0.72300  Biso   1.000  C
  C56      1.0000 0.33200  0.28000  0.11000  Biso   1.000  C
  H38      1.0000 0.35150  0.31170  0.11300  Biso   1.000  H
  H39      1.0000 0.32550  0.27070  0.14050  Biso   1.000  H
  H40      1.0000 0.30740  0.27770  0.09630  Biso   1.000  H
  C57      1.0000 0.30000  0.29500  0.75600  Biso   1.000  C
  H41      1.0000 0.28870  0.26660  0.75220  Biso   1.000  H
  H42      1.0000 0.31970  0.31320  0.73980  Biso   1.000  H
  H43      1.0000 0.27210  0.29780  0.74590  Biso   1.000  H
  C58      1.0000 0.50000  0.30000  0.76000  Biso   1.000  C
  H44      1.0000 0.47530  0.27590  0.75500  Biso   1.000  H
  H45      1.0000 0.52070  0.31040  0.74240  Biso   1.000  H
  H46      1.0000 0.48650  0.32260  0.75160  Biso   1.000  H
  C59      1.0000 0.39000  0.18200  0.07000  Biso   1.000  C
  H47      1.0000 0.36540  0.15540  0.07480  Biso   1.000  H
  H48      1.0000 0.40860  0.18820  0.09480  Biso   1.000  H
  H49      1.0000 0.40310  0.18210  0.04300  Biso   1.000  H
  C60      1.0000 0.26600  0.35100  0.89800  Biso   1.000  C
  H50      1.0000 0.24950  0.33230  0.92190  Biso   1.000  H
  H51      1.0000 0.24740  0.35380  0.87770  Biso   1.000  H
  H52      1.0000 0.28540  0.37720  0.91010  Biso   1.000  H
  C61      1.0000 0.13800  0.16000  0.68900  Biso   1.000  C
  H53      1.0000 0.14070  0.18630  0.66910  Biso   1.000  H
  H54      1.0000 0.13130  0.14020  0.67260  Biso   1.000  H
  H55      1.0000 0.16360  0.17420  0.70500  Biso   1.000  H
  C62      1.0000 0.55000  0.39000  0.79900  Biso   1.000  C
  H56      1.0000 0.54690  0.38320  0.76830  Biso   1.000  H
  H57      1.0000 0.57900  0.40680  0.80650  Biso   1.000  H
  H58      1.0000 0.53600  0.40520  0.80620  Biso   1.000  H
  C63      1.0000 0.28200  0.18400  0.07200  Biso   1.000  C
  H59      1.0000 0.27890  0.16490  0.09600  Biso   1.000  H
  H60      1.0000 0.27070  0.16820  0.04540  Biso   1.000  H
  H61      1.0000 0.26620  0.19720  0.08010  Biso   1.000  H
  C64      1.0000 0.34100  0.38500  0.78900  Biso   1.000  C
  H62      1.0000 0.31970  0.39070  0.78030  Biso   1.000  H
  H63      1.0000 0.35150  0.37780  0.76310  Biso   1.000  H
  H64      1.0000 0.36360  0.40910  0.80280  Biso   1.000  H
  Zn6      1.0000 0.63410  0.85850  0.73880  Biso   1.000  Zn
  Zn7      1.0000 0.70370  0.86070  0.80180  Biso   1.000  Zn
  Zn8      1.0000 0.65840  0.28070  0.71980  Biso   1.000  Zn
  O17      1.0000 0.64600  0.90600  0.77500  Biso   1.000  O
  O18      1.0000 0.76100  0.12900  0.17700  Biso   1.000  O
  O19      1.0000 0.65800  0.24900  0.77200  Biso   1.000  O
  O20      1.0000 0.69300  0.90500  0.82100  Biso   1.000  O
  C65      1.0000 0.67800  0.95900  0.82900  Biso   1.000  C
  C66      1.0000 0.65100  0.97500  0.82200  Biso   1.000  C
  C67      1.0000 0.65800  0.01030  0.84500  Biso   1.000  C
  H65      1.0000 0.64020  0.02090  0.83990  Biso   1.000  H
  C68      1.0000 0.69100  0.03000  0.87400  Biso   1.000  C
  C69      1.0000 0.71700  0.01300  0.88100  Biso   1.000  C
  H66      1.0000 0.73900  0.02630  0.90150  Biso   1.000  H
  C70      1.0000 0.71000  0.97760  0.85900  Biso   1.000  C
  C71      1.0000 0.67400  0.25600  0.81200  Biso   1.000  C
  O21      1.0000 0.82500  0.14200  0.14900  Biso   1.000  O
  C72      1.0000 0.69900  0.06800  0.89900  Biso   1.000  C
  C73      1.0000 0.69200  0.09700  0.87820  Biso   1.000  C
  H67      1.0000 0.68270  0.09390  0.84910  Biso   1.000  H
  C74      1.0000 0.70000  0.13300  0.90100  Biso   1.000  C
  C75      1.0000 0.71500  0.14000  0.94500  Biso   1.000  C
  H68      1.0000 0.71980  0.16320  0.96050  Biso   1.000  H
  C76      1.0000 0.72200  0.11000  0.96530  Biso   1.000  C
  C77      1.0000 0.71400  0.07400  0.94200  Biso   1.000  C
  H69      1.0000 0.71860  0.05430  0.95580  Biso   1.000  H
  C78      1.0000 0.77000  0.12900  0.09800  Biso   1.000  C
  C79      1.0000 0.74100  0.14100  0.08700  Biso   1.000  C
  C80      1.0000 0.72500  0.13400  0.04400  Biso   1.000  C
  H70      1.0000 0.70510  0.14180  0.03660  Biso   1.000  H
  C81      1.0000 0.73800  0.11600  0.01200  Biso   1.000  C
  C82      1.0000 0.76800  0.10600  0.02300  Biso   1.000  C
  H71      1.0000 0.77660  0.09330  0.00160  Biso   1.000  H
  C83      1.0000 0.78300  0.11100  0.06600  Biso   1.000  C
  C84      1.0000 0.55700  0.77900  0.75000  Biso   1.000  C
  C85      1.0000 0.67300  0.92100  0.80300  Biso   1.000  C
  C86      1.0000 0.78800  0.13700  0.14500  Biso   1.000  C
  C87      1.0000 0.69400  0.16500  0.87800  Biso   1.000  C
  C88      1.0000 0.66000  0.15300  0.85000  Biso   1.000  C
  H72      1.0000 0.64160  0.12470  0.84420  Biso   1.000  H
  C89      1.0000 0.65300  0.18200  0.82900  Biso   1.000  C
  C90      1.0000 0.68100  0.22500  0.83700  Biso   1.000  C
  C91      1.0000 0.71400  0.23600  0.86600  Biso   1.000  C
  C92      1.0000 0.72100  0.20700  0.88600  Biso   1.000  C
  H73      1.0000 0.74340  0.21490  0.90510  Biso   1.000  H
  O22      1.0000 0.67300  0.28800  0.83100  Biso   1.000  O
  C93      1.0000 0.77300  0.88600  0.75000  Biso   1.000  C
  C94      1.0000 0.75300  0.28200  0.88300  Biso   1.000  C
  H74      1.0000 0.74400  0.29190  0.90760  Biso   1.000  H
  H75      1.0000 0.76110  0.30220  0.85880  Biso   1.000  H
  H76      1.0000 0.77630  0.27930  0.89120  Biso   1.000  H
  O23      1.0000 0.76100  0.88900  0.78800  Biso   1.000  O
  O24      1.0000 0.57500  0.81700  0.75000  Biso   1.000  O
  C95      1.0000 0.84500  0.94800  0.77600  Biso   1.000  C
  C96      1.0000 0.44500  0.74900  0.72900  Biso   1.000  C
  H77      1.0000 0.43110  0.76060  0.71410  Biso   1.000  H
  C97      1.0000 0.88900  0.97000  0.77600  Biso   1.000  C
  H78      1.0000 0.90360  0.99410  0.79240  Biso   1.000  H
  C98      1.0000 0.83000  0.97100  0.80700  Biso   1.000  C
  H79      1.0000 0.85110  0.99740  0.81290  Biso   1.000  H
  H80      1.0000 0.81940  0.95440  0.83410  Biso   1.000  H
  H81      1.0000 0.80650  0.97080  0.79240  Biso   1.000  H
  C99      1.0000 0.48800  0.77100  0.72900  Biso   1.000  C
  C100     1.0000 0.50000  0.80800  0.70300  Biso   1.000  C
  H82      1.0000 0.52460  0.83340  0.71870  Biso   1.000  H
  H83      1.0000 0.47950  0.81580  0.69980  Biso   1.000  H
  H84      1.0000 0.51170  0.80800  0.67410  Biso   1.000  H
  C101     1.0000 0.74200  0.96700  0.87500  Biso   1.000  C
  H85      1.0000 0.73620  0.95840  0.90560  Biso   1.000  H
  H86      1.0000 0.76940  0.99130  0.87320  Biso   1.000  H
  H87      1.0000 0.74100  0.94520  0.85740  Biso   1.000  H
  C102     1.0000 0.72400  0.16200  0.11700  Biso   1.000  C
  H88      1.0000 0.69640  0.14130  0.12730  Biso   1.000  H
  H89      1.0000 0.72220  0.18300  0.10100  Biso   1.000  H
  H90      1.0000 0.74180  0.17350  0.14240  Biso   1.000  H
  Zn9      1.0000 0.69880  0.88690  0.72250  Biso   1.000  Zn
  Zn10     1.0000 0.62870  0.83580  0.79440  Biso   1.000  Zn
  O25      1.0000 0.81200  0.17700  0.15100  Biso   1.000  O
  O26      1.0000 0.69500  0.92600  0.76500  Biso   1.000  O
  O27      1.0000 0.79000  0.11200  0.16200  Biso   1.000  O
  O28      1.0000 0.64200  0.89000  0.81300  Biso   1.000  O
  C103     1.0000 0.66800  0.95600  0.87400  Biso   1.000  C
  C104     1.0000 0.76900  0.15500  0.02500  Biso   1.000  C
  H91      1.0000 0.77960  0.17750  0.00540  Biso   1.000  H
  C105     1.0000 0.67500  0.99200  0.89700  Biso   1.000  C
  H92      1.0000 0.66930  0.99050  0.92720  Biso   1.000  H
  C106     1.0000 0.72300  0.08400  0.04200  Biso   1.000  C
  H93      1.0000 0.70240  0.05770  0.03280  Biso   1.000  H
  C107     1.0000 0.73800  0.09000  0.08500  Biso   1.000  C
  C108     1.0000 0.69400  0.99600  0.80500  Biso   1.000  C
  C109     1.0000 0.78500  0.16200  0.06800  Biso   1.000  C
  C110     1.0000 0.70100  0.03200  0.82900  Biso   1.000  C
  H94      1.0000 0.71250  0.05790  0.81470  Biso   1.000  H
  C111     1.0000 0.68500  0.19000  0.90100  Biso   1.000  C
  H95      1.0000 0.68090  0.18720  0.93140  Biso   1.000  H
  C112     1.0000 0.68900  0.19800  0.81300  Biso   1.000  C
  C113     1.0000 0.69700  0.17300  0.83400  Biso   1.000  C
  H96      1.0000 0.70470  0.15700  0.81600  Biso   1.000  H
  C114     1.0000 0.68300  0.21900  0.88000  Biso   1.000  C
  O29      1.0000 0.63800  0.24400  0.80600  Biso   1.000  O
  O30      1.0000 0.71200  0.29000  0.80900  Biso   1.000  O
  O31      1.0000 0.75000  0.90600  0.72500  Biso   1.000  O
  O32      1.0000 0.57000  0.80600  0.77700  Biso   1.000  O
  C115     1.0000 0.48900  0.77200  0.77100  Biso   1.000  C
  C116     1.0000 0.50400  0.80600  0.80500  Biso   1.000  C
  H97      1.0000 0.52180  0.80360  0.82630  Biso   1.000  H
  H98      1.0000 0.48060  0.80510  0.82040  Biso   1.000  H
  H99      1.0000 0.51930  0.83290  0.79030  Biso   1.000  H
  C117     1.0000 0.88900  0.96900  0.72300  Biso   1.000  C
  H100     1.0000 0.90320  0.99290  0.70580  Biso   1.000  H
  C118     1.0000 0.44500  0.74900  0.77100  Biso   1.000  C
  H101     1.0000 0.43010  0.75940  0.78670  Biso   1.000  H
  C119     1.0000 0.84500  0.94700  0.72300  Biso   1.000  C
  C120     1.0000 0.72000  0.05200  0.11000  Biso   1.000  C
  H102     1.0000 0.68830  0.03980  0.11300  Biso   1.000  H
  H103     1.0000 0.72930  0.05480  0.14050  Biso   1.000  H
  H104     1.0000 0.72230  0.02970  0.09630  Biso   1.000  H
  C121     1.0000 0.70500  0.00500  0.75600  Biso   1.000  C
  H105     1.0000 0.73340  0.02210  0.75220  Biso   1.000  H
  H106     1.0000 0.68680  0.00650  0.73980  Biso   1.000  H
  H107     1.0000 0.70220  0.97430  0.74590  Biso   1.000  H
  C122     1.0000 0.70000  0.20000  0.76000  Biso   1.000  C
  H108     1.0000 0.72410  0.19940  0.75500  Biso   1.000  H
  H109     1.0000 0.68960  0.21030  0.74240  Biso   1.000  H
  H110     1.0000 0.67740  0.16390  0.75160  Biso   1.000  H
  C123     1.0000 0.81800  0.20800  0.07000  Biso   1.000  C
  H111     1.0000 0.84460  0.21000  0.07480  Biso   1.000  H
  H112     1.0000 0.81180  0.22040  0.09480  Biso   1.000  H
  H113     1.0000 0.81790  0.22100  0.04300  Biso   1.000  H
  C124     1.0000 0.64900  0.91500  0.89800  Biso   1.000  C
  H114     1.0000 0.66770  0.91720  0.92190  Biso   1.000  H
  H115     1.0000 0.64620  0.89360  0.87770  Biso   1.000  H
  H116     1.0000 0.62280  0.90820  0.91010  Biso   1.000  H
  C125     1.0000 0.84000  0.97800  0.68900  Biso   1.000  C
  H117     1.0000 0.81370  0.95440  0.66910  Biso   1.000  H
  H118     1.0000 0.85980  0.99110  0.67260  Biso   1.000  H
  H119     1.0000 0.82580  0.98940  0.70500  Biso   1.000  H
  C126     1.0000 0.61000  0.16000  0.79900  Biso   1.000  C
  H120     1.0000 0.61680  0.16370  0.76830  Biso   1.000  H
  H121     1.0000 0.59320  0.17220  0.80650  Biso   1.000  H
  H122     1.0000 0.59480  0.13080  0.80620  Biso   1.000  H
  C127     1.0000 0.81600  0.09800  0.07200  Biso   1.000  C
  H123     1.0000 0.83510  0.11400  0.09600  Biso   1.000  H
  H124     1.0000 0.83180  0.10250  0.04540  Biso   1.000  H
  H125     1.0000 0.80280  0.06900  0.08010  Biso   1.000  H
  C128     1.0000 0.61500  0.95600  0.78900  Biso   1.000  C
  H126     1.0000 0.60930  0.92900  0.78030  Biso   1.000  H
  H127     1.0000 0.62220  0.97370  0.76310  Biso   1.000  H
  H128     1.0000 0.59090  0.95450  0.80280  Biso   1.000  H
  Zn11     1.0000 0.14150  0.77560  0.73880  Biso   1.000  Zn
  Zn12     1.0000 0.13930  0.84300  0.80180  Biso   1.000  Zn
  Zn13     1.0000 0.71930  0.37770  0.71980  Biso   1.000  Zn
  O33      1.0000 0.09400  0.74000  0.77500  Biso   1.000  O
  O34      1.0000 0.87100  0.63200  0.17700  Biso   1.000  O
  O35      1.0000 0.75100  0.40900  0.77200  Biso   1.000  O
  O36      1.0000 0.09500  0.78800  0.82100  Biso   1.000  O
  C129     1.0000 0.04100  0.71900  0.82900  Biso   1.000  C
  C130     1.0000 0.02500  0.67600  0.82200  Biso   1.000  C
  C131     1.0000 0.98970  0.64770  0.84500  Biso   1.000  C
  H129     1.0000 0.97910  0.61930  0.83990  Biso   1.000  H
  C132     1.0000 0.97000  0.66100  0.87400  Biso   1.000  C
  C133     1.0000 0.98700  0.70400  0.88100  Biso   1.000  C
  H130     1.0000 0.97370  0.71270  0.90150  Biso   1.000  H
  C134     1.0000 0.02240  0.73240  0.85900  Biso   1.000  C
  C135     1.0000 0.74400  0.41800  0.81200  Biso   1.000  C
  O37      1.0000 0.85800  0.68300  0.14900  Biso   1.000  O
  C136     1.0000 0.93200  0.63100  0.89900  Biso   1.000  C
  C137     1.0000 0.90300  0.59500  0.87820  Biso   1.000  C
  H131     1.0000 0.90610  0.58880  0.84910  Biso   1.000  H
  C138     1.0000 0.86700  0.56700  0.90100  Biso   1.000  C
  C139     1.0000 0.86000  0.57500  0.94500  Biso   1.000  C
  H132     1.0000 0.83680  0.55660  0.96050  Biso   1.000  H
  C140     1.0000 0.89000  0.61200  0.96530  Biso   1.000  C
  C141     1.0000 0.92600  0.64000  0.94200  Biso   1.000  C
  H133     1.0000 0.94570  0.66430  0.95580  Biso   1.000  H
  C142     1.0000 0.87100  0.64100  0.09800  Biso   1.000  C
  C143     1.0000 0.85900  0.60000  0.08700  Biso   1.000  C
  C144     1.0000 0.86600  0.59100  0.04400  Biso   1.000  C
  H134     1.0000 0.85820  0.56330  0.03660  Biso   1.000  H
  C145     1.0000 0.88400  0.62200  0.01200  Biso   1.000  C
  C146     1.0000 0.89400  0.66200  0.02300  Biso   1.000  C
  H135     1.0000 0.90670  0.68330  0.00160  Biso   1.000  H
  C147     1.0000 0.88900  0.67200  0.06600  Biso   1.000  C
  C148     1.0000 0.22100  0.77800  0.75000  Biso   1.000  C
  C149     1.0000 0.07900  0.75200  0.80300  Biso   1.000  C
  C150     1.0000 0.86300  0.65100  0.14500  Biso   1.000  C
  C151     1.0000 0.83500  0.52900  0.87800  Biso   1.000  C
  C152     1.0000 0.84700  0.50700  0.85000  Biso   1.000  C
  H136     1.0000 0.87530  0.51690  0.84420  Biso   1.000  H
  C153     1.0000 0.81800  0.47100  0.82900  Biso   1.000  C
  C154     1.0000 0.77500  0.45600  0.83700  Biso   1.000  C
  C155     1.0000 0.76400  0.47800  0.86600  Biso   1.000  C
  C156     1.0000 0.79300  0.51400  0.88600  Biso   1.000  C
  H137     1.0000 0.78510  0.52850  0.90510  Biso   1.000  H
  O38      1.0000 0.71200  0.38500  0.83100  Biso   1.000  O
  C157     1.0000 0.11400  0.88700  0.75000  Biso   1.000  C
  C158     1.0000 0.71800  0.47100  0.88300  Biso   1.000  C
  H138     1.0000 0.70810  0.45210  0.90760  Biso   1.000  H
  H139     1.0000 0.69780  0.45890  0.85880  Biso   1.000  H
  H140     1.0000 0.72070  0.49700  0.89120  Biso   1.000  H
  O39      1.0000 0.11100  0.87200  0.78800  Biso   1.000  O
  O40      1.0000 0.18300  0.75800  0.75000  Biso   1.000  O
  C159     1.0000 0.05200  0.89700  0.77600  Biso   1.000  C
  C160     1.0000 0.25100  0.69600  0.72900  Biso   1.000  C
  H141     1.0000 0.23940  0.67050  0.71410  Biso   1.000  H
  C161     1.0000 0.03000  0.91900  0.77600  Biso   1.000  C
  H142     1.0000 0.00590  0.90950  0.79240  Biso   1.000  H
  C162     1.0000 0.02900  0.85900  0.80700  Biso   1.000  C
  H143     1.0000 0.00260  0.85370  0.81290  Biso   1.000  H
  H144     1.0000 0.04560  0.86500  0.83410  Biso   1.000  H
  H145     1.0000 0.02920  0.83570  0.79240  Biso   1.000  H
  C163     1.0000 0.22900  0.71700  0.72900  Biso   1.000  C
  C164     1.0000 0.19200  0.69200  0.70300  Biso   1.000  C
  H146     1.0000 0.16660  0.69120  0.71870  Biso   1.000  H
  H147     1.0000 0.18420  0.66370  0.69980  Biso   1.000  H
  H148     1.0000 0.19200  0.70370  0.67410  Biso   1.000  H
  C165     1.0000 0.03300  0.77500  0.87500  Biso   1.000  C
  H149     1.0000 0.04160  0.77780  0.90560  Biso   1.000  H
  H150     1.0000 0.00870  0.77810  0.87320  Biso   1.000  H
  H151     1.0000 0.05480  0.79580  0.85740  Biso   1.000  H
  C166     1.0000 0.83800  0.56200  0.11700  Biso   1.000  C
  H152     1.0000 0.85870  0.55510  0.12730  Biso   1.000  H
  H153     1.0000 0.81700  0.53920  0.10100  Biso   1.000  H
  H154     1.0000 0.82650  0.56830  0.14240  Biso   1.000  H
  Zn14     1.0000 0.11310  0.81190  0.72250  Biso   1.000  Zn
  Zn15     1.0000 0.16420  0.79290  0.79440  Biso   1.000  Zn
  O41      1.0000 0.82300  0.63500  0.15100  Biso   1.000  O
  O42      1.0000 0.07400  0.76900  0.76500  Biso   1.000  O
  O43      1.0000 0.88800  0.67800  0.16200  Biso   1.000  O
  O44      1.0000 0.11000  0.75200  0.81300  Biso   1.000  O
  C167     1.0000 0.04400  0.71200  0.87400  Biso   1.000  C
  C168     1.0000 0.84500  0.61400  0.02500  Biso   1.000  C
  H155     1.0000 0.82250  0.60210  0.00540  Biso   1.000  H
  C169     1.0000 0.00800  0.68300  0.89700  Biso   1.000  C
  H156     1.0000 0.00950  0.67880  0.92720  Biso   1.000  H
  C170     1.0000 0.91600  0.63900  0.04200  Biso   1.000  C
  H157     1.0000 0.94230  0.64470  0.03280  Biso   1.000  H
  C171     1.0000 0.91000  0.64800  0.08500  Biso   1.000  C
  C172     1.0000 0.00400  0.69800  0.80500  Biso   1.000  C
  C173     1.0000 0.83800  0.62300  0.06800  Biso   1.000  C
  C174     1.0000 0.96800  0.66900  0.82900  Biso   1.000  C
  H158     1.0000 0.94210  0.65460  0.81470  Biso   1.000  H
  C175     1.0000 0.81000  0.49500  0.90100  Biso   1.000  C
  H159     1.0000 0.81280  0.49370  0.93140  Biso   1.000  H
  C176     1.0000 0.80200  0.49100  0.81300  Biso   1.000  C
  C177     1.0000 0.82700  0.52400  0.83400  Biso   1.000  C
  H160     1.0000 0.84300  0.54770  0.81600  Biso   1.000  H
  C178     1.0000 0.78100  0.46400  0.88000  Biso   1.000  C
  O45      1.0000 0.75600  0.39400  0.80600  Biso   1.000  O
  O46      1.0000 0.71000  0.42200  0.80900  Biso   1.000  O
  O47      1.0000 0.09400  0.84400  0.72500  Biso   1.000  O
  O48      1.0000 0.19400  0.76400  0.77700  Biso   1.000  O
  C179     1.0000 0.22800  0.71700  0.77100  Biso   1.000  C
  C180     1.0000 0.19400  0.69800  0.80500  Biso   1.000  C
  H161     1.0000 0.19640  0.71820  0.82630  Biso   1.000  H
  H162     1.0000 0.19490  0.67550  0.82040  Biso   1.000  H
  H163     1.0000 0.16710  0.68640  0.79030  Biso   1.000  H
  C181     1.0000 0.03100  0.92000  0.72300  Biso   1.000  C
  H164     1.0000 0.00710  0.91030  0.70580  Biso   1.000  H
  C182     1.0000 0.25100  0.69600  0.77100  Biso   1.000  C
  H165     1.0000 0.24060  0.67070  0.78670  Biso   1.000  H
  C183     1.0000 0.05300  0.89800  0.72300  Biso   1.000  C
  C184     1.0000 0.94800  0.66800  0.11000  Biso   1.000  C
  H166     1.0000 0.96020  0.64850  0.11300  Biso   1.000  H
  H167     1.0000 0.94520  0.67450  0.14050  Biso   1.000  H
  H168     1.0000 0.97030  0.69260  0.09630  Biso   1.000  H
  C185     1.0000 0.99500  0.70000  0.75600  Biso   1.000  C
  H169     1.0000 0.97790  0.71130  0.75220  Biso   1.000  H
  H170     1.0000 0.99350  0.68030  0.73980  Biso   1.000  H
  H171     1.0000 0.02570  0.72790  0.74590  Biso   1.000  H
  C186     1.0000 0.80000  0.50000  0.76000  Biso   1.000  C
  H172     1.0000 0.80060  0.52470  0.75500  Biso   1.000  H
  H173     1.0000 0.78970  0.47930  0.74240  Biso   1.000  H
  H174     1.0000 0.83610  0.51350  0.75160  Biso   1.000  H
  C187     1.0000 0.79200  0.61000  0.07000  Biso   1.000  C
  H175     1.0000 0.79000  0.63460  0.07480  Biso   1.000  H
  H176     1.0000 0.77960  0.59140  0.09480  Biso   1.000  H
  H177     1.0000 0.77900  0.59690  0.04300  Biso   1.000  H
  C188     1.0000 0.08500  0.73400  0.89800  Biso   1.000  C
  H178     1.0000 0.08280  0.75050  0.92190  Biso   1.000  H
  H179     1.0000 0.10640  0.75260  0.87770  Biso   1.000  H
  H180     1.0000 0.09180  0.71460  0.91010  Biso   1.000  H
  C189     1.0000 0.02200  0.86200  0.68900  Biso   1.000  C
  H181     1.0000 0.04560  0.85930  0.66910  Biso   1.000  H
  H182     1.0000 0.00890  0.86870  0.67260  Biso   1.000  H
  H183     1.0000 0.01060  0.83640  0.70500  Biso   1.000  H
  C190     1.0000 0.84000  0.45000  0.79900  Biso   1.000  C
  H184     1.0000 0.83630  0.45310  0.76830  Biso   1.000  H
  H185     1.0000 0.82780  0.42100  0.80650  Biso   1.000  H
  H186     1.0000 0.86920  0.46400  0.80620  Biso   1.000  H
  C191     1.0000 0.90200  0.71800  0.07200  Biso   1.000  C
  H187     1.0000 0.88600  0.72110  0.09600  Biso   1.000  H
  H188     1.0000 0.89750  0.72930  0.04540  Biso   1.000  H
  H189     1.0000 0.93100  0.73380  0.08010  Biso   1.000  H
  C192     1.0000 0.04400  0.65900  0.78900  Biso   1.000  C
  H190     1.0000 0.07100  0.68030  0.78030  Biso   1.000  H
  H191     1.0000 0.02630  0.64850  0.76310  Biso   1.000  H
  H192     1.0000 0.04550  0.63640  0.80280  Biso   1.000  H
  Zn16     1.0000 0.63410  0.77560  0.76120  Biso   1.000  Zn
  Zn17     1.0000 0.70370  0.84300  0.69820  Biso   1.000  Zn
  Zn18     1.0000 0.65840  0.37770  0.78020  Biso   1.000  Zn
  O49      1.0000 0.64600  0.74000  0.72500  Biso   1.000  O
  O50      1.0000 0.76100  0.63200  0.32300  Biso   1.000  O
  O51      1.0000 0.65800  0.40900  0.72800  Biso   1.000  O
  O52      1.0000 0.69300  0.78800  0.67900  Biso   1.000  O
  C193     1.0000 0.67800  0.71900  0.67100  Biso   1.000  C
  C194     1.0000 0.65100  0.67600  0.67800  Biso   1.000  C
  C195     1.0000 0.65800  0.64770  0.65500  Biso   1.000  C
  H193     1.0000 0.64020  0.61930  0.66010  Biso   1.000  H
  C196     1.0000 0.69100  0.66100  0.62600  Biso   1.000  C
  C197     1.0000 0.71700  0.70400  0.61900  Biso   1.000  C
  H194     1.0000 0.73900  0.71270  0.59850  Biso   1.000  H
  C198     1.0000 0.71000  0.73240  0.64100  Biso   1.000  C
  C199     1.0000 0.67400  0.41800  0.68800  Biso   1.000  C
  O53      1.0000 0.82500  0.68300  0.35100  Biso   1.000  O
  C200     1.0000 0.69900  0.63100  0.60100  Biso   1.000  C
  C201     1.0000 0.69200  0.59500  0.62180  Biso   1.000  C
  H195     1.0000 0.68270  0.58880  0.65090  Biso   1.000  H
  C202     1.0000 0.70000  0.56700  0.59900  Biso   1.000  C
  C203     1.0000 0.71500  0.57500  0.55500  Biso   1.000  C
  H196     1.0000 0.71980  0.55660  0.53950  Biso   1.000  H
  C204     1.0000 0.72200  0.61200  0.53470  Biso   1.000  C
  C205     1.0000 0.71400  0.64000  0.55800  Biso   1.000  C
  H197     1.0000 0.71860  0.66430  0.54420  Biso   1.000  H
  C206     1.0000 0.77000  0.64100  0.40200  Biso   1.000  C
  C207     1.0000 0.74100  0.60000  0.41300  Biso   1.000  C
  C208     1.0000 0.72500  0.59100  0.45600  Biso   1.000  C
  H198     1.0000 0.70510  0.56330  0.46340  Biso   1.000  H
  C209     1.0000 0.73800  0.62200  0.48800  Biso   1.000  C
  C210     1.0000 0.76800  0.66200  0.47700  Biso   1.000  C
  H199     1.0000 0.77660  0.68330  0.49840  Biso   1.000  H
  C211     1.0000 0.78300  0.67200  0.43400  Biso   1.000  C
  C212     1.0000 0.55700  0.77800  0.75000  Biso   1.000  C
  C213     1.0000 0.67300  0.75200  0.69700  Biso   1.000  C
  C214     1.0000 0.78800  0.65100  0.35500  Biso   1.000  C
  C215     1.0000 0.69400  0.52900  0.62200  Biso   1.000  C
  C216     1.0000 0.66000  0.50700  0.65000  Biso   1.000  C
  H200     1.0000 0.64160  0.51690  0.65580  Biso   1.000  H
  C217     1.0000 0.65300  0.47100  0.67100  Biso   1.000  C
  C218     1.0000 0.68100  0.45600  0.66300  Biso   1.000  C
  C219     1.0000 0.71400  0.47800  0.63400  Biso   1.000  C
  C220     1.0000 0.72100  0.51400  0.61400  Biso   1.000  C
  H201     1.0000 0.74340  0.52850  0.59490  Biso   1.000  H
  O54      1.0000 0.67300  0.38500  0.66900  Biso   1.000  O
  C221     1.0000 0.77300  0.88700  0.75000  Biso   1.000  C
  C222     1.0000 0.75300  0.47100  0.61700  Biso   1.000  C
  H202     1.0000 0.74400  0.45210  0.59240  Biso   1.000  H
  H203     1.0000 0.76110  0.45890  0.64120  Biso   1.000  H
  H204     1.0000 0.77630  0.49700  0.60880  Biso   1.000  H
  O55      1.0000 0.76100  0.87200  0.71200  Biso   1.000  O
  O56      1.0000 0.57500  0.75800  0.75000  Biso   1.000  O
  C223     1.0000 0.84500  0.89700  0.72400  Biso   1.000  C
  C224     1.0000 0.44500  0.69600  0.77100  Biso   1.000  C
  H205     1.0000 0.43110  0.67050  0.78590  Biso   1.000  H
  C225     1.0000 0.88900  0.91900  0.72400  Biso   1.000  C
  H206     1.0000 0.90360  0.90950  0.70760  Biso   1.000  H
  C226     1.0000 0.83000  0.85900  0.69300  Biso   1.000  C
  H207     1.0000 0.85110  0.85370  0.68710  Biso   1.000  H
  H208     1.0000 0.81940  0.86500  0.66590  Biso   1.000  H
  H209     1.0000 0.80650  0.83570  0.70760  Biso   1.000  H
  C227     1.0000 0.48800  0.71700  0.77100  Biso   1.000  C
  C228     1.0000 0.50000  0.69200  0.79700  Biso   1.000  C
  H210     1.0000 0.52460  0.69120  0.78130  Biso   1.000  H
  H211     1.0000 0.47950  0.66370  0.80020  Biso   1.000  H
  H212     1.0000 0.51170  0.70370  0.82590  Biso   1.000  H
  C229     1.0000 0.74200  0.77500  0.62500  Biso   1.000  C
  H213     1.0000 0.73620  0.77780  0.59440  Biso   1.000  H
  H214     1.0000 0.76940  0.77810  0.62680  Biso   1.000  H
  H215     1.0000 0.74100  0.79580  0.64260  Biso   1.000  H
  C230     1.0000 0.72400  0.56200  0.38300  Biso   1.000  C
  H216     1.0000 0.69640  0.55510  0.37270  Biso   1.000  H
  H217     1.0000 0.72220  0.53920  0.39900  Biso   1.000  H
  H218     1.0000 0.74180  0.56830  0.35760  Biso   1.000  H
  Zn19     1.0000 0.69880  0.81190  0.77750  Biso   1.000  Zn
  Zn20     1.0000 0.62870  0.79290  0.70560  Biso   1.000  Zn
  O57      1.0000 0.81200  0.63500  0.34900  Biso   1.000  O
  O58      1.0000 0.69500  0.76900  0.73500  Biso   1.000  O
  O59      1.0000 0.79000  0.67800  0.33800  Biso   1.000  O
  O60      1.0000 0.64200  0.75200  0.68700  Biso   1.000  O
  C231     1.0000 0.66800  0.71200  0.62600  Biso   1.000  C
  C232     1.0000 0.76900  0.61400  0.47500  Biso   1.000  C
  H219     1.0000 0.77960  0.60210  0.49460  Biso   1.000  H
  C233     1.0000 0.67500  0.68300  0.60300  Biso   1.000  C
  H220     1.0000 0.66930  0.67880  0.57280  Biso   1.000  H
  C234     1.0000 0.72300  0.63900  0.45800  Biso   1.000  C
  H221     1.0000 0.70240  0.64470  0.46720  Biso   1.000  H
  C235     1.0000 0.73800  0.64800  0.41500  Biso   1.000  C
  C236     1.0000 0.69400  0.69800  0.69500  Biso   1.000  C
  C237     1.0000 0.78500  0.62300  0.43200  Biso   1.000  C
  C238     1.0000 0.70100  0.66900  0.67100  Biso   1.000  C
  H222     1.0000 0.71250  0.65460  0.68530  Biso   1.000  H
  C239     1.0000 0.68500  0.49500  0.59900  Biso   1.000  C
  H223     1.0000 0.68090  0.49370  0.56860  Biso   1.000  H
  C240     1.0000 0.68900  0.49100  0.68700  Biso   1.000  C
  C241     1.0000 0.69700  0.52400  0.66600  Biso   1.000  C
  H224     1.0000 0.70470  0.54770  0.68400  Biso   1.000  H
  C242     1.0000 0.68300  0.46400  0.62000  Biso   1.000  C
  O61      1.0000 0.63800  0.39400  0.69400  Biso   1.000  O
  O62      1.0000 0.71200  0.42200  0.69100  Biso   1.000  O
  O63      1.0000 0.75000  0.84400  0.77500  Biso   1.000  O
  O64      1.0000 0.57000  0.76400  0.72300  Biso   1.000  O
  C243     1.0000 0.48900  0.71700  0.72900  Biso   1.000  C
  C244     1.0000 0.50400  0.69800  0.69500  Biso   1.000  C
  H225     1.0000 0.52180  0.71820  0.67370  Biso   1.000  H
  H226     1.0000 0.48060  0.67550  0.67960  Biso   1.000  H
  H227     1.0000 0.51930  0.68640  0.70970  Biso   1.000  H
  C245     1.0000 0.88900  0.92000  0.77700  Biso   1.000  C
  H228     1.0000 0.90320  0.91030  0.79420  Biso   1.000  H
  C246     1.0000 0.44500  0.69600  0.72900  Biso   1.000  C
  H229     1.0000 0.43010  0.67070  0.71330  Biso   1.000  H
  C247     1.0000 0.84500  0.89800  0.77700  Biso   1.000  C
  C248     1.0000 0.72000  0.66800  0.39000  Biso   1.000  C
  H230     1.0000 0.68830  0.64850  0.38700  Biso   1.000  H
  H231     1.0000 0.72930  0.67450  0.35950  Biso   1.000  H
  H232     1.0000 0.72230  0.69260  0.40370  Biso   1.000  H
  C249     1.0000 0.70500  0.70000  0.74400  Biso   1.000  C
  H233     1.0000 0.73340  0.71130  0.74780  Biso   1.000  H
  H234     1.0000 0.68680  0.68030  0.76020  Biso   1.000  H
  H235     1.0000 0.70220  0.72790  0.75410  Biso   1.000  H
  C250     1.0000 0.70000  0.50000  0.74000  Biso   1.000  C
  H236     1.0000 0.72410  0.52470  0.74500  Biso   1.000  H
  H237     1.0000 0.68960  0.47930  0.75760  Biso   1.000  H
  H238     1.0000 0.67740  0.51350  0.74840  Biso   1.000  H
  C251     1.0000 0.81800  0.61000  0.43000  Biso   1.000  C
  H239     1.0000 0.84460  0.63460  0.42520  Biso   1.000  H
  H240     1.0000 0.81180  0.59140  0.40520  Biso   1.000  H
  H241     1.0000 0.81790  0.59690  0.45700  Biso   1.000  H
  C252     1.0000 0.64900  0.73400  0.60200  Biso   1.000  C
  H242     1.0000 0.66770  0.75050  0.57810  Biso   1.000  H
  H243     1.0000 0.64620  0.75260  0.62230  Biso   1.000  H
  H244     1.0000 0.62280  0.71460  0.58990  Biso   1.000  H
  C253     1.0000 0.84000  0.86200  0.81100  Biso   1.000  C
  H245     1.0000 0.81370  0.85930  0.83090  Biso   1.000  H
  H246     1.0000 0.85980  0.86870  0.82740  Biso   1.000  H
  H247     1.0000 0.82580  0.83640  0.79500  Biso   1.000  H
  C254     1.0000 0.61000  0.45000  0.70100  Biso   1.000  C
  H248     1.0000 0.61680  0.45310  0.73170  Biso   1.000  H
  H249     1.0000 0.59320  0.42100  0.69350  Biso   1.000  H
  H250     1.0000 0.59480  0.46400  0.69380  Biso   1.000  H
  C255     1.0000 0.81600  0.71800  0.42800  Biso   1.000  C
  H251     1.0000 0.83510  0.72110  0.40400  Biso   1.000  H
  H252     1.0000 0.83180  0.72930  0.45460  Biso   1.000  H
  H253     1.0000 0.80280  0.73380  0.41990  Biso   1.000  H
  C256     1.0000 0.61500  0.65900  0.71100  Biso   1.000  C
  H254     1.0000 0.60930  0.68030  0.71970  Biso   1.000  H
  H255     1.0000 0.62220  0.64850  0.73690  Biso   1.000  H
  H256     1.0000 0.59090  0.63640  0.69720  Biso   1.000  H
  Zn21     1.0000 0.14150  0.36590  0.76120  Biso   1.000  Zn
  Zn22     1.0000 0.13930  0.29630  0.69820  Biso   1.000  Zn
  Zn23     1.0000 0.71930  0.34160  0.78020  Biso   1.000  Zn
  O65      1.0000 0.09400  0.35400  0.72500  Biso   1.000  O
  O66      1.0000 0.87100  0.23900  0.32300  Biso   1.000  O
  O67      1.0000 0.75100  0.34200  0.72800  Biso   1.000  O
  O68      1.0000 0.09500  0.30700  0.67900  Biso   1.000  O
  C257     1.0000 0.04100  0.32200  0.67100  Biso   1.000  C
  C258     1.0000 0.02500  0.34900  0.67800  Biso   1.000  C
  C259     1.0000 0.98970  0.34200  0.65500  Biso   1.000  C
  H257     1.0000 0.97910  0.35980  0.66010  Biso   1.000  H
  C260     1.0000 0.97000  0.30900  0.62600  Biso   1.000  C
  C261     1.0000 0.98700  0.28300  0.61900  Biso   1.000  C
  H258     1.0000 0.97370  0.26100  0.59850  Biso   1.000  H
  C262     1.0000 0.02240  0.29000  0.64100  Biso   1.000  C
  C263     1.0000 0.74400  0.32600  0.68800  Biso   1.000  C
  O69      1.0000 0.85800  0.17500  0.35100  Biso   1.000  O
  C264     1.0000 0.93200  0.30100  0.60100  Biso   1.000  C
  C265     1.0000 0.90300  0.30800  0.62180  Biso   1.000  C
  H259     1.0000 0.90610  0.31730  0.65090  Biso   1.000  H
  C266     1.0000 0.86700  0.30000  0.59900  Biso   1.000  C
  C267     1.0000 0.86000  0.28500  0.55500  Biso   1.000  C
  H260     1.0000 0.83680  0.28020  0.53950  Biso   1.000  H
  C268     1.0000 0.89000  0.27800  0.53470  Biso   1.000  C
  C269     1.0000 0.92600  0.28600  0.55800  Biso   1.000  C
  H261     1.0000 0.94570  0.28140  0.54420  Biso   1.000  H
  C270     1.0000 0.87100  0.23000  0.40200  Biso   1.000  C
  C271     1.0000 0.85900  0.25900  0.41300  Biso   1.000  C
  C272     1.0000 0.86600  0.27500  0.45600  Biso   1.000  C
  H262     1.0000 0.85820  0.29490  0.46340  Biso   1.000  H
  C273     1.0000 0.88400  0.26200  0.48800  Biso   1.000  C
  C274     1.0000 0.89400  0.23200  0.47700  Biso   1.000  C
  H263     1.0000 0.90670  0.22340  0.49840  Biso   1.000  H
  C275     1.0000 0.88900  0.21700  0.43400  Biso   1.000  C
  C276     1.0000 0.22100  0.44300  0.75000  Biso   1.000  C
  C277     1.0000 0.07900  0.32700  0.69700  Biso   1.000  C
  C278     1.0000 0.86300  0.21200  0.35500  Biso   1.000  C
  C279     1.0000 0.83500  0.30600  0.62200  Biso   1.000  C
  C280     1.0000 0.84700  0.34000  0.65000  Biso   1.000  C
  H264     1.0000 0.87530  0.35840  0.65580  Biso   1.000  H
  C281     1.0000 0.81800  0.34700  0.67100  Biso   1.000  C
  C282     1.0000 0.77500  0.31900  0.66300  Biso   1.000  C
  C283     1.0000 0.76400  0.28600  0.63400  Biso   1.000  C
  C284     1.0000 0.79300  0.27900  0.61400  Biso   1.000  C
  H265     1.0000 0.78510  0.25660  0.59490  Biso   1.000  H
  O70      1.0000 0.71200  0.32700  0.66900  Biso   1.000  O
  C285     1.0000 0.11400  0.22700  0.75000  Biso   1.000  C
  C286     1.0000 0.71800  0.24700  0.61700  Biso   1.000  C
  H266     1.0000 0.70810  0.25600  0.59240  Biso   1.000  H
  H267     1.0000 0.69780  0.23890  0.64120  Biso   1.000  H
  H268     1.0000 0.72070  0.22370  0.60880  Biso   1.000  H
  O71      1.0000 0.11100  0.23900  0.71200  Biso   1.000  O
  O72      1.0000 0.18300  0.42500  0.75000  Biso   1.000  O
  C287     1.0000 0.05200  0.15500  0.72400  Biso   1.000  C
  C288     1.0000 0.25100  0.55500  0.77100  Biso   1.000  C
  H269     1.0000 0.23940  0.56890  0.78590  Biso   1.000  H
  C289     1.0000 0.03000  0.11100  0.72400  Biso   1.000  C
  H270     1.0000 0.00590  0.09640  0.70760  Biso   1.000  H
  C290     1.0000 0.02900  0.17000  0.69300  Biso   1.000  C
  H271     1.0000 0.00260  0.14890  0.68710  Biso   1.000  H
  H272     1.0000 0.04560  0.18060  0.66590  Biso   1.000  H
  H273     1.0000 0.02920  0.19350  0.70760  Biso   1.000  H
  C291     1.0000 0.22900  0.51200  0.77100  Biso   1.000  C
  C292     1.0000 0.19200  0.50000  0.79700  Biso   1.000  C
  H274     1.0000 0.16660  0.47540  0.78130  Biso   1.000  H
  H275     1.0000 0.18420  0.52050  0.80020  Biso   1.000  H
  H276     1.0000 0.19200  0.48830  0.82590  Biso   1.000  H
  C293     1.0000 0.03300  0.25800  0.62500  Biso   1.000  C
  H277     1.0000 0.04160  0.26380  0.59440  Biso   1.000  H
  H278     1.0000 0.00870  0.23060  0.62680  Biso   1.000  H
  H279     1.0000 0.05480  0.25900  0.64260  Biso   1.000  H
  C294     1.0000 0.83800  0.27600  0.38300  Biso   1.000  C
  H280     1.0000 0.85870  0.30360  0.37270  Biso   1.000  H
  H281     1.0000 0.81700  0.27780  0.39900  Biso   1.000  H
  H282     1.0000 0.82650  0.25820  0.35760  Biso   1.000  H
  Zn24     1.0000 0.11310  0.30120  0.77750  Biso   1.000  Zn
  Zn25     1.0000 0.16420  0.37130  0.70560  Biso   1.000  Zn
  O73      1.0000 0.82300  0.18800  0.34900  Biso   1.000  O
  O74      1.0000 0.07400  0.30500  0.73500  Biso   1.000  O
  O75      1.0000 0.88800  0.21000  0.33800  Biso   1.000  O
  O76      1.0000 0.11000  0.35800  0.68700  Biso   1.000  O
  C295     1.0000 0.04400  0.33200  0.62600  Biso   1.000  C
  C296     1.0000 0.84500  0.23100  0.47500  Biso   1.000  C
  H283     1.0000 0.82250  0.22040  0.49460  Biso   1.000  H
  C297     1.0000 0.00800  0.32500  0.60300  Biso   1.000  C
  H284     1.0000 0.00950  0.33070  0.57280  Biso   1.000  H
  C298     1.0000 0.91600  0.27700  0.45800  Biso   1.000  C
  H285     1.0000 0.94230  0.29760  0.46720  Biso   1.000  H
  C299     1.0000 0.91000  0.26200  0.41500  Biso   1.000  C
  C300     1.0000 0.00400  0.30600  0.69500  Biso   1.000  C
  C301     1.0000 0.83800  0.21500  0.43200  Biso   1.000  C
  C302     1.0000 0.96800  0.29900  0.67100  Biso   1.000  C
  H286     1.0000 0.94210  0.28750  0.68530  Biso   1.000  H
  C303     1.0000 0.81000  0.31500  0.59900  Biso   1.000  C
  H287     1.0000 0.81280  0.31910  0.56860  Biso   1.000  H
  C304     1.0000 0.80200  0.31100  0.68700  Biso   1.000  C
  C305     1.0000 0.82700  0.30300  0.66600  Biso   1.000  C
  H288     1.0000 0.84300  0.29530  0.68400  Biso   1.000  H
  C306     1.0000 0.78100  0.31700  0.62000  Biso   1.000  C
  O77      1.0000 0.75600  0.36200  0.69400  Biso   1.000  O
  O78      1.0000 0.71000  0.28800  0.69100  Biso   1.000  O
  O79      1.0000 0.09400  0.25000  0.77500  Biso   1.000  O
  O80      1.0000 0.19400  0.43000  0.72300  Biso   1.000  O
  C307     1.0000 0.22800  0.51100  0.72900  Biso   1.000  C
  C308     1.0000 0.19400  0.49600  0.69500  Biso   1.000  C
  H289     1.0000 0.19640  0.47820  0.67370  Biso   1.000  H
  H290     1.0000 0.19490  0.51940  0.67960  Biso   1.000  H
  H291     1.0000 0.16710  0.48070  0.70970  Biso   1.000  H
  C309     1.0000 0.03100  0.11100  0.77700  Biso   1.000  C
  H292     1.0000 0.00710  0.09680  0.79420  Biso   1.000  H
  C310     1.0000 0.25100  0.55500  0.72900  Biso   1.000  C
  H293     1.0000 0.24060  0.56990  0.71330  Biso   1.000  H
  C311     1.0000 0.05300  0.15500  0.77700  Biso   1.000  C
  C312     1.0000 0.94800  0.28000  0.39000  Biso   1.000  C
  H294     1.0000 0.96020  0.31170  0.38700  Biso   1.000  H
  H295     1.0000 0.94520  0.27070  0.35950  Biso   1.000  H
  H296     1.0000 0.97030  0.27770  0.40370  Biso   1.000  H
  C313     1.0000 0.99500  0.29500  0.74400  Biso   1.000  C
  H297     1.0000 0.97790  0.26660  0.74780  Biso   1.000  H
  H298     1.0000 0.99350  0.31320  0.76020  Biso   1.000  H
  H299     1.0000 0.02570  0.29780  0.75410  Biso   1.000  H
  C314     1.0000 0.80000  0.30000  0.74000  Biso   1.000  C
  H300     1.0000 0.80060  0.27590  0.74500  Biso   1.000  H
  H301     1.0000 0.78970  0.31040  0.75760  Biso   1.000  H
  H302     1.0000 0.83610  0.32260  0.74840  Biso   1.000  H
  C315     1.0000 0.79200  0.18200  0.43000  Biso   1.000  C
  H303     1.0000 0.79000  0.15540  0.42520  Biso   1.000  H
  H304     1.0000 0.77960  0.18820  0.40520  Biso   1.000  H
  H305     1.0000 0.77900  0.18210  0.45700  Biso   1.000  H
  C316     1.0000 0.08500  0.35100  0.60200  Biso   1.000  C
  H306     1.0000 0.08280  0.33230  0.57810  Biso   1.000  H
  H307     1.0000 0.10640  0.35380  0.62230  Biso   1.000  H
  H308     1.0000 0.09180  0.37720  0.58990  Biso   1.000  H
  C317     1.0000 0.02200  0.16000  0.81100  Biso   1.000  C
  H309     1.0000 0.04560  0.18630  0.83090  Biso   1.000  H
  H310     1.0000 0.00890  0.14020  0.82740  Biso   1.000  H
  H311     1.0000 0.01060  0.17420  0.79500  Biso   1.000  H
  C318     1.0000 0.84000  0.39000  0.70100  Biso   1.000  C
  H312     1.0000 0.83630  0.38320  0.73170  Biso   1.000  H
  H313     1.0000 0.82780  0.40680  0.69350  Biso   1.000  H
  H314     1.0000 0.86920  0.40520  0.69380  Biso   1.000  H
  C319     1.0000 0.90200  0.18400  0.42800  Biso   1.000  C
  H315     1.0000 0.88600  0.16490  0.40400  Biso   1.000  H
  H316     1.0000 0.89750  0.16820  0.45460  Biso   1.000  H
  H317     1.0000 0.93100  0.19720  0.41990  Biso   1.000  H
  C320     1.0000 0.04400  0.38500  0.71100  Biso   1.000  C
  H318     1.0000 0.07100  0.39070  0.71970  Biso   1.000  H
  H319     1.0000 0.02630  0.37780  0.73690  Biso   1.000  H
  H320     1.0000 0.04550  0.40910  0.69720  Biso   1.000  H
  Zn26     1.0000 0.22440  0.85850  0.76120  Biso   1.000  Zn
  Zn27     1.0000 0.15700  0.86070  0.69820  Biso   1.000  Zn
  Zn28     1.0000 0.62230  0.28070  0.78020  Biso   1.000  Zn
  O81      1.0000 0.26000  0.90600  0.72500  Biso   1.000  O
  O82      1.0000 0.36800  0.12900  0.32300  Biso   1.000  O
  O83      1.0000 0.59100  0.24900  0.72800  Biso   1.000  O
  O84      1.0000 0.21200  0.90500  0.67900  Biso   1.000  O
  C321     1.0000 0.28100  0.95900  0.67100  Biso   1.000  C
  C322     1.0000 0.32400  0.97500  0.67800  Biso   1.000  C
  C323     1.0000 0.35230  0.01030  0.65500  Biso   1.000  C
  H321     1.0000 0.38070  0.02090  0.66010  Biso   1.000  H
  C324     1.0000 0.33900  0.03000  0.62600  Biso   1.000  C
  C325     1.0000 0.29600  0.01300  0.61900  Biso   1.000  C
  H322     1.0000 0.28730  0.02630  0.59850  Biso   1.000  H
  C326     1.0000 0.26760  0.97760  0.64100  Biso   1.000  C
  C327     1.0000 0.58200  0.25600  0.68800  Biso   1.000  C
  O85      1.0000 0.31700  0.14200  0.35100  Biso   1.000  O
  C328     1.0000 0.36900  0.06800  0.60100  Biso   1.000  C
  C329     1.0000 0.40500  0.09700  0.62180  Biso   1.000  C
  H323     1.0000 0.41120  0.09390  0.65090  Biso   1.000  H
  C330     1.0000 0.43300  0.13300  0.59900  Biso   1.000  C
  C331     1.0000 0.42500  0.14000  0.55500  Biso   1.000  C
  H324     1.0000 0.44340  0.16320  0.53950  Biso   1.000  H
  C332     1.0000 0.38800  0.11000  0.53470  Biso   1.000  C
  C333     1.0000 0.36000  0.07400  0.55800  Biso   1.000  C
  H325     1.0000 0.33570  0.05430  0.54420  Biso   1.000  H
  C334     1.0000 0.35900  0.12900  0.40200  Biso   1.000  C
  C335     1.0000 0.40000  0.14100  0.41300  Biso   1.000  C
  C336     1.0000 0.40900  0.13400  0.45600  Biso   1.000  C
  H326     1.0000 0.43670  0.14180  0.46340  Biso   1.000  H
  C337     1.0000 0.37800  0.11600  0.48800  Biso   1.000  C
  C338     1.0000 0.33800  0.10600  0.47700  Biso   1.000  C
  H327     1.0000 0.31670  0.09330  0.49840  Biso   1.000  H
  C339     1.0000 0.32800  0.11100  0.43400  Biso   1.000  C
  C340     1.0000 0.22200  0.77900  0.75000  Biso   1.000  C
  C341     1.0000 0.24800  0.92100  0.69700  Biso   1.000  C
  C342     1.0000 0.34900  0.13700  0.35500  Biso   1.000  C
  C343     1.0000 0.47100  0.16500  0.62200  Biso   1.000  C
  C344     1.0000 0.49300  0.15300  0.65000  Biso   1.000  C
  H328     1.0000 0.48310  0.12470  0.65580  Biso   1.000  H
  C345     1.0000 0.52900  0.18200  0.67100  Biso   1.000  C
  C346     1.0000 0.54400  0.22500  0.66300  Biso   1.000  C
  C347     1.0000 0.52200  0.23600  0.63400  Biso   1.000  C
  C348     1.0000 0.48600  0.20700  0.61400  Biso   1.000  C
  H329     1.0000 0.47150  0.21490  0.59490  Biso   1.000  H
  O86      1.0000 0.61500  0.28800  0.66900  Biso   1.000  O
  C349     1.0000 0.11300  0.88600  0.75000  Biso   1.000  C
  C350     1.0000 0.52900  0.28200  0.61700  Biso   1.000  C
  H330     1.0000 0.54790  0.29190  0.59240  Biso   1.000  H
  H331     1.0000 0.54110  0.30220  0.64120  Biso   1.000  H
  H332     1.0000 0.50300  0.27930  0.60880  Biso   1.000  H
  O87      1.0000 0.12800  0.88900  0.71200  Biso   1.000  O
  O88      1.0000 0.24200  0.81700  0.75000  Biso   1.000  O
  C351     1.0000 0.10300  0.94800  0.72400  Biso   1.000  C
  C352     1.0000 0.30400  0.74900  0.77100  Biso   1.000  C
  H333     1.0000 0.32950  0.76060  0.78590  Biso   1.000  H
  C353     1.0000 0.08100  0.97000  0.72400  Biso   1.000  C
  H334     1.0000 0.09050  0.99410  0.70760  Biso   1.000  H
  C354     1.0000 0.14100  0.97100  0.69300  Biso   1.000  C
  H335     1.0000 0.14630  0.99740  0.68710  Biso   1.000  H
  H336     1.0000 0.13500  0.95440  0.66590  Biso   1.000  H
  H337     1.0000 0.16430  0.97080  0.70760  Biso   1.000  H
  C355     1.0000 0.28300  0.77100  0.77100  Biso   1.000  C
  C356     1.0000 0.30800  0.80800  0.79700  Biso   1.000  C
  H338     1.0000 0.30880  0.83340  0.78130  Biso   1.000  H
  H339     1.0000 0.33630  0.81580  0.80020  Biso   1.000  H
  H340     1.0000 0.29630  0.80800  0.82590  Biso   1.000  H
  C357     1.0000 0.22500  0.96700  0.62500  Biso   1.000  C
  H341     1.0000 0.22220  0.95840  0.59440  Biso   1.000  H
  H342     1.0000 0.22190  0.99130  0.62680  Biso   1.000  H
  H343     1.0000 0.20420  0.94520  0.64260  Biso   1.000  H
  C358     1.0000 0.43800  0.16200  0.38300  Biso   1.000  C
  H344     1.0000 0.44490  0.14130  0.37270  Biso   1.000  H
  H345     1.0000 0.46080  0.18300  0.39900  Biso   1.000  H
  H346     1.0000 0.43170  0.17350  0.35760  Biso   1.000  H
  Zn29     1.0000 0.18810  0.88690  0.77750  Biso   1.000  Zn
  Zn30     1.0000 0.20710  0.83580  0.70560  Biso   1.000  Zn
  O89      1.0000 0.36500  0.17700  0.34900  Biso   1.000  O
  O90      1.0000 0.23100  0.92600  0.73500  Biso   1.000  O
  O91      1.0000 0.32200  0.11200  0.33800  Biso   1.000  O
  O92      1.0000 0.24800  0.89000  0.68700  Biso   1.000  O
  C359     1.0000 0.28800  0.95600  0.62600  Biso   1.000  C
  C360     1.0000 0.38600  0.15500  0.47500  Biso   1.000  C
  H347     1.0000 0.39790  0.17750  0.49460  Biso   1.000  H
  C361     1.0000 0.31700  0.99200  0.60300  Biso   1.000  C
  H348     1.0000 0.32120  0.99050  0.57280  Biso   1.000  H
  C362     1.0000 0.36100  0.08400  0.45800  Biso   1.000  C
  H349     1.0000 0.35530  0.05770  0.46720  Biso   1.000  H
  C363     1.0000 0.35200  0.09000  0.41500  Biso   1.000  C
  C364     1.0000 0.30200  0.99600  0.69500  Biso   1.000  C
  C365     1.0000 0.37700  0.16200  0.43200  Biso   1.000  C
  C366     1.0000 0.33100  0.03200  0.67100  Biso   1.000  C
  H350     1.0000 0.34540  0.05790  0.68530  Biso   1.000  H
  C367     1.0000 0.50500  0.19000  0.59900  Biso   1.000  C
  H351     1.0000 0.50630  0.18720  0.56860  Biso   1.000  H
  C368     1.0000 0.50900  0.19800  0.68700  Biso   1.000  C
  C369     1.0000 0.47600  0.17300  0.66600  Biso   1.000  C
  H352     1.0000 0.45230  0.15700  0.68400  Biso   1.000  H
  C370     1.0000 0.53600  0.21900  0.62000  Biso   1.000  C
  O93      1.0000 0.60600  0.24400  0.69400  Biso   1.000  O
  O94      1.0000 0.57800  0.29000  0.69100  Biso   1.000  O
  O95      1.0000 0.15600  0.90600  0.77500  Biso   1.000  O
  O96      1.0000 0.23600  0.80600  0.72300  Biso   1.000  O
  C371     1.0000 0.28300  0.77200  0.72900  Biso   1.000  C
  C372     1.0000 0.30200  0.80600  0.69500  Biso   1.000  C
  H353     1.0000 0.28180  0.80360  0.67370  Biso   1.000  H
  H354     1.0000 0.32450  0.80510  0.67960  Biso   1.000  H
  H355     1.0000 0.31360  0.83290  0.70970  Biso   1.000  H
  C373     1.0000 0.08000  0.96900  0.77700  Biso   1.000  C
  H356     1.0000 0.08970  0.99290  0.79420  Biso   1.000  H
  C374     1.0000 0.30400  0.74900  0.72900  Biso   1.000  C
  H357     1.0000 0.32930  0.75940  0.71330  Biso   1.000  H
  C375     1.0000 0.10200  0.94700  0.77700  Biso   1.000  C
  C376     1.0000 0.33200  0.05200  0.39000  Biso   1.000  C
  H358     1.0000 0.35150  0.03980  0.38700  Biso   1.000  H
  H359     1.0000 0.32550  0.05480  0.35950  Biso   1.000  H
  H360     1.0000 0.30740  0.02970  0.40370  Biso   1.000  H
  C377     1.0000 0.30000  0.00500  0.74400  Biso   1.000  C
  H361     1.0000 0.28870  0.02210  0.74780  Biso   1.000  H
  H362     1.0000 0.31970  0.00650  0.76020  Biso   1.000  H
  H363     1.0000 0.27210  0.97430  0.75410  Biso   1.000  H
  C378     1.0000 0.50000  0.20000  0.74000  Biso   1.000  C
  H364     1.0000 0.47530  0.19940  0.74500  Biso   1.000  H
  H365     1.0000 0.52070  0.21030  0.75760  Biso   1.000  H
  H366     1.0000 0.48650  0.16390  0.74840  Biso   1.000  H
  C379     1.0000 0.39000  0.20800  0.43000  Biso   1.000  C
  H367     1.0000 0.36540  0.21000  0.42520  Biso   1.000  H
  H368     1.0000 0.40860  0.22040  0.40520  Biso   1.000  H
  H369     1.0000 0.40310  0.22100  0.45700  Biso   1.000  H
  C380     1.0000 0.26600  0.91500  0.60200  Biso   1.000  C
  H370     1.0000 0.24950  0.91720  0.57810  Biso   1.000  H
  H371     1.0000 0.24740  0.89360  0.62230  Biso   1.000  H
  H372     1.0000 0.28540  0.90820  0.58990  Biso   1.000  H
  C381     1.0000 0.13800  0.97800  0.81100  Biso   1.000  C
  H373     1.0000 0.14070  0.95440  0.83090  Biso   1.000  H
  H374     1.0000 0.13130  0.99110  0.82740  Biso   1.000  H
  H375     1.0000 0.16360  0.98940  0.79500  Biso   1.000  H
  C382     1.0000 0.55000  0.16000  0.70100  Biso   1.000  C
  H376     1.0000 0.54690  0.16370  0.73170  Biso   1.000  H
  H377     1.0000 0.57900  0.17220  0.69350  Biso   1.000  H
  H378     1.0000 0.53600  0.13080  0.69380  Biso   1.000  H
  C383     1.0000 0.28200  0.09800  0.42800  Biso   1.000  C
  H379     1.0000 0.27890  0.11400  0.40400  Biso   1.000  H
  H380     1.0000 0.27070  0.10250  0.45460  Biso   1.000  H
  H381     1.0000 0.26620  0.06900  0.41990  Biso   1.000  H
  C384     1.0000 0.34100  0.95600  0.71100  Biso   1.000  C
  H382     1.0000 0.31970  0.92900  0.71970  Biso   1.000  H
  H383     1.0000 0.35150  0.97370  0.73690  Biso   1.000  H
  H384     1.0000 0.36360  0.95450  0.69720  Biso   1.000  H
  Zn31     1.0000 0.77560  0.63410  0.26120  Biso   1.000  Zn
  Zn32     1.0000 0.84300  0.70370  0.19820  Biso   1.000  Zn
  Zn33     1.0000 0.37770  0.65840  0.28020  Biso   1.000  Zn
  O97      1.0000 0.74000  0.64600  0.22500  Biso   1.000  O
  O98      1.0000 0.63200  0.76100  0.82300  Biso   1.000  O
  O99      1.0000 0.40900  0.65800  0.22800  Biso   1.000  O
  O100     1.0000 0.78800  0.69300  0.17900  Biso   1.000  O
  C385     1.0000 0.71900  0.67800  0.17100  Biso   1.000  C
  C386     1.0000 0.67600  0.65100  0.17800  Biso   1.000  C
  C387     1.0000 0.64770  0.65800  0.15500  Biso   1.000  C
  H385     1.0000 0.61930  0.64020  0.16010  Biso   1.000  H
  C388     1.0000 0.66100  0.69100  0.12600  Biso   1.000  C
  C389     1.0000 0.70400  0.71700  0.11900  Biso   1.000  C
  H386     1.0000 0.71270  0.73900  0.09850  Biso   1.000  H
  C390     1.0000 0.73240  0.71000  0.14100  Biso   1.000  C
  C391     1.0000 0.41800  0.67400  0.18800  Biso   1.000  C
  O101     1.0000 0.68300  0.82500  0.85100  Biso   1.000  O
  C392     1.0000 0.63100  0.69900  0.10100  Biso   1.000  C
  C393     1.0000 0.59500  0.69200  0.12180  Biso   1.000  C
  H387     1.0000 0.58880  0.68270  0.15090  Biso   1.000  H
  C394     1.0000 0.56700  0.70000  0.09900  Biso   1.000  C
  C395     1.0000 0.57500  0.71500  0.05500  Biso   1.000  C
  H388     1.0000 0.55660  0.71980  0.03950  Biso   1.000  H
  C396     1.0000 0.61200  0.72200  0.03470  Biso   1.000  C
  C397     1.0000 0.64000  0.71400  0.05800  Biso   1.000  C
  H389     1.0000 0.66430  0.71860  0.04420  Biso   1.000  H
  C398     1.0000 0.64100  0.77000  0.90200  Biso   1.000  C
  C399     1.0000 0.60000  0.74100  0.91300  Biso   1.000  C
  C400     1.0000 0.59100  0.72500  0.95600  Biso   1.000  C
  H390     1.0000 0.56330  0.70510  0.96340  Biso   1.000  H
  C401     1.0000 0.62200  0.73800  0.98800  Biso   1.000  C
  C402     1.0000 0.66200  0.76800  0.97700  Biso   1.000  C
  H391     1.0000 0.68330  0.77660  0.99840  Biso   1.000  H
  C403     1.0000 0.67200  0.78300  0.93400  Biso   1.000  C
  C404     1.0000 0.77800  0.55700  0.25000  Biso   1.000  C
  C405     1.0000 0.75200  0.67300  0.19700  Biso   1.000  C
  C406     1.0000 0.65100  0.78800  0.85500  Biso   1.000  C
  C407     1.0000 0.52900  0.69400  0.12200  Biso   1.000  C
  C408     1.0000 0.50700  0.66000  0.15000  Biso   1.000  C
  H392     1.0000 0.51690  0.64160  0.15580  Biso   1.000  H
  C409     1.0000 0.47100  0.65300  0.17100  Biso   1.000  C
  C410     1.0000 0.45600  0.68100  0.16300  Biso   1.000  C
  C411     1.0000 0.47800  0.71400  0.13400  Biso   1.000  C
  C412     1.0000 0.51400  0.72100  0.11400  Biso   1.000  C
  H393     1.0000 0.52850  0.74340  0.09490  Biso   1.000  H
  O102     1.0000 0.38500  0.67300  0.16900  Biso   1.000  O
  C413     1.0000 0.88700  0.77300  0.25000  Biso   1.000  C
  C414     1.0000 0.47100  0.75300  0.11700  Biso   1.000  C
  H394     1.0000 0.45210  0.74400  0.09240  Biso   1.000  H
  H395     1.0000 0.45890  0.76110  0.14120  Biso   1.000  H
  H396     1.0000 0.49700  0.77630  0.10880  Biso   1.000  H
  O103     1.0000 0.87200  0.76100  0.21200  Biso   1.000  O
  O104     1.0000 0.75800  0.57500  0.25000  Biso   1.000  O
  C415     1.0000 0.89700  0.84500  0.22400  Biso   1.000  C
  C416     1.0000 0.69600  0.44500  0.27100  Biso   1.000  C
  H397     1.0000 0.67050  0.43110  0.28590  Biso   1.000  H
  C417     1.0000 0.91900  0.88900  0.22400  Biso   1.000  C
  H398     1.0000 0.90950  0.90360  0.20760  Biso   1.000  H
  C418     1.0000 0.85900  0.83000  0.19300  Biso   1.000  C
  H399     1.0000 0.85370  0.85110  0.18710  Biso   1.000  H
  H400     1.0000 0.86500  0.81940  0.16590  Biso   1.000  H
  H401     1.0000 0.83570  0.80650  0.20760  Biso   1.000  H
  C419     1.0000 0.71700  0.48800  0.27100  Biso   1.000  C
  C420     1.0000 0.69200  0.50000  0.29700  Biso   1.000  C
  H402     1.0000 0.69120  0.52460  0.28130  Biso   1.000  H
  H403     1.0000 0.66370  0.47950  0.30020  Biso   1.000  H
  H404     1.0000 0.70370  0.51170  0.32590  Biso   1.000  H
  C421     1.0000 0.77500  0.74200  0.12500  Biso   1.000  C
  H405     1.0000 0.77780  0.73620  0.09440  Biso   1.000  H
  H406     1.0000 0.77810  0.76940  0.12680  Biso   1.000  H
  H407     1.0000 0.79580  0.74100  0.14260  Biso   1.000  H
  C422     1.0000 0.56200  0.72400  0.88300  Biso   1.000  C
  H408     1.0000 0.55510  0.69640  0.87270  Biso   1.000  H
  H409     1.0000 0.53920  0.72220  0.89900  Biso   1.000  H
  H410     1.0000 0.56830  0.74180  0.85760  Biso   1.000  H
  Zn34     1.0000 0.81190  0.69880  0.27750  Biso   1.000  Zn
  Zn35     1.0000 0.79290  0.62870  0.20560  Biso   1.000  Zn
  O105     1.0000 0.63500  0.81200  0.84900  Biso   1.000  O
  O106     1.0000 0.76900  0.69500  0.23500  Biso   1.000  O
  O107     1.0000 0.67800  0.79000  0.83800  Biso   1.000  O
  O108     1.0000 0.75200  0.64200  0.18700  Biso   1.000  O
  C423     1.0000 0.71200  0.66800  0.12600  Biso   1.000  C
  C424     1.0000 0.61400  0.76900  0.97500  Biso   1.000  C
  H411     1.0000 0.60210  0.77960  0.99460  Biso   1.000  H
  C425     1.0000 0.68300  0.67500  0.10300  Biso   1.000  C
  H412     1.0000 0.67880  0.66930  0.07280  Biso   1.000  H
  C426     1.0000 0.63900  0.72300  0.95800  Biso   1.000  C
  H413     1.0000 0.64470  0.70240  0.96720  Biso   1.000  H
  C427     1.0000 0.64800  0.73800  0.91500  Biso   1.000  C
  C428     1.0000 0.69800  0.69400  0.19500  Biso   1.000  C
  C429     1.0000 0.62300  0.78500  0.93200  Biso   1.000  C
  C430     1.0000 0.66900  0.70100  0.17100  Biso   1.000  C
  H414     1.0000 0.65460  0.71250  0.18530  Biso   1.000  H
  C431     1.0000 0.49500  0.68500  0.09900  Biso   1.000  C
  H415     1.0000 0.49370  0.68090  0.06860  Biso   1.000  H
  C432     1.0000 0.49100  0.68900  0.18700  Biso   1.000  C
  C433     1.0000 0.52400  0.69700  0.16600  Biso   1.000  C
  H416     1.0000 0.54770  0.70470  0.18400  Biso   1.000  H
  C434     1.0000 0.46400  0.68300  0.12000  Biso   1.000  C
  O109     1.0000 0.39400  0.63800  0.19400  Biso   1.000  O
  O110     1.0000 0.42200  0.71200  0.19100  Biso   1.000  O
  O111     1.0000 0.84400  0.75000  0.27500  Biso   1.000  O
  O112     1.0000 0.76400  0.57000  0.22300  Biso   1.000  O
  C435     1.0000 0.71700  0.48900  0.22900  Biso   1.000  C
  C436     1.0000 0.69800  0.50400  0.19500  Biso   1.000  C
  H417     1.0000 0.71820  0.52180  0.17370  Biso   1.000  H
  H418     1.0000 0.67550  0.48060  0.17960  Biso   1.000  H
  H419     1.0000 0.68640  0.51930  0.20970  Biso   1.000  H
  C437     1.0000 0.92000  0.88900  0.27700  Biso   1.000  C
  H420     1.0000 0.91030  0.90320  0.29420  Biso   1.000  H
  C438     1.0000 0.69600  0.44500  0.22900  Biso   1.000  C
  H421     1.0000 0.67070  0.43010  0.21330  Biso   1.000  H
  C439     1.0000 0.89800  0.84500  0.27700  Biso   1.000  C
  C440     1.0000 0.66800  0.72000  0.89000  Biso   1.000  C
  H422     1.0000 0.64850  0.68830  0.88700  Biso   1.000  H
  H423     1.0000 0.67450  0.72930  0.85950  Biso   1.000  H
  H424     1.0000 0.69260  0.72230  0.90370  Biso   1.000  H
  C441     1.0000 0.70000  0.70500  0.24400  Biso   1.000  C
  H425     1.0000 0.71130  0.73340  0.24780  Biso   1.000  H
  H426     1.0000 0.68030  0.68680  0.26020  Biso   1.000  H
  H427     1.0000 0.72790  0.70220  0.25410  Biso   1.000  H
  C442     1.0000 0.50000  0.70000  0.24000  Biso   1.000  C
  H428     1.0000 0.52470  0.72410  0.24500  Biso   1.000  H
  H429     1.0000 0.47930  0.68960  0.25760  Biso   1.000  H
  H430     1.0000 0.51350  0.67740  0.24840  Biso   1.000  H
  C443     1.0000 0.61000  0.81800  0.93000  Biso   1.000  C
  H431     1.0000 0.63460  0.84460  0.92520  Biso   1.000  H
  H432     1.0000 0.59140  0.81180  0.90520  Biso   1.000  H
  H433     1.0000 0.59690  0.81790  0.95700  Biso   1.000  H
  C444     1.0000 0.73400  0.64900  0.10200  Biso   1.000  C
  H434     1.0000 0.75050  0.66770  0.07810  Biso   1.000  H
  H435     1.0000 0.75260  0.64620  0.12230  Biso   1.000  H
  H436     1.0000 0.71460  0.62280  0.08990  Biso   1.000  H
  C445     1.0000 0.86200  0.84000  0.31100  Biso   1.000  C
  H437     1.0000 0.85930  0.81370  0.33090  Biso   1.000  H
  H438     1.0000 0.86870  0.85980  0.32740  Biso   1.000  H
  H439     1.0000 0.83640  0.82580  0.29500  Biso   1.000  H
  C446     1.0000 0.45000  0.61000  0.20100  Biso   1.000  C
  H440     1.0000 0.45310  0.61680  0.23170  Biso   1.000  H
  H441     1.0000 0.42100  0.59320  0.19350  Biso   1.000  H
  H442     1.0000 0.46400  0.59480  0.19380  Biso   1.000  H
  C447     1.0000 0.71800  0.81600  0.92800  Biso   1.000  C
  H443     1.0000 0.72110  0.83510  0.90400  Biso   1.000  H
  H444     1.0000 0.72930  0.83180  0.95460  Biso   1.000  H
  H445     1.0000 0.73380  0.80280  0.91990  Biso   1.000  H
  C448     1.0000 0.65900  0.61500  0.21100  Biso   1.000  C
  H446     1.0000 0.68030  0.60930  0.21970  Biso   1.000  H
  H447     1.0000 0.64850  0.62220  0.23690  Biso   1.000  H
  H448     1.0000 0.63640  0.59090  0.19720  Biso   1.000  H
  Zn36     1.0000 0.36590  0.14150  0.26120  Biso   1.000  Zn
  Zn37     1.0000 0.29630  0.13930  0.19820  Biso   1.000  Zn
  Zn38     1.0000 0.34160  0.71930  0.28020  Biso   1.000  Zn
  O113     1.0000 0.35400  0.09400  0.22500  Biso   1.000  O
  O114     1.0000 0.23900  0.87100  0.82300  Biso   1.000  O
  O115     1.0000 0.34200  0.75100  0.22800  Biso   1.000  O
  O116     1.0000 0.30700  0.09500  0.17900  Biso   1.000  O
  C449     1.0000 0.32200  0.04100  0.17100  Biso   1.000  C
  C450     1.0000 0.34900  0.02500  0.17800  Biso   1.000  C
  C451     1.0000 0.34200  0.98970  0.15500  Biso   1.000  C
  H449     1.0000 0.35980  0.97910  0.16010  Biso   1.000  H
  C452     1.0000 0.30900  0.97000  0.12600  Biso   1.000  C
  C453     1.0000 0.28300  0.98700  0.11900  Biso   1.000  C
  H450     1.0000 0.26100  0.97370  0.09850  Biso   1.000  H
  C454     1.0000 0.29000  0.02240  0.14100  Biso   1.000  C
  C455     1.0000 0.32600  0.74400  0.18800  Biso   1.000  C
  O117     1.0000 0.17500  0.85800  0.85100  Biso   1.000  O
  C456     1.0000 0.30100  0.93200  0.10100  Biso   1.000  C
  C457     1.0000 0.30800  0.90300  0.12180  Biso   1.000  C
  H451     1.0000 0.31730  0.90610  0.15090  Biso   1.000  H
  C458     1.0000 0.30000  0.86700  0.09900  Biso   1.000  C
  C459     1.0000 0.28500  0.86000  0.05500  Biso   1.000  C
  H452     1.0000 0.28020  0.83680  0.03950  Biso   1.000  H
  C460     1.0000 0.27800  0.89000  0.03470  Biso   1.000  C
  C461     1.0000 0.28600  0.92600  0.05800  Biso   1.000  C
  H453     1.0000 0.28140  0.94570  0.04420  Biso   1.000  H
  C462     1.0000 0.23000  0.87100  0.90200  Biso   1.000  C
  C463     1.0000 0.25900  0.85900  0.91300  Biso   1.000  C
  C464     1.0000 0.27500  0.86600  0.95600  Biso   1.000  C
  H454     1.0000 0.29490  0.85820  0.96340  Biso   1.000  H
  C465     1.0000 0.26200  0.88400  0.98800  Biso   1.000  C
  C466     1.0000 0.23200  0.89400  0.97700  Biso   1.000  C
  H455     1.0000 0.22340  0.90670  0.99840  Biso   1.000  H
  C467     1.0000 0.21700  0.88900  0.93400  Biso   1.000  C
  C468     1.0000 0.44300  0.22100  0.25000  Biso   1.000  C
  C469     1.0000 0.32700  0.07900  0.19700  Biso   1.000  C
  C470     1.0000 0.21200  0.86300  0.85500  Biso   1.000  C
  C471     1.0000 0.30600  0.83500  0.12200  Biso   1.000  C
  C472     1.0000 0.34000  0.84700  0.15000  Biso   1.000  C
  H456     1.0000 0.35840  0.87530  0.15580  Biso   1.000  H
  C473     1.0000 0.34700  0.81800  0.17100  Biso   1.000  C
  C474     1.0000 0.31900  0.77500  0.16300  Biso   1.000  C
  C475     1.0000 0.28600  0.76400  0.13400  Biso   1.000  C
  C476     1.0000 0.27900  0.79300  0.11400  Biso   1.000  C
  H457     1.0000 0.25660  0.78510  0.09490  Biso   1.000  H
  O118     1.0000 0.32700  0.71200  0.16900  Biso   1.000  O
  C477     1.0000 0.22700  0.11400  0.25000  Biso   1.000  C
  C478     1.0000 0.24700  0.71800  0.11700  Biso   1.000  C
  H458     1.0000 0.25600  0.70810  0.09240  Biso   1.000  H
  H459     1.0000 0.23890  0.69780  0.14120  Biso   1.000  H
  H460     1.0000 0.22370  0.72070  0.10880  Biso   1.000  H
  O119     1.0000 0.23900  0.11100  0.21200  Biso   1.000  O
  O120     1.0000 0.42500  0.18300  0.25000  Biso   1.000  O
  C479     1.0000 0.15500  0.05200  0.22400  Biso   1.000  C
  C480     1.0000 0.55500  0.25100  0.27100  Biso   1.000  C
  H461     1.0000 0.56890  0.23940  0.28590  Biso   1.000  H
  C481     1.0000 0.11100  0.03000  0.22400  Biso   1.000  C
  H462     1.0000 0.09640  0.00590  0.20760  Biso   1.000  H
  C482     1.0000 0.17000  0.02900  0.19300  Biso   1.000  C
  H463     1.0000 0.14890  0.00260  0.18710  Biso   1.000  H
  H464     1.0000 0.18060  0.04560  0.16590  Biso   1.000  H
  H465     1.0000 0.19350  0.02920  0.20760  Biso   1.000  H
  C483     1.0000 0.51200  0.22900  0.27100  Biso   1.000  C
  C484     1.0000 0.50000  0.19200  0.29700  Biso   1.000  C
  H466     1.0000 0.47540  0.16660  0.28130  Biso   1.000  H
  H467     1.0000 0.52050  0.18420  0.30020  Biso   1.000  H
  H468     1.0000 0.48830  0.19200  0.32590  Biso   1.000  H
  C485     1.0000 0.25800  0.03300  0.12500  Biso   1.000  C
  H469     1.0000 0.26380  0.04160  0.09440  Biso   1.000  H
  H470     1.0000 0.23060  0.00870  0.12680  Biso   1.000  H
  H471     1.0000 0.25900  0.05480  0.14260  Biso   1.000  H
  C486     1.0000 0.27600  0.83800  0.88300  Biso   1.000  C
  H472     1.0000 0.30360  0.85870  0.87270  Biso   1.000  H
  H473     1.0000 0.27780  0.81700  0.89900  Biso   1.000  H
  H474     1.0000 0.25820  0.82650  0.85760  Biso   1.000  H
  Zn39     1.0000 0.30120  0.11310  0.27750  Biso   1.000  Zn
  Zn40     1.0000 0.37130  0.16420  0.20560  Biso   1.000  Zn
  O121     1.0000 0.18800  0.82300  0.84900  Biso   1.000  O
  O122     1.0000 0.30500  0.07400  0.23500  Biso   1.000  O
  O123     1.0000 0.21000  0.88800  0.83800  Biso   1.000  O
  O124     1.0000 0.35800  0.11000  0.18700  Biso   1.000  O
  C487     1.0000 0.33200  0.04400  0.12600  Biso   1.000  C
  C488     1.0000 0.23100  0.84500  0.97500  Biso   1.000  C
  H475     1.0000 0.22040  0.82250  0.99460  Biso   1.000  H
  C489     1.0000 0.32500  0.00800  0.10300  Biso   1.000  C
  H476     1.0000 0.33070  0.00950  0.07280  Biso   1.000  H
  C490     1.0000 0.27700  0.91600  0.95800  Biso   1.000  C
  H477     1.0000 0.29760  0.94230  0.96720  Biso   1.000  H
  C491     1.0000 0.26200  0.91000  0.91500  Biso   1.000  C
  C492     1.0000 0.30600  0.00400  0.19500  Biso   1.000  C
  C493     1.0000 0.21500  0.83800  0.93200  Biso   1.000  C
  C494     1.0000 0.29900  0.96800  0.17100  Biso   1.000  C
  H478     1.0000 0.28750  0.94210  0.18530  Biso   1.000  H
  C495     1.0000 0.31500  0.81000  0.09900  Biso   1.000  C
  H479     1.0000 0.31910  0.81280  0.06860  Biso   1.000  H
  C496     1.0000 0.31100  0.80200  0.18700  Biso   1.000  C
  C497     1.0000 0.30300  0.82700  0.16600  Biso   1.000  C
  H480     1.0000 0.29530  0.84300  0.18400  Biso   1.000  H
  C498     1.0000 0.31700  0.78100  0.12000  Biso   1.000  C
  O125     1.0000 0.36200  0.75600  0.19400  Biso   1.000  O
  O126     1.0000 0.28800  0.71000  0.19100  Biso   1.000  O
  O127     1.0000 0.25000  0.09400  0.27500  Biso   1.000  O
  O128     1.0000 0.43000  0.19400  0.22300  Biso   1.000  O
  C499     1.0000 0.51100  0.22800  0.22900  Biso   1.000  C
  C500     1.0000 0.49600  0.19400  0.19500  Biso   1.000  C
  H481     1.0000 0.47820  0.19640  0.17370  Biso   1.000  H
  H482     1.0000 0.51940  0.19490  0.17960  Biso   1.000  H
  H483     1.0000 0.48070  0.16710  0.20970  Biso   1.000  H
  C501     1.0000 0.11100  0.03100  0.27700  Biso   1.000  C
  H484     1.0000 0.09680  0.00710  0.29420  Biso   1.000  H
  C502     1.0000 0.55500  0.25100  0.22900  Biso   1.000  C
  H485     1.0000 0.56990  0.24060  0.21330  Biso   1.000  H
  C503     1.0000 0.15500  0.05300  0.27700  Biso   1.000  C
  C504     1.0000 0.28000  0.94800  0.89000  Biso   1.000  C
  H486     1.0000 0.31170  0.96020  0.88700  Biso   1.000  H
  H487     1.0000 0.27070  0.94520  0.85950  Biso   1.000  H
  H488     1.0000 0.27770  0.97030  0.90370  Biso   1.000  H
  C505     1.0000 0.29500  0.99500  0.24400  Biso   1.000  C
  H489     1.0000 0.26660  0.97790  0.24780  Biso   1.000  H
  H490     1.0000 0.31320  0.99350  0.26020  Biso   1.000  H
  H491     1.0000 0.29780  0.02570  0.25410  Biso   1.000  H
  C506     1.0000 0.30000  0.80000  0.24000  Biso   1.000  C
  H492     1.0000 0.27590  0.80060  0.24500  Biso   1.000  H
  H493     1.0000 0.31040  0.78970  0.25760  Biso   1.000  H
  H494     1.0000 0.32260  0.83610  0.24840  Biso   1.000  H
  C507     1.0000 0.18200  0.79200  0.93000  Biso   1.000  C
  H495     1.0000 0.15540  0.79000  0.92520  Biso   1.000  H
  H496     1.0000 0.18820  0.77960  0.90520  Biso   1.000  H
  H497     1.0000 0.18210  0.77900  0.95700  Biso   1.000  H
  C508     1.0000 0.35100  0.08500  0.10200  Biso   1.000  C
  H498     1.0000 0.33230  0.08280  0.07810  Biso   1.000  H
  H499     1.0000 0.35380  0.10640  0.12230  Biso   1.000  H
  H500     1.0000 0.37720  0.09180  0.08990  Biso   1.000  H
  C509     1.0000 0.16000  0.02200  0.31100  Biso   1.000  C
  H501     1.0000 0.18630  0.04560  0.33090  Biso   1.000  H
  H502     1.0000 0.14020  0.00890  0.32740  Biso   1.000  H
  H503     1.0000 0.17420  0.01060  0.29500  Biso   1.000  H
  C510     1.0000 0.39000  0.84000  0.20100  Biso   1.000  C
  H504     1.0000 0.38320  0.83630  0.23170  Biso   1.000  H
  H505     1.0000 0.40680  0.82780  0.19350  Biso   1.000  H
  H506     1.0000 0.40520  0.86920  0.19380  Biso   1.000  H
  C511     1.0000 0.18400  0.90200  0.92800  Biso   1.000  C
  H507     1.0000 0.16490  0.88600  0.90400  Biso   1.000  H
  H508     1.0000 0.16820  0.89750  0.95460  Biso   1.000  H
  H509     1.0000 0.19720  0.93100  0.91990  Biso   1.000  H
  C512     1.0000 0.38500  0.04400  0.21100  Biso   1.000  C
  H510     1.0000 0.39070  0.07100  0.21970  Biso   1.000  H
  H511     1.0000 0.37780  0.02630  0.23690  Biso   1.000  H
  H512     1.0000 0.40910  0.04550  0.19720  Biso   1.000  H
  Zn41     1.0000 0.85850  0.22440  0.26120  Biso   1.000  Zn
  Zn42     1.0000 0.86070  0.15700  0.19820  Biso   1.000  Zn
  Zn43     1.0000 0.28070  0.62230  0.28020  Biso   1.000  Zn
  O129     1.0000 0.90600  0.26000  0.22500  Biso   1.000  O
  O130     1.0000 0.12900  0.36800  0.82300  Biso   1.000  O
  O131     1.0000 0.24900  0.59100  0.22800  Biso   1.000  O
  O132     1.0000 0.90500  0.21200  0.17900  Biso   1.000  O
  C513     1.0000 0.95900  0.28100  0.17100  Biso   1.000  C
  C514     1.0000 0.97500  0.32400  0.17800  Biso   1.000  C
  C515     1.0000 0.01030  0.35230  0.15500  Biso   1.000  C
  H513     1.0000 0.02090  0.38070  0.16010  Biso   1.000  H
  C516     1.0000 0.03000  0.33900  0.12600  Biso   1.000  C
  C517     1.0000 0.01300  0.29600  0.11900  Biso   1.000  C
  H514     1.0000 0.02630  0.28730  0.09850  Biso   1.000  H
  C518     1.0000 0.97760  0.26760  0.14100  Biso   1.000  C
  C519     1.0000 0.25600  0.58200  0.18800  Biso   1.000  C
  O133     1.0000 0.14200  0.31700  0.85100  Biso   1.000  O
  C520     1.0000 0.06800  0.36900  0.10100  Biso   1.000  C
  C521     1.0000 0.09700  0.40500  0.12180  Biso   1.000  C
  H515     1.0000 0.09390  0.41120  0.15090  Biso   1.000  H
  C522     1.0000 0.13300  0.43300  0.09900  Biso   1.000  C
  C523     1.0000 0.14000  0.42500  0.05500  Biso   1.000  C
  H516     1.0000 0.16320  0.44340  0.03950  Biso   1.000  H
  C524     1.0000 0.11000  0.38800  0.03470  Biso   1.000  C
  C525     1.0000 0.07400  0.36000  0.05800  Biso   1.000  C
  H517     1.0000 0.05430  0.33570  0.04420  Biso   1.000  H
  C526     1.0000 0.12900  0.35900  0.90200  Biso   1.000  C
  C527     1.0000 0.14100  0.40000  0.91300  Biso   1.000  C
  C528     1.0000 0.13400  0.40900  0.95600  Biso   1.000  C
  H518     1.0000 0.14180  0.43670  0.96340  Biso   1.000  H
  C529     1.0000 0.11600  0.37800  0.98800  Biso   1.000  C
  C530     1.0000 0.10600  0.33800  0.97700  Biso   1.000  C
  H519     1.0000 0.09330  0.31670  0.99840  Biso   1.000  H
  C531     1.0000 0.11100  0.32800  0.93400  Biso   1.000  C
  C532     1.0000 0.77900  0.22200  0.25000  Biso   1.000  C
  C533     1.0000 0.92100  0.24800  0.19700  Biso   1.000  C
  C534     1.0000 0.13700  0.34900  0.85500  Biso   1.000  C
  C535     1.0000 0.16500  0.47100  0.12200  Biso   1.000  C
  C536     1.0000 0.15300  0.49300  0.15000  Biso   1.000  C
  H520     1.0000 0.12470  0.48310  0.15580  Biso   1.000  H
  C537     1.0000 0.18200  0.52900  0.17100  Biso   1.000  C
  C538     1.0000 0.22500  0.54400  0.16300  Biso   1.000  C
  C539     1.0000 0.23600  0.52200  0.13400  Biso   1.000  C
  C540     1.0000 0.20700  0.48600  0.11400  Biso   1.000  C
  H521     1.0000 0.21490  0.47150  0.09490  Biso   1.000  H
  O134     1.0000 0.28800  0.61500  0.16900  Biso   1.000  O
  C541     1.0000 0.88600  0.11300  0.25000  Biso   1.000  C
  C542     1.0000 0.28200  0.52900  0.11700  Biso   1.000  C
  H522     1.0000 0.29190  0.54790  0.09240  Biso   1.000  H
  H523     1.0000 0.30220  0.54110  0.14120  Biso   1.000  H
  H524     1.0000 0.27930  0.50300  0.10880  Biso   1.000  H
  O135     1.0000 0.88900  0.12800  0.21200  Biso   1.000  O
  O136     1.0000 0.81700  0.24200  0.25000  Biso   1.000  O
  C543     1.0000 0.94800  0.10300  0.22400  Biso   1.000  C
  C544     1.0000 0.74900  0.30400  0.27100  Biso   1.000  C
  H525     1.0000 0.76060  0.32950  0.28590  Biso   1.000  H
  C545     1.0000 0.97000  0.08100  0.22400  Biso   1.000  C
  H526     1.0000 0.99410  0.09050  0.20760  Biso   1.000  H
  C546     1.0000 0.97100  0.14100  0.19300  Biso   1.000  C
  H527     1.0000 0.99740  0.14630  0.18710  Biso   1.000  H
  H528     1.0000 0.95440  0.13500  0.16590  Biso   1.000  H
  H529     1.0000 0.97080  0.16430  0.20760  Biso   1.000  H
  C547     1.0000 0.77100  0.28300  0.27100  Biso   1.000  C
  C548     1.0000 0.80800  0.30800  0.29700  Biso   1.000  C
  H530     1.0000 0.83340  0.30880  0.28130  Biso   1.000  H
  H531     1.0000 0.81580  0.33630  0.30020  Biso   1.000  H
  H532     1.0000 0.80800  0.29630  0.32590  Biso   1.000  H
  C549     1.0000 0.96700  0.22500  0.12500  Biso   1.000  C
  H533     1.0000 0.95840  0.22220  0.09440  Biso   1.000  H
  H534     1.0000 0.99130  0.22190  0.12680  Biso   1.000  H
  H535     1.0000 0.94520  0.20420  0.14260  Biso   1.000  H
  C550     1.0000 0.16200  0.43800  0.88300  Biso   1.000  C
  H536     1.0000 0.14130  0.44490  0.87270  Biso   1.000  H
  H537     1.0000 0.18300  0.46080  0.89900  Biso   1.000  H
  H538     1.0000 0.17350  0.43170  0.85760  Biso   1.000  H
  Zn44     1.0000 0.88690  0.18810  0.27750  Biso   1.000  Zn
  Zn45     1.0000 0.83580  0.20710  0.20560  Biso   1.000  Zn
  O137     1.0000 0.17700  0.36500  0.84900  Biso   1.000  O
  O138     1.0000 0.92600  0.23100  0.23500  Biso   1.000  O
  O139     1.0000 0.11200  0.32200  0.83800  Biso   1.000  O
  O140     1.0000 0.89000  0.24800  0.18700  Biso   1.000  O
  C551     1.0000 0.95600  0.28800  0.12600  Biso   1.000  C
  C552     1.0000 0.15500  0.38600  0.97500  Biso   1.000  C
  H539     1.0000 0.17750  0.39790  0.99460  Biso   1.000  H
  C553     1.0000 0.99200  0.31700  0.10300  Biso   1.000  C
  H540     1.0000 0.99050  0.32120  0.07280  Biso   1.000  H
  C554     1.0000 0.08400  0.36100  0.95800  Biso   1.000  C
  H541     1.0000 0.05770  0.35530  0.96720  Biso   1.000  H
  C555     1.0000 0.09000  0.35200  0.91500  Biso   1.000  C
  C556     1.0000 0.99600  0.30200  0.19500  Biso   1.000  C
  C557     1.0000 0.16200  0.37700  0.93200  Biso   1.000  C
  C558     1.0000 0.03200  0.33100  0.17100  Biso   1.000  C
  H542     1.0000 0.05790  0.34540  0.18530  Biso   1.000  H
  C559     1.0000 0.19000  0.50500  0.09900  Biso   1.000  C
  H543     1.0000 0.18720  0.50630  0.06860  Biso   1.000  H
  C560     1.0000 0.19800  0.50900  0.18700  Biso   1.000  C
  C561     1.0000 0.17300  0.47600  0.16600  Biso   1.000  C
  H544     1.0000 0.15700  0.45230  0.18400  Biso   1.000  H
  C562     1.0000 0.21900  0.53600  0.12000  Biso   1.000  C
  O141     1.0000 0.24400  0.60600  0.19400  Biso   1.000  O
  O142     1.0000 0.29000  0.57800  0.19100  Biso   1.000  O
  O143     1.0000 0.90600  0.15600  0.27500  Biso   1.000  O
  O144     1.0000 0.80600  0.23600  0.22300  Biso   1.000  O
  C563     1.0000 0.77200  0.28300  0.22900  Biso   1.000  C
  C564     1.0000 0.80600  0.30200  0.19500  Biso   1.000  C
  H545     1.0000 0.80360  0.28180  0.17370  Biso   1.000  H
  H546     1.0000 0.80510  0.32450  0.17960  Biso   1.000  H
  H547     1.0000 0.83290  0.31360  0.20970  Biso   1.000  H
  C565     1.0000 0.96900  0.08000  0.27700  Biso   1.000  C
  H548     1.0000 0.99290  0.08970  0.29420  Biso   1.000  H
  C566     1.0000 0.74900  0.30400  0.22900  Biso   1.000  C
  H549     1.0000 0.75940  0.32930  0.21330  Biso   1.000  H
  C567     1.0000 0.94700  0.10200  0.27700  Biso   1.000  C
  C568     1.0000 0.05200  0.33200  0.89000  Biso   1.000  C
  H550     1.0000 0.03980  0.35150  0.88700  Biso   1.000  H
  H551     1.0000 0.05480  0.32550  0.85950  Biso   1.000  H
  H552     1.0000 0.02970  0.30740  0.90370  Biso   1.000  H
  C569     1.0000 0.00500  0.30000  0.24400  Biso   1.000  C
  H553     1.0000 0.02210  0.28870  0.24780  Biso   1.000  H
  H554     1.0000 0.00650  0.31970  0.26020  Biso   1.000  H
  H555     1.0000 0.97430  0.27210  0.25410  Biso   1.000  H
  C570     1.0000 0.20000  0.50000  0.24000  Biso   1.000  C
  H556     1.0000 0.19940  0.47530  0.24500  Biso   1.000  H
  H557     1.0000 0.21030  0.52070  0.25760  Biso   1.000  H
  H558     1.0000 0.16390  0.48650  0.24840  Biso   1.000  H
  C571     1.0000 0.20800  0.39000  0.93000  Biso   1.000  C
  H559     1.0000 0.21000  0.36540  0.92520  Biso   1.000  H
  H560     1.0000 0.22040  0.40860  0.90520  Biso   1.000  H
  H561     1.0000 0.22100  0.40310  0.95700  Biso   1.000  H
  C572     1.0000 0.91500  0.26600  0.10200  Biso   1.000  C
  H562     1.0000 0.91720  0.24950  0.07810  Biso   1.000  H
  H563     1.0000 0.89360  0.24740  0.12230  Biso   1.000  H
  H564     1.0000 0.90820  0.28540  0.08990  Biso   1.000  H
  C573     1.0000 0.97800  0.13800  0.31100  Biso   1.000  C
  H565     1.0000 0.95440  0.14070  0.33090  Biso   1.000  H
  H566     1.0000 0.99110  0.13130  0.32740  Biso   1.000  H
  H567     1.0000 0.98940  0.16360  0.29500  Biso   1.000  H
  C574     1.0000 0.16000  0.55000  0.20100  Biso   1.000  C
  H568     1.0000 0.16370  0.54690  0.23170  Biso   1.000  H
  H569     1.0000 0.17220  0.57900  0.19350  Biso   1.000  H
  H570     1.0000 0.13080  0.53600  0.19380  Biso   1.000  H
  C575     1.0000 0.09800  0.28200  0.92800  Biso   1.000  C
  H571     1.0000 0.11400  0.27890  0.90400  Biso   1.000  H
  H572     1.0000 0.10250  0.27070  0.95460  Biso   1.000  H
  H573     1.0000 0.06900  0.26620  0.91990  Biso   1.000  H
  C576     1.0000 0.95600  0.34100  0.21100  Biso   1.000  C
  H574     1.0000 0.92900  0.31970  0.21970  Biso   1.000  H
  H575     1.0000 0.97370  0.35150  0.23690  Biso   1.000  H
  H576     1.0000 0.95450  0.36360  0.19720  Biso   1.000  H
  Zn46     1.0000 0.36590  0.22440  0.23880  Biso   1.000  Zn
  Zn47     1.0000 0.29630  0.15700  0.30180  Biso   1.000  Zn
  Zn48     1.0000 0.34160  0.62230  0.21980  Biso   1.000  Zn
  O145     1.0000 0.35400  0.26000  0.27500  Biso   1.000  O
  O146     1.0000 0.23900  0.36800  0.67700  Biso   1.000  O
  O147     1.0000 0.34200  0.59100  0.27200  Biso   1.000  O
  O148     1.0000 0.30700  0.21200  0.32100  Biso   1.000  O
  C577     1.0000 0.32200  0.28100  0.32900  Biso   1.000  C
  C578     1.0000 0.34900  0.32400  0.32200  Biso   1.000  C
  C579     1.0000 0.34200  0.35230  0.34500  Biso   1.000  C
  H577     1.0000 0.35980  0.38070  0.33990  Biso   1.000  H
  C580     1.0000 0.30900  0.33900  0.37400  Biso   1.000  C
  C581     1.0000 0.28300  0.29600  0.38100  Biso   1.000  C
  H578     1.0000 0.26100  0.28730  0.40150  Biso   1.000  H
  C582     1.0000 0.29000  0.26760  0.35900  Biso   1.000  C
  C583     1.0000 0.32600  0.58200  0.31200  Biso   1.000  C
  O149     1.0000 0.17500  0.31700  0.64900  Biso   1.000  O
  C584     1.0000 0.30100  0.36900  0.39900  Biso   1.000  C
  C585     1.0000 0.30800  0.40500  0.37820  Biso   1.000  C
  H579     1.0000 0.31730  0.41120  0.34910  Biso   1.000  H
  C586     1.0000 0.30000  0.43300  0.40100  Biso   1.000  C
  C587     1.0000 0.28500  0.42500  0.44500  Biso   1.000  C
  H580     1.0000 0.28020  0.44340  0.46050  Biso   1.000  H
  C588     1.0000 0.27800  0.38800  0.46530  Biso   1.000  C
  C589     1.0000 0.28600  0.36000  0.44200  Biso   1.000  C
  H581     1.0000 0.28140  0.33570  0.45580  Biso   1.000  H
  C590     1.0000 0.23000  0.35900  0.59800  Biso   1.000  C
  C591     1.0000 0.25900  0.40000  0.58700  Biso   1.000  C
  C592     1.0000 0.27500  0.40900  0.54400  Biso   1.000  C
  H582     1.0000 0.29490  0.43670  0.53660  Biso   1.000  H
  C593     1.0000 0.26200  0.37800  0.51200  Biso   1.000  C
  C594     1.0000 0.23200  0.33800  0.52300  Biso   1.000  C
  H583     1.0000 0.22340  0.31670  0.50160  Biso   1.000  H
  C595     1.0000 0.21700  0.32800  0.56600  Biso   1.000  C
  C596     1.0000 0.44300  0.22200  0.25000  Biso   1.000  C
  C597     1.0000 0.32700  0.24800  0.30300  Biso   1.000  C
  C598     1.0000 0.21200  0.34900  0.64500  Biso   1.000  C
  C599     1.0000 0.30600  0.47100  0.37800  Biso   1.000  C
  C600     1.0000 0.34000  0.49300  0.35000  Biso   1.000  C
  H584     1.0000 0.35840  0.48310  0.34420  Biso   1.000  H
  C601     1.0000 0.34700  0.52900  0.32900  Biso   1.000  C
  C602     1.0000 0.31900  0.54400  0.33700  Biso   1.000  C
  C603     1.0000 0.28600  0.52200  0.36600  Biso   1.000  C
  C604     1.0000 0.27900  0.48600  0.38600  Biso   1.000  C
  H585     1.0000 0.25660  0.47150  0.40510  Biso   1.000  H
  O150     1.0000 0.32700  0.61500  0.33100  Biso   1.000  O
  C605     1.0000 0.22700  0.11300  0.25000  Biso   1.000  C
  C606     1.0000 0.24700  0.52900  0.38300  Biso   1.000  C
  H586     1.0000 0.25600  0.54790  0.40760  Biso   1.000  H
  H587     1.0000 0.23890  0.54110  0.35880  Biso   1.000  H
  H588     1.0000 0.22370  0.50300  0.39120  Biso   1.000  H
  O151     1.0000 0.23900  0.12800  0.28800  Biso   1.000  O
  O152     1.0000 0.42500  0.24200  0.25000  Biso   1.000  O
  C607     1.0000 0.15500  0.10300  0.27600  Biso   1.000  C
  C608     1.0000 0.55500  0.30400  0.22900  Biso   1.000  C
  H589     1.0000 0.56890  0.32950  0.21410  Biso   1.000  H
  C609     1.0000 0.11100  0.08100  0.27600  Biso   1.000  C
  H590     1.0000 0.09640  0.09050  0.29240  Biso   1.000  H
  C610     1.0000 0.17000  0.14100  0.30700  Biso   1.000  C
  H591     1.0000 0.14890  0.14630  0.31290  Biso   1.000  H
  H592     1.0000 0.18060  0.13500  0.33410  Biso   1.000  H
  H593     1.0000 0.19350  0.16430  0.29240  Biso   1.000  H
  C611     1.0000 0.51200  0.28300  0.22900  Biso   1.000  C
  C612     1.0000 0.50000  0.30800  0.20300  Biso   1.000  C
  H594     1.0000 0.47540  0.30880  0.21870  Biso   1.000  H
  H595     1.0000 0.52050  0.33630  0.19980  Biso   1.000  H
  H596     1.0000 0.48830  0.29630  0.17410  Biso   1.000  H
  C613     1.0000 0.25800  0.22500  0.37500  Biso   1.000  C
  H597     1.0000 0.26380  0.22220  0.40560  Biso   1.000  H
  H598     1.0000 0.23060  0.22190  0.37320  Biso   1.000  H
  H599     1.0000 0.25900  0.20420  0.35740  Biso   1.000  H
  C614     1.0000 0.27600  0.43800  0.61700  Biso   1.000  C
  H600     1.0000 0.30360  0.44490  0.62730  Biso   1.000  H
  H601     1.0000 0.27780  0.46080  0.60100  Biso   1.000  H
  H602     1.0000 0.25820  0.43170  0.64240  Biso   1.000  H
  Zn49     1.0000 0.30120  0.18810  0.22250  Biso   1.000  Zn
  Zn50     1.0000 0.37130  0.20710  0.29440  Biso   1.000  Zn
  O153     1.0000 0.18800  0.36500  0.65100  Biso   1.000  O
  O154     1.0000 0.30500  0.23100  0.26500  Biso   1.000  O
  O155     1.0000 0.21000  0.32200  0.66200  Biso   1.000  O
  O156     1.0000 0.35800  0.24800  0.31300  Biso   1.000  O
  C615     1.0000 0.33200  0.28800  0.37400  Biso   1.000  C
  C616     1.0000 0.23100  0.38600  0.52500  Biso   1.000  C
  H603     1.0000 0.22040  0.39790  0.50540  Biso   1.000  H
  C617     1.0000 0.32500  0.31700  0.39700  Biso   1.000  C
  H604     1.0000 0.33070  0.32120  0.42720  Biso   1.000  H
  C618     1.0000 0.27700  0.36100  0.54200  Biso   1.000  C
  H605     1.0000 0.29760  0.35530  0.53280  Biso   1.000  H
  C619     1.0000 0.26200  0.35200  0.58500  Biso   1.000  C
  C620     1.0000 0.30600  0.30200  0.30500  Biso   1.000  C
  C621     1.0000 0.21500  0.37700  0.56800  Biso   1.000  C
  C622     1.0000 0.29900  0.33100  0.32900  Biso   1.000  C
  H606     1.0000 0.28750  0.34540  0.31470  Biso   1.000  H
  C623     1.0000 0.31500  0.50500  0.40100  Biso   1.000  C
  H607     1.0000 0.31910  0.50630  0.43140  Biso   1.000  H
  C624     1.0000 0.31100  0.50900  0.31300  Biso   1.000  C
  C625     1.0000 0.30300  0.47600  0.33400  Biso   1.000  C
  H608     1.0000 0.29530  0.45230  0.31600  Biso   1.000  H
  C626     1.0000 0.31700  0.53600  0.38000  Biso   1.000  C
  O157     1.0000 0.36200  0.60600  0.30600  Biso   1.000  O
  O158     1.0000 0.28800  0.57800  0.30900  Biso   1.000  O
  O159     1.0000 0.25000  0.15600  0.22500  Biso   1.000  O
  O160     1.0000 0.43000  0.23600  0.27700  Biso   1.000  O
  C627     1.0000 0.51100  0.28300  0.27100  Biso   1.000  C
  C628     1.0000 0.49600  0.30200  0.30500  Biso   1.000  C
  H609     1.0000 0.47820  0.28180  0.32630  Biso   1.000  H
  H610     1.0000 0.51940  0.32450  0.32040  Biso   1.000  H
  H611     1.0000 0.48070  0.31360  0.29030  Biso   1.000  H
  C629     1.0000 0.11100  0.08000  0.22300  Biso   1.000  C
  H612     1.0000 0.09680  0.08970  0.20580  Biso   1.000  H
  C630     1.0000 0.55500  0.30400  0.27100  Biso   1.000  C
  H613     1.0000 0.56990  0.32930  0.28670  Biso   1.000  H
  C631     1.0000 0.15500  0.10200  0.22300  Biso   1.000  C
  C632     1.0000 0.28000  0.33200  0.61000  Biso   1.000  C
  H614     1.0000 0.31170  0.35150  0.61300  Biso   1.000  H
  H615     1.0000 0.27070  0.32550  0.64050  Biso   1.000  H
  H616     1.0000 0.27770  0.30740  0.59630  Biso   1.000  H
  C633     1.0000 0.29500  0.30000  0.25600  Biso   1.000  C
  H617     1.0000 0.26660  0.28870  0.25220  Biso   1.000  H
  H618     1.0000 0.31320  0.31970  0.23980  Biso   1.000  H
  H619     1.0000 0.29780  0.27210  0.24590  Biso   1.000  H
  C634     1.0000 0.30000  0.50000  0.26000  Biso   1.000  C
  H620     1.0000 0.27590  0.47530  0.25500  Biso   1.000  H
  H621     1.0000 0.31040  0.52070  0.24240  Biso   1.000  H
  H622     1.0000 0.32260  0.48650  0.25160  Biso   1.000  H
  C635     1.0000 0.18200  0.39000  0.57000  Biso   1.000  C
  H623     1.0000 0.15540  0.36540  0.57480  Biso   1.000  H
  H624     1.0000 0.18820  0.40860  0.59480  Biso   1.000  H
  H625     1.0000 0.18210  0.40310  0.54300  Biso   1.000  H
  C636     1.0000 0.35100  0.26600  0.39800  Biso   1.000  C
  H626     1.0000 0.33230  0.24950  0.42190  Biso   1.000  H
  H627     1.0000 0.35380  0.24740  0.37770  Biso   1.000  H
  H628     1.0000 0.37720  0.28540  0.41010  Biso   1.000  H
  C637     1.0000 0.16000  0.13800  0.18900  Biso   1.000  C
  H629     1.0000 0.18630  0.14070  0.16910  Biso   1.000  H
  H630     1.0000 0.14020  0.13130  0.17260  Biso   1.000  H
  H631     1.0000 0.17420  0.16360  0.20500  Biso   1.000  H
  C638     1.0000 0.39000  0.55000  0.29900  Biso   1.000  C
  H632     1.0000 0.38320  0.54690  0.26830  Biso   1.000  H
  H633     1.0000 0.40680  0.57900  0.30650  Biso   1.000  H
  H634     1.0000 0.40520  0.53600  0.30620  Biso   1.000  H
  C639     1.0000 0.18400  0.28200  0.57200  Biso   1.000  C
  H635     1.0000 0.16490  0.27890  0.59600  Biso   1.000  H
  H636     1.0000 0.16820  0.27070  0.54540  Biso   1.000  H
  H637     1.0000 0.19720  0.26620  0.58010  Biso   1.000  H
  C640     1.0000 0.38500  0.34100  0.28900  Biso   1.000  C
  H638     1.0000 0.39070  0.31970  0.28030  Biso   1.000  H
  H639     1.0000 0.37780  0.35150  0.26310  Biso   1.000  H
  H640     1.0000 0.40910  0.36360  0.30280  Biso   1.000  H
  Zn51     1.0000 0.85850  0.63410  0.23880  Biso   1.000  Zn
  Zn52     1.0000 0.86070  0.70370  0.30180  Biso   1.000  Zn
  Zn53     1.0000 0.28070  0.65840  0.21980  Biso   1.000  Zn
  O161     1.0000 0.90600  0.64600  0.27500  Biso   1.000  O
  O162     1.0000 0.12900  0.76100  0.67700  Biso   1.000  O
  O163     1.0000 0.24900  0.65800  0.27200  Biso   1.000  O
  O164     1.0000 0.90500  0.69300  0.32100  Biso   1.000  O
  C641     1.0000 0.95900  0.67800  0.32900  Biso   1.000  C
  C642     1.0000 0.97500  0.65100  0.32200  Biso   1.000  C
  C643     1.0000 0.01030  0.65800  0.34500  Biso   1.000  C
  H641     1.0000 0.02090  0.64020  0.33990  Biso   1.000  H
  C644     1.0000 0.03000  0.69100  0.37400  Biso   1.000  C
  C645     1.0000 0.01300  0.71700  0.38100  Biso   1.000  C
  H642     1.0000 0.02630  0.73900  0.40150  Biso   1.000  H
  C646     1.0000 0.97760  0.71000  0.35900  Biso   1.000  C
  C647     1.0000 0.25600  0.67400  0.31200  Biso   1.000  C
  O165     1.0000 0.14200  0.82500  0.64900  Biso   1.000  O
  C648     1.0000 0.06800  0.69900  0.39900  Biso   1.000  C
  C649     1.0000 0.09700  0.69200  0.37820  Biso   1.000  C
  H643     1.0000 0.09390  0.68270  0.34910  Biso   1.000  H
  C650     1.0000 0.13300  0.70000  0.40100  Biso   1.000  C
  C651     1.0000 0.14000  0.71500  0.44500  Biso   1.000  C
  H644     1.0000 0.16320  0.71980  0.46050  Biso   1.000  H
  C652     1.0000 0.11000  0.72200  0.46530  Biso   1.000  C
  C653     1.0000 0.07400  0.71400  0.44200  Biso   1.000  C
  H645     1.0000 0.05430  0.71860  0.45580  Biso   1.000  H
  C654     1.0000 0.12900  0.77000  0.59800  Biso   1.000  C
  C655     1.0000 0.14100  0.74100  0.58700  Biso   1.000  C
  C656     1.0000 0.13400  0.72500  0.54400  Biso   1.000  C
  H646     1.0000 0.14180  0.70510  0.53660  Biso   1.000  H
  C657     1.0000 0.11600  0.73800  0.51200  Biso   1.000  C
  C658     1.0000 0.10600  0.76800  0.52300  Biso   1.000  C
  H647     1.0000 0.09330  0.77660  0.50160  Biso   1.000  H
  C659     1.0000 0.11100  0.78300  0.56600  Biso   1.000  C
  C660     1.0000 0.77900  0.55700  0.25000  Biso   1.000  C
  C661     1.0000 0.92100  0.67300  0.30300  Biso   1.000  C
  C662     1.0000 0.13700  0.78800  0.64500  Biso   1.000  C
  C663     1.0000 0.16500  0.69400  0.37800  Biso   1.000  C
  C664     1.0000 0.15300  0.66000  0.35000  Biso   1.000  C
  H648     1.0000 0.12470  0.64160  0.34420  Biso   1.000  H
  C665     1.0000 0.18200  0.65300  0.32900  Biso   1.000  C
  C666     1.0000 0.22500  0.68100  0.33700  Biso   1.000  C
  C667     1.0000 0.23600  0.71400  0.36600  Biso   1.000  C
  C668     1.0000 0.20700  0.72100  0.38600  Biso   1.000  C
  H649     1.0000 0.21490  0.74340  0.40510  Biso   1.000  H
  O166     1.0000 0.28800  0.67300  0.33100  Biso   1.000  O
  C669     1.0000 0.88600  0.77300  0.25000  Biso   1.000  C
  C670     1.0000 0.28200  0.75300  0.38300  Biso   1.000  C
  H650     1.0000 0.29190  0.74400  0.40760  Biso   1.000  H
  H651     1.0000 0.30220  0.76110  0.35880  Biso   1.000  H
  H652     1.0000 0.27930  0.77630  0.39120  Biso   1.000  H
  O167     1.0000 0.88900  0.76100  0.28800  Biso   1.000  O
  O168     1.0000 0.81700  0.57500  0.25000  Biso   1.000  O
  C671     1.0000 0.94800  0.84500  0.27600  Biso   1.000  C
  C672     1.0000 0.74900  0.44500  0.22900  Biso   1.000  C
  H653     1.0000 0.76060  0.43110  0.21410  Biso   1.000  H
  C673     1.0000 0.97000  0.88900  0.27600  Biso   1.000  C
  H654     1.0000 0.99410  0.90360  0.29240  Biso   1.000  H
  C674     1.0000 0.97100  0.83000  0.30700  Biso   1.000  C
  H655     1.0000 0.99740  0.85110  0.31290  Biso   1.000  H
  H656     1.0000 0.95440  0.81940  0.33410  Biso   1.000  H
  H657     1.0000 0.97080  0.80650  0.29240  Biso   1.000  H
  C675     1.0000 0.77100  0.48800  0.22900  Biso   1.000  C
  C676     1.0000 0.80800  0.50000  0.20300  Biso   1.000  C
  H658     1.0000 0.83340  0.52460  0.21870  Biso   1.000  H
  H659     1.0000 0.81580  0.47950  0.19980  Biso   1.000  H
  H660     1.0000 0.80800  0.51170  0.17410  Biso   1.000  H
  C677     1.0000 0.96700  0.74200  0.37500  Biso   1.000  C
  H661     1.0000 0.95840  0.73620  0.40560  Biso   1.000  H
  H662     1.0000 0.99130  0.76940  0.37320  Biso   1.000  H
  H663     1.0000 0.94520  0.74100  0.35740  Biso   1.000  H
  C678     1.0000 0.16200  0.72400  0.61700  Biso   1.000  C
  H664     1.0000 0.14130  0.69640  0.62730  Biso   1.000  H
  H665     1.0000 0.18300  0.72220  0.60100  Biso   1.000  H
  H666     1.0000 0.17350  0.74180  0.64240  Biso   1.000  H
  Zn54     1.0000 0.88690  0.69880  0.22250  Biso   1.000  Zn
  Zn55     1.0000 0.83580  0.62870  0.29440  Biso   1.000  Zn
  O169     1.0000 0.17700  0.81200  0.65100  Biso   1.000  O
  O170     1.0000 0.92600  0.69500  0.26500  Biso   1.000  O
  O171     1.0000 0.11200  0.79000  0.66200  Biso   1.000  O
  O172     1.0000 0.89000  0.64200  0.31300  Biso   1.000  O
  C679     1.0000 0.95600  0.66800  0.37400  Biso   1.000  C
  C680     1.0000 0.15500  0.76900  0.52500  Biso   1.000  C
  H667     1.0000 0.17750  0.77960  0.50540  Biso   1.000  H
  C681     1.0000 0.99200  0.67500  0.39700  Biso   1.000  C
  H668     1.0000 0.99050  0.66930  0.42720  Biso   1.000  H
  C682     1.0000 0.08400  0.72300  0.54200  Biso   1.000  C
  H669     1.0000 0.05770  0.70240  0.53280  Biso   1.000  H
  C683     1.0000 0.09000  0.73800  0.58500  Biso   1.000  C
  C684     1.0000 0.99600  0.69400  0.30500  Biso   1.000  C
  C685     1.0000 0.16200  0.78500  0.56800  Biso   1.000  C
  C686     1.0000 0.03200  0.70100  0.32900  Biso   1.000  C
  H670     1.0000 0.05790  0.71250  0.31470  Biso   1.000  H
  C687     1.0000 0.19000  0.68500  0.40100  Biso   1.000  C
  H671     1.0000 0.18720  0.68090  0.43140  Biso   1.000  H
  C688     1.0000 0.19800  0.68900  0.31300  Biso   1.000  C
  C689     1.0000 0.17300  0.69700  0.33400  Biso   1.000  C
  H672     1.0000 0.15700  0.70470  0.31600  Biso   1.000  H
  C690     1.0000 0.21900  0.68300  0.38000  Biso   1.000  C
  O173     1.0000 0.24400  0.63800  0.30600  Biso   1.000  O
  O174     1.0000 0.29000  0.71200  0.30900  Biso   1.000  O
  O175     1.0000 0.90600  0.75000  0.22500  Biso   1.000  O
  O176     1.0000 0.80600  0.57000  0.27700  Biso   1.000  O
  C691     1.0000 0.77200  0.48900  0.27100  Biso   1.000  C
  C692     1.0000 0.80600  0.50400  0.30500  Biso   1.000  C
  H673     1.0000 0.80360  0.52180  0.32630  Biso   1.000  H
  H674     1.0000 0.80510  0.48060  0.32040  Biso   1.000  H
  H675     1.0000 0.83290  0.51930  0.29030  Biso   1.000  H
  C693     1.0000 0.96900  0.88900  0.22300  Biso   1.000  C
  H676     1.0000 0.99290  0.90320  0.20580  Biso   1.000  H
  C694     1.0000 0.74900  0.44500  0.27100  Biso   1.000  C
  H677     1.0000 0.75940  0.43010  0.28670  Biso   1.000  H
  C695     1.0000 0.94700  0.84500  0.22300  Biso   1.000  C
  C696     1.0000 0.05200  0.72000  0.61000  Biso   1.000  C
  H678     1.0000 0.03980  0.68830  0.61300  Biso   1.000  H
  H679     1.0000 0.05480  0.72930  0.64050  Biso   1.000  H
  H680     1.0000 0.02970  0.72230  0.59630  Biso   1.000  H
  C697     1.0000 0.00500  0.70500  0.25600  Biso   1.000  C
  H681     1.0000 0.02210  0.73340  0.25220  Biso   1.000  H
  H682     1.0000 0.00650  0.68680  0.23980  Biso   1.000  H
  H683     1.0000 0.97430  0.70220  0.24590  Biso   1.000  H
  C698     1.0000 0.20000  0.70000  0.26000  Biso   1.000  C
  H684     1.0000 0.19940  0.72410  0.25500  Biso   1.000  H
  H685     1.0000 0.21030  0.68960  0.24240  Biso   1.000  H
  H686     1.0000 0.16390  0.67740  0.25160  Biso   1.000  H
  C699     1.0000 0.20800  0.81800  0.57000  Biso   1.000  C
  H687     1.0000 0.21000  0.84460  0.57480  Biso   1.000  H
  H688     1.0000 0.22040  0.81180  0.59480  Biso   1.000  H
  H689     1.0000 0.22100  0.81790  0.54300  Biso   1.000  H
  C700     1.0000 0.91500  0.64900  0.39800  Biso   1.000  C
  H690     1.0000 0.91720  0.66770  0.42190  Biso   1.000  H
  H691     1.0000 0.89360  0.64620  0.37770  Biso   1.000  H
  H692     1.0000 0.90820  0.62280  0.41010  Biso   1.000  H
  C701     1.0000 0.97800  0.84000  0.18900  Biso   1.000  C
  H693     1.0000 0.95440  0.81370  0.16910  Biso   1.000  H
  H694     1.0000 0.99110  0.85980  0.17260  Biso   1.000  H
  H695     1.0000 0.98940  0.82580  0.20500  Biso   1.000  H
  C702     1.0000 0.16000  0.61000  0.29900  Biso   1.000  C
  H696     1.0000 0.16370  0.61680  0.26830  Biso   1.000  H
  H697     1.0000 0.17220  0.59320  0.30650  Biso   1.000  H
  H698     1.0000 0.13080  0.59480  0.30620  Biso   1.000  H
  C703     1.0000 0.09800  0.81600  0.57200  Biso   1.000  C
  H699     1.0000 0.11400  0.83510  0.59600  Biso   1.000  H
  H700     1.0000 0.10250  0.83180  0.54540  Biso   1.000  H
  H701     1.0000 0.06900  0.80280  0.58010  Biso   1.000  H
  C704     1.0000 0.95600  0.61500  0.28900  Biso   1.000  C
  H702     1.0000 0.92900  0.60930  0.28030  Biso   1.000  H
  H703     1.0000 0.97370  0.62220  0.26310  Biso   1.000  H
  H704     1.0000 0.95450  0.59090  0.30280  Biso   1.000  H
  Zn56     1.0000 0.77560  0.14150  0.23880  Biso   1.000  Zn
  Zn57     1.0000 0.84300  0.13930  0.30180  Biso   1.000  Zn
  Zn58     1.0000 0.37770  0.71930  0.21980  Biso   1.000  Zn
  O177     1.0000 0.74000  0.09400  0.27500  Biso   1.000  O
  O178     1.0000 0.63200  0.87100  0.67700  Biso   1.000  O
  O179     1.0000 0.40900  0.75100  0.27200  Biso   1.000  O
  O180     1.0000 0.78800  0.09500  0.32100  Biso   1.000  O
  C705     1.0000 0.71900  0.04100  0.32900  Biso   1.000  C
  C706     1.0000 0.67600  0.02500  0.32200  Biso   1.000  C
  C707     1.0000 0.64770  0.98970  0.34500  Biso   1.000  C
  H705     1.0000 0.61930  0.97910  0.33990  Biso   1.000  H
  C708     1.0000 0.66100  0.97000  0.37400  Biso   1.000  C
  C709     1.0000 0.70400  0.98700  0.38100  Biso   1.000  C
  H706     1.0000 0.71270  0.97370  0.40150  Biso   1.000  H
  C710     1.0000 0.73240  0.02240  0.35900  Biso   1.000  C
  C711     1.0000 0.41800  0.74400  0.31200  Biso   1.000  C
  O181     1.0000 0.68300  0.85800  0.64900  Biso   1.000  O
  C712     1.0000 0.63100  0.93200  0.39900  Biso   1.000  C
  C713     1.0000 0.59500  0.90300  0.37820  Biso   1.000  C
  H707     1.0000 0.58880  0.90610  0.34910  Biso   1.000  H
  C714     1.0000 0.56700  0.86700  0.40100  Biso   1.000  C
  C715     1.0000 0.57500  0.86000  0.44500  Biso   1.000  C
  H708     1.0000 0.55660  0.83680  0.46050  Biso   1.000  H
  C716     1.0000 0.61200  0.89000  0.46530  Biso   1.000  C
  C717     1.0000 0.64000  0.92600  0.44200  Biso   1.000  C
  H709     1.0000 0.66430  0.94570  0.45580  Biso   1.000  H
  C718     1.0000 0.64100  0.87100  0.59800  Biso   1.000  C
  C719     1.0000 0.60000  0.85900  0.58700  Biso   1.000  C
  C720     1.0000 0.59100  0.86600  0.54400  Biso   1.000  C
  H710     1.0000 0.56330  0.85820  0.53660  Biso   1.000  H
  C721     1.0000 0.62200  0.88400  0.51200  Biso   1.000  C
  C722     1.0000 0.66200  0.89400  0.52300  Biso   1.000  C
  H711     1.0000 0.68330  0.90670  0.50160  Biso   1.000  H
  C723     1.0000 0.67200  0.88900  0.56600  Biso   1.000  C
  C724     1.0000 0.77800  0.22100  0.25000  Biso   1.000  C
  C725     1.0000 0.75200  0.07900  0.30300  Biso   1.000  C
  C726     1.0000 0.65100  0.86300  0.64500  Biso   1.000  C
  C727     1.0000 0.52900  0.83500  0.37800  Biso   1.000  C
  C728     1.0000 0.50700  0.84700  0.35000  Biso   1.000  C
  H712     1.0000 0.51690  0.87530  0.34420  Biso   1.000  H
  C729     1.0000 0.47100  0.81800  0.32900  Biso   1.000  C
  C730     1.0000 0.45600  0.77500  0.33700  Biso   1.000  C
  C731     1.0000 0.47800  0.76400  0.36600  Biso   1.000  C
  C732     1.0000 0.51400  0.79300  0.38600  Biso   1.000  C
  H713     1.0000 0.52850  0.78510  0.40510  Biso   1.000  H
  O182     1.0000 0.38500  0.71200  0.33100  Biso   1.000  O
  C733     1.0000 0.88700  0.11400  0.25000  Biso   1.000  C
  C734     1.0000 0.47100  0.71800  0.38300  Biso   1.000  C
  H714     1.0000 0.45210  0.70810  0.40760  Biso   1.000  H
  H715     1.0000 0.45890  0.69780  0.35880  Biso   1.000  H
  H716     1.0000 0.49700  0.72070  0.39120  Biso   1.000  H
  O183     1.0000 0.87200  0.11100  0.28800  Biso   1.000  O
  O184     1.0000 0.75800  0.18300  0.25000  Biso   1.000  O
  C735     1.0000 0.89700  0.05200  0.27600  Biso   1.000  C
  C736     1.0000 0.69600  0.25100  0.22900  Biso   1.000  C
  H717     1.0000 0.67050  0.23940  0.21410  Biso   1.000  H
  C737     1.0000 0.91900  0.03000  0.27600  Biso   1.000  C
  H718     1.0000 0.90950  0.00590  0.29240  Biso   1.000  H
  C738     1.0000 0.85900  0.02900  0.30700  Biso   1.000  C
  H719     1.0000 0.85370  0.00260  0.31290  Biso   1.000  H
  H720     1.0000 0.86500  0.04560  0.33410  Biso   1.000  H
  H721     1.0000 0.83570  0.02920  0.29240  Biso   1.000  H
  C739     1.0000 0.71700  0.22900  0.22900  Biso   1.000  C
  C740     1.0000 0.69200  0.19200  0.20300  Biso   1.000  C
  H722     1.0000 0.69120  0.16660  0.21870  Biso   1.000  H
  H723     1.0000 0.66370  0.18420  0.19980  Biso   1.000  H
  H724     1.0000 0.70370  0.19200  0.17410  Biso   1.000  H
  C741     1.0000 0.77500  0.03300  0.37500  Biso   1.000  C
  H725     1.0000 0.77780  0.04160  0.40560  Biso   1.000  H
  H726     1.0000 0.77810  0.00870  0.37320  Biso   1.000  H
  H727     1.0000 0.79580  0.05480  0.35740  Biso   1.000  H
  C742     1.0000 0.56200  0.83800  0.61700  Biso   1.000  C
  H728     1.0000 0.55510  0.85870  0.62730  Biso   1.000  H
  H729     1.0000 0.53920  0.81700  0.60100  Biso   1.000  H
  H730     1.0000 0.56830  0.82650  0.64240  Biso   1.000  H
  Zn59     1.0000 0.81190  0.11310  0.22250  Biso   1.000  Zn
  Zn60     1.0000 0.79290  0.16420  0.29440  Biso   1.000  Zn
  O185     1.0000 0.63500  0.82300  0.65100  Biso   1.000  O
  O186     1.0000 0.76900  0.07400  0.26500  Biso   1.000  O
  O187     1.0000 0.67800  0.88800  0.66200  Biso   1.000  O
  O188     1.0000 0.75200  0.11000  0.31300  Biso   1.000  O
  C743     1.0000 0.71200  0.04400  0.37400  Biso   1.000  C
  C744     1.0000 0.61400  0.84500  0.52500  Biso   1.000  C
  H731     1.0000 0.60210  0.82250  0.50540  Biso   1.000  H
  C745     1.0000 0.68300  0.00800  0.39700  Biso   1.000  C
  H732     1.0000 0.67880  0.00950  0.42720  Biso   1.000  H
  C746     1.0000 0.63900  0.91600  0.54200  Biso   1.000  C
  H733     1.0000 0.64470  0.94230  0.53280  Biso   1.000  H
  C747     1.0000 0.64800  0.91000  0.58500  Biso   1.000  C
  C748     1.0000 0.69800  0.00400  0.30500  Biso   1.000  C
  C749     1.0000 0.62300  0.83800  0.56800  Biso   1.000  C
  C750     1.0000 0.66900  0.96800  0.32900  Biso   1.000  C
  H734     1.0000 0.65460  0.94210  0.31470  Biso   1.000  H
  C751     1.0000 0.49500  0.81000  0.40100  Biso   1.000  C
  H735     1.0000 0.49370  0.81280  0.43140  Biso   1.000  H
  C752     1.0000 0.49100  0.80200  0.31300  Biso   1.000  C
  C753     1.0000 0.52400  0.82700  0.33400  Biso   1.000  C
  H736     1.0000 0.54770  0.84300  0.31600  Biso   1.000  H
  C754     1.0000 0.46400  0.78100  0.38000  Biso   1.000  C
  O189     1.0000 0.39400  0.75600  0.30600  Biso   1.000  O
  O190     1.0000 0.42200  0.71000  0.30900  Biso   1.000  O
  O191     1.0000 0.84400  0.09400  0.22500  Biso   1.000  O
  O192     1.0000 0.76400  0.19400  0.27700  Biso   1.000  O
  C755     1.0000 0.71700  0.22800  0.27100  Biso   1.000  C
  C756     1.0000 0.69800  0.19400  0.30500  Biso   1.000  C
  H737     1.0000 0.71820  0.19640  0.32630  Biso   1.000  H
  H738     1.0000 0.67550  0.19490  0.32040  Biso   1.000  H
  H739     1.0000 0.68640  0.16710  0.29030  Biso   1.000  H
  C757     1.0000 0.92000  0.03100  0.22300  Biso   1.000  C
  H740     1.0000 0.91030  0.00710  0.20580  Biso   1.000  H
  C758     1.0000 0.69600  0.25100  0.27100  Biso   1.000  C
  H741     1.0000 0.67070  0.24060  0.28670  Biso   1.000  H
  C759     1.0000 0.89800  0.05300  0.22300  Biso   1.000  C
  C760     1.0000 0.66800  0.94800  0.61000  Biso   1.000  C
  H742     1.0000 0.64850  0.96020  0.61300  Biso   1.000  H
  H743     1.0000 0.67450  0.94520  0.64050  Biso   1.000  H
  H744     1.0000 0.69260  0.97030  0.59630  Biso   1.000  H
  C761     1.0000 0.70000  0.99500  0.25600  Biso   1.000  C
  H745     1.0000 0.71130  0.97790  0.25220  Biso   1.000  H
  H746     1.0000 0.68030  0.99350  0.23980  Biso   1.000  H
  H747     1.0000 0.72790  0.02570  0.24590  Biso   1.000  H
  C762     1.0000 0.50000  0.80000  0.26000  Biso   1.000  C
  H748     1.0000 0.52470  0.80060  0.25500  Biso   1.000  H
  H749     1.0000 0.47930  0.78970  0.24240  Biso   1.000  H
  H750     1.0000 0.51350  0.83610  0.25160  Biso   1.000  H
  C763     1.0000 0.61000  0.79200  0.57000  Biso   1.000  C
  H751     1.0000 0.63460  0.79000  0.57480  Biso   1.000  H
  H752     1.0000 0.59140  0.77960  0.59480  Biso   1.000  H
  H753     1.0000 0.59690  0.77900  0.54300  Biso   1.000  H
  C764     1.0000 0.73400  0.08500  0.39800  Biso   1.000  C
  H754     1.0000 0.75050  0.08280  0.42190  Biso   1.000  H
  H755     1.0000 0.75260  0.10640  0.37770  Biso   1.000  H
  H756     1.0000 0.71460  0.09180  0.41010  Biso   1.000  H
  C765     1.0000 0.86200  0.02200  0.18900  Biso   1.000  C
  H757     1.0000 0.85930  0.04560  0.16910  Biso   1.000  H
  H758     1.0000 0.86870  0.00890  0.17260  Biso   1.000  H
  H759     1.0000 0.83640  0.01060  0.20500  Biso   1.000  H
  C766     1.0000 0.45000  0.84000  0.29900  Biso   1.000  C
  H760     1.0000 0.45310  0.83630  0.26830  Biso   1.000  H
  H761     1.0000 0.42100  0.82780  0.30650  Biso   1.000  H
  H762     1.0000 0.46400  0.86920  0.30620  Biso   1.000  H
  C767     1.0000 0.71800  0.90200  0.57200  Biso   1.000  C
  H763     1.0000 0.72110  0.88600  0.59600  Biso   1.000  H
  H764     1.0000 0.72930  0.89750  0.54540  Biso   1.000  H
  H765     1.0000 0.73380  0.93100  0.58010  Biso   1.000  H
  C768     1.0000 0.65900  0.04400  0.28900  Biso   1.000  C
  H766     1.0000 0.68030  0.07100  0.28030  Biso   1.000  H
  H767     1.0000 0.64850  0.02630  0.26310  Biso   1.000  H
  H768     1.0000 0.63640  0.04550  0.30280  Biso   1.000  H
  Zn61     1.0000 0.66667  0.33333  0.80670  Biso   1.000  Zn
  Zn62     1.0000 0.66667  0.33333  0.69330  Biso   1.000  Zn
  Zn63     1.0000 0.33333  0.66667  0.19330  Biso   1.000  Zn
  Zn64     1.0000 0.33333  0.66667  0.30670  Biso   1.000  Zn
  O193     1.0000 0.16650  0.33300  0.75000  Biso   1.000  O
  C769     1.0000 0.24500  0.49000  0.75000  Biso   1.000  C
  C770     1.0000 0.31200  0.62400  0.75000  Biso   1.000  C
  C771     1.0000 0.28800  0.57600  0.75000  Biso   1.000  C
  C772     1.0000 0.04450  0.08900  0.75000  Biso   1.000  C
  C773     1.0000 0.02200  0.04400  0.75000  Biso   1.000  C
  C774     1.0000 0.08850  0.17700  0.75000  Biso   1.000  C
  O194     1.0000 0.66700  0.83350  0.75000  Biso   1.000  O
  C775     1.0000 0.51000  0.75500  0.75000  Biso   1.000  C
  C776     1.0000 0.37600  0.68800  0.75000  Biso   1.000  C
  C777     1.0000 0.42400  0.71200  0.75000  Biso   1.000  C
  C778     1.0000 0.91100  0.95550  0.75000  Biso   1.000  C
  C779     1.0000 0.95600  0.97800  0.75000  Biso   1.000  C
  C780     1.0000 0.82300  0.91150  0.75000  Biso   1.000  C
  O195     1.0000 0.16650  0.83350  0.75000  Biso   1.000  O
  C781     1.0000 0.24500  0.75500  0.75000  Biso   1.000  C
  C782     1.0000 0.31200  0.68800  0.75000  Biso   1.000  C
  C783     1.0000 0.28800  0.71200  0.75000  Biso   1.000  C
  C784     1.0000 0.04450  0.95550  0.75000  Biso   1.000  C
  C785     1.0000 0.02200  0.97800  0.75000  Biso   1.000  C
  C786     1.0000 0.08850  0.91150  0.75000  Biso   1.000  C
  O196     1.0000 0.83350  0.66700  0.25000  Biso   1.000  O
  C787     1.0000 0.75500  0.51000  0.25000  Biso   1.000  C
  C788     1.0000 0.68800  0.37600  0.25000  Biso   1.000  C
  C789     1.0000 0.71200  0.42400  0.25000  Biso   1.000  C
  C790     1.0000 0.95550  0.91100  0.25000  Biso   1.000  C
  C791     1.0000 0.97800  0.95600  0.25000  Biso   1.000  C
  C792     1.0000 0.91150  0.82300  0.25000  Biso   1.000  C
  O197     1.0000 0.33300  0.16650  0.25000  Biso   1.000  O
  C793     1.0000 0.49000  0.24500  0.25000  Biso   1.000  C
  C794     1.0000 0.62400  0.31200  0.25000  Biso   1.000  C
  C795     1.0000 0.57600  0.28800  0.25000  Biso   1.000  C
  C796     1.0000 0.08900  0.04450  0.25000  Biso   1.000  C
  C797     1.0000 0.04400  0.02200  0.25000  Biso   1.000  C
  C798     1.0000 0.17700  0.08850  0.25000  Biso   1.000  C
  O198     1.0000 0.83350  0.16650  0.25000  Biso   1.000  O
  C799     1.0000 0.75500  0.24500  0.25000  Biso   1.000  C
  C800     1.0000 0.68800  0.31200  0.25000  Biso   1.000  C
  C801     1.0000 0.71200  0.28800  0.25000  Biso   1.000  C
  C802     1.0000 0.95550  0.04450  0.25000  Biso   1.000  C
  C803     1.0000 0.97800  0.02200  0.25000  Biso   1.000  C
  C804     1.0000 0.91150  0.08850  0.25000  Biso   1.000  C
  O199     1.0000 0.66667  0.33333  0.75000  Biso   1.000  O
  O200     1.0000 0.33333  0.66667  0.25000  Biso   1.000  O
  C805     1.0000 0.35520  0.64480  0.75000  Biso   1.000  C
  H769     1.0000 0.36960  0.63040  0.75000  Biso   1.000  H
  C806     1.0000 0.35520  0.71040  0.75000  Biso   1.000  C
  H770     1.0000 0.36960  0.73920  0.75000  Biso   1.000  H
  C807     1.0000 0.28960  0.64480  0.75000  Biso   1.000  C
  H771     1.0000 0.26080  0.63040  0.75000  Biso   1.000  H
  C808     1.0000 0.64480  0.35520  0.25000  Biso   1.000  C
  H772     1.0000 0.63040  0.36960  0.25000  Biso   1.000  H
  C809     1.0000 0.64480  0.28960  0.25000  Biso   1.000  C
  H773     1.0000 0.63040  0.26080  0.25000  Biso   1.000  H
  C810     1.0000 0.71040  0.35520  0.25000  Biso   1.000  C
  H774     1.0000 0.73920  0.36960  0.25000  Biso   1.000  H
  C811     1.0000 0.04800  0.02400  0.75000  Biso   1.000  C
  H775     1.0000 0.07740  0.03870  0.75000  Biso   1.000  H
  C812     1.0000 0.97600  0.02400  0.75000  Biso   1.000  C
  H776     1.0000 0.96130  0.03870  0.75000  Biso   1.000  H
  C813     1.0000 0.97600  0.95200  0.75000  Biso   1.000  C
  H777     1.0000 0.96130  0.92260  0.75000  Biso   1.000  H
  C814     1.0000 0.95200  0.97600  0.25000  Biso   1.000  C
  H778     1.0000 0.92260  0.96130  0.25000  Biso   1.000  H
  C815     1.0000 0.02400  0.97600  0.25000  Biso   1.000  C
  H779     1.0000 0.03870  0.96130  0.25000  Biso   1.000  H
  C816     1.0000 0.02400  0.04800  0.25000  Biso   1.000  C
  H780     1.0000 0.03870  0.07740  0.25000  Biso   1.000  H
