data_image0
_cell_length_a       18.6463
_cell_length_b       18.6463
_cell_length_c       38.5563
_cell_angle_alpha    90
_cell_angle_beta     90
_cell_angle_gamma    120

_symmetry_space_group_name_H-M    "P 1"
_symmetry_int_tables_number       1

loop_
  _symmetry_equiv_pos_as_xyz
  'x, y, z'

loop_
  _atom_site_label
  _atom_site_occupancy
  _atom_site_fract_x
  _atom_site_fract_y
  _atom_site_fract_z
  _atom_site_thermal_displace_type
  _atom_site_B_iso_or_equiv
  _atom_site_type_symbol
  N1       1.0000 0.15700  0.01700  0.88040  Biso   1.000  N
  O1       1.0000 0.41023  0.96867  0.95605  Biso   1.000  O
  O2       1.0000 0.37166  0.88949  0.00334  Biso   1.000  O
  C1       1.0000 0.36140  0.90760  0.97337  Biso   1.000  C
  C2       1.0000 0.28010  0.84850  0.95612  Biso   1.000  C
  C3       1.0000 0.26570  0.86270  0.92205  Biso   1.000  C
  H1       1.0000 0.30420  0.91070  0.91070  Biso   1.000  H
  C4       1.0000 0.16920  0.77560  0.84530  Biso   1.000  C
  H2       1.0000 0.17520  0.72880  0.85110  Biso   1.000  H
  C5       1.0000 0.15800  0.79060  0.81100  Biso   1.000  C
  H3       1.0000 0.15800  0.75480  0.79310  Biso   1.000  H
  C6       1.0000 0.15500  0.91240  0.82800  Biso   1.000  C
  C7       1.0000 0.14700  0.98120  0.82050  Biso   1.000  C
  H4       1.0000 0.14270  0.99390  0.79670  Biso   1.000  H
  C8       1.0000 0.14300  0.02900  0.84640  Biso   1.000  C
  H5       1.0000 0.13160  0.07270  0.84080  Biso   1.000  H
  C9       1.0000 0.15700  0.94300  0.88840  Biso   1.000  C
  H6       1.0000 0.15230  0.92560  0.91210  Biso   1.000  H
  C10      1.0000 0.16600  0.89730  0.86240  Biso   1.000  C
  N2       1.0000 0.82367  0.35033  0.21373  Biso   1.000  N
  O3       1.0000 0.07690  0.30200  0.28938  Biso   1.000  O
  O4       1.0000 0.03833  0.22282  0.33667  Biso   1.000  O
  C11      1.0000 0.02807  0.24093  0.30670  Biso   1.000  C
  C12      1.0000 0.94677  0.18183  0.28945  Biso   1.000  C
  C13      1.0000 0.93237  0.19603  0.25538  Biso   1.000  C
  H7       1.0000 0.97087  0.24403  0.24403  Biso   1.000  H
  C14      1.0000 0.83587  0.10893  0.17863  Biso   1.000  C
  H8       1.0000 0.84187  0.06213  0.18443  Biso   1.000  H
  C15      1.0000 0.82467  0.12393  0.14433  Biso   1.000  C
  H9       1.0000 0.82467  0.08813  0.12643  Biso   1.000  H
  C16      1.0000 0.82167  0.24573  0.16133  Biso   1.000  C
  C17      1.0000 0.81367  0.31453  0.15383  Biso   1.000  C
  H10      1.0000 0.80937  0.32723  0.13003  Biso   1.000  H
  C18      1.0000 0.80967  0.36233  0.17973  Biso   1.000  C
  H11      1.0000 0.79827  0.40603  0.17413  Biso   1.000  H
  C19      1.0000 0.82367  0.27633  0.22173  Biso   1.000  C
  H12      1.0000 0.81897  0.25893  0.24543  Biso   1.000  H
  C20      1.0000 0.83267  0.23063  0.19573  Biso   1.000  C
  N3       1.0000 0.49033  0.68367  0.54707  Biso   1.000  N
  O5       1.0000 0.74356  0.63534  0.62272  Biso   1.000  O
  O6       1.0000 0.70499  0.55616  0.67001  Biso   1.000  O
  C21      1.0000 0.69473  0.57427  0.64004  Biso   1.000  C
  C22      1.0000 0.61343  0.51517  0.62279  Biso   1.000  C
  C23      1.0000 0.59903  0.52937  0.58872  Biso   1.000  C
  H13      1.0000 0.63753  0.57737  0.57737  Biso   1.000  H
  C24      1.0000 0.50253  0.44227  0.51197  Biso   1.000  C
  H14      1.0000 0.50853  0.39547  0.51777  Biso   1.000  H
  C25      1.0000 0.49133  0.45727  0.47767  Biso   1.000  C
  H15      1.0000 0.49133  0.42147  0.45977  Biso   1.000  H
  C26      1.0000 0.48833  0.57907  0.49467  Biso   1.000  C
  C27      1.0000 0.48033  0.64787  0.48717  Biso   1.000  C
  H16      1.0000 0.47603  0.66057  0.46337  Biso   1.000  H
  C28      1.0000 0.47633  0.69567  0.51307  Biso   1.000  C
  H17      1.0000 0.46493  0.73937  0.50747  Biso   1.000  H
  C29      1.0000 0.49033  0.60967  0.55507  Biso   1.000  C
  H18      1.0000 0.48563  0.59227  0.57877  Biso   1.000  H
  C30      1.0000 0.49933  0.56397  0.52907  Biso   1.000  C
  N4       1.0000 0.98300  0.14000  0.88040  Biso   1.000  N
  O7       1.0000 0.03133  0.44156  0.95605  Biso   1.000  O
  O8       1.0000 0.11051  0.48217  0.00334  Biso   1.000  O
  C31      1.0000 0.09240  0.45380  0.97337  Biso   1.000  C
  C32      1.0000 0.15150  0.43160  0.95612  Biso   1.000  C
  C33      1.0000 0.13730  0.40300  0.92205  Biso   1.000  C
  H19      1.0000 0.08930  0.39350  0.91070  Biso   1.000  H
  C34      1.0000 0.22440  0.39360  0.84530  Biso   1.000  C
  H20      1.0000 0.27120  0.44640  0.85110  Biso   1.000  H
  C35      1.0000 0.20940  0.36740  0.81100  Biso   1.000  C
  H21      1.0000 0.24520  0.40320  0.79310  Biso   1.000  H
  C36      1.0000 0.08760  0.24260  0.82800  Biso   1.000  C
  C37      1.0000 0.01880  0.16580  0.82050  Biso   1.000  C
  H22      1.0000 0.00610  0.14880  0.79670  Biso   1.000  H
  C38      1.0000 0.97100  0.11400  0.84640  Biso   1.000  C
  H23      1.0000 0.92730  0.05890  0.84080  Biso   1.000  H
  C39      1.0000 0.05700  0.21400  0.88840  Biso   1.000  C
  H24      1.0000 0.07440  0.22670  0.91210  Biso   1.000  H
  C40      1.0000 0.10270  0.26870  0.86240  Biso   1.000  C
  N5       1.0000 0.64967  0.47333  0.21373  Biso   1.000  N
  O9       1.0000 0.69800  0.77489  0.28938  Biso   1.000  O
  O10      1.0000 0.77718  0.81550  0.33667  Biso   1.000  O
  C41      1.0000 0.75907  0.78713  0.30670  Biso   1.000  C
  C42      1.0000 0.81817  0.76493  0.28945  Biso   1.000  C
  C43      1.0000 0.80397  0.73633  0.25538  Biso   1.000  C
  H25      1.0000 0.75597  0.72683  0.24403  Biso   1.000  H
  C44      1.0000 0.89107  0.72693  0.17863  Biso   1.000  C
  H26      1.0000 0.93787  0.77973  0.18443  Biso   1.000  H
  C45      1.0000 0.87607  0.70073  0.14433  Biso   1.000  C
  H27      1.0000 0.91187  0.73653  0.12643  Biso   1.000  H
  C46      1.0000 0.75427  0.57593  0.16133  Biso   1.000  C
  C47      1.0000 0.68547  0.49913  0.15383  Biso   1.000  C
  H28      1.0000 0.67277  0.48213  0.13003  Biso   1.000  H
  C48      1.0000 0.63767  0.44733  0.17973  Biso   1.000  C
  H29      1.0000 0.59397  0.39223  0.17413  Biso   1.000  H
  C49      1.0000 0.72367  0.54733  0.22173  Biso   1.000  C
  H30      1.0000 0.74107  0.56003  0.24543  Biso   1.000  H
  C50      1.0000 0.76937  0.60203  0.19573  Biso   1.000  C
  N6       1.0000 0.31633  0.80667  0.54707  Biso   1.000  N
  O11      1.0000 0.36466  0.10823  0.62272  Biso   1.000  O
  O12      1.0000 0.44384  0.14884  0.67001  Biso   1.000  O
  C51      1.0000 0.42573  0.12047  0.64004  Biso   1.000  C
  C52      1.0000 0.48483  0.09827  0.62279  Biso   1.000  C
  C53      1.0000 0.47063  0.06967  0.58872  Biso   1.000  C
  H31      1.0000 0.42263  0.06017  0.57737  Biso   1.000  H
  C54      1.0000 0.55773  0.06027  0.51197  Biso   1.000  C
  H32      1.0000 0.60453  0.11307  0.51777  Biso   1.000  H
  C55      1.0000 0.54273  0.03407  0.47767  Biso   1.000  C
  H33      1.0000 0.57853  0.06987  0.45977  Biso   1.000  H
  C56      1.0000 0.42093  0.90927  0.49467  Biso   1.000  C
  C57      1.0000 0.35213  0.83247  0.48717  Biso   1.000  C
  H34      1.0000 0.33943  0.81547  0.46337  Biso   1.000  H
  C58      1.0000 0.30433  0.78067  0.51307  Biso   1.000  C
  H35      1.0000 0.26063  0.72557  0.50747  Biso   1.000  H
  C59      1.0000 0.39033  0.88067  0.55507  Biso   1.000  C
  H36      1.0000 0.40773  0.89337  0.57877  Biso   1.000  H
  C60      1.0000 0.43603  0.93537  0.52907  Biso   1.000  C
  N7       1.0000 0.86000  0.84300  0.88040  Biso   1.000  N
  O13      1.0000 0.55844  0.58977  0.95605  Biso   1.000  O
  O14      1.0000 0.51783  0.62834  0.00334  Biso   1.000  O
  C61      1.0000 0.54620  0.63860  0.97337  Biso   1.000  C
  C62      1.0000 0.56840  0.71990  0.95612  Biso   1.000  C
  C63      1.0000 0.59700  0.73430  0.92205  Biso   1.000  C
  H37      1.0000 0.60650  0.69580  0.91070  Biso   1.000  H
  C64      1.0000 0.60640  0.83080  0.84530  Biso   1.000  C
  H38      1.0000 0.55360  0.82480  0.85110  Biso   1.000  H
  C65      1.0000 0.63260  0.84200  0.81100  Biso   1.000  C
  H39      1.0000 0.59680  0.84200  0.79310  Biso   1.000  H
  C66      1.0000 0.75740  0.84500  0.82800  Biso   1.000  C
  C67      1.0000 0.83420  0.85300  0.82050  Biso   1.000  C
  H40      1.0000 0.85120  0.85730  0.79670  Biso   1.000  H
  C68      1.0000 0.88600  0.85700  0.84640  Biso   1.000  C
  H41      1.0000 0.94110  0.86840  0.84080  Biso   1.000  H
  C69      1.0000 0.78600  0.84300  0.88840  Biso   1.000  C
  H42      1.0000 0.77330  0.84770  0.91210  Biso   1.000  H
  C70      1.0000 0.73130  0.83400  0.86240  Biso   1.000  C
  N8       1.0000 0.52667  0.17633  0.21373  Biso   1.000  N
  O15      1.0000 0.22511  0.92310  0.28938  Biso   1.000  O
  O16      1.0000 0.18450  0.96167  0.33667  Biso   1.000  O
  C71      1.0000 0.21287  0.97193  0.30670  Biso   1.000  C
  C72      1.0000 0.23507  0.05323  0.28945  Biso   1.000  C
  C73      1.0000 0.26367  0.06763  0.25538  Biso   1.000  C
  H43      1.0000 0.27317  0.02913  0.24403  Biso   1.000  H
  C74      1.0000 0.27307  0.16413  0.17863  Biso   1.000  C
  H44      1.0000 0.22027  0.15813  0.18443  Biso   1.000  H
  C75      1.0000 0.29927  0.17533  0.14433  Biso   1.000  C
  H45      1.0000 0.26347  0.17533  0.12643  Biso   1.000  H
  C76      1.0000 0.42407  0.17833  0.16133  Biso   1.000  C
  C77      1.0000 0.50087  0.18633  0.15383  Biso   1.000  C
  H46      1.0000 0.51787  0.19063  0.13003  Biso   1.000  H
  C78      1.0000 0.55267  0.19033  0.17973  Biso   1.000  C
  H47      1.0000 0.60777  0.20173  0.17413  Biso   1.000  H
  C79      1.0000 0.45267  0.17633  0.22173  Biso   1.000  C
  H48      1.0000 0.43997  0.18103  0.24543  Biso   1.000  H
  C80      1.0000 0.39797  0.16733  0.19573  Biso   1.000  C
  N9       1.0000 0.19333  0.50967  0.54707  Biso   1.000  N
  O17      1.0000 0.89177  0.25644  0.62272  Biso   1.000  O
  O18      1.0000 0.85116  0.29501  0.67001  Biso   1.000  O
  C81      1.0000 0.87953  0.30527  0.64004  Biso   1.000  C
  C82      1.0000 0.90173  0.38657  0.62279  Biso   1.000  C
  C83      1.0000 0.93033  0.40097  0.58872  Biso   1.000  C
  H49      1.0000 0.93983  0.36247  0.57737  Biso   1.000  H
  C84      1.0000 0.93973  0.49747  0.51197  Biso   1.000  C
  H50      1.0000 0.88693  0.49147  0.51777  Biso   1.000  H
  C85      1.0000 0.96593  0.50867  0.47767  Biso   1.000  C
  H51      1.0000 0.93013  0.50867  0.45977  Biso   1.000  H
  C86      1.0000 0.09073  0.51167  0.49467  Biso   1.000  C
  C87      1.0000 0.16753  0.51967  0.48717  Biso   1.000  C
  H52      1.0000 0.18453  0.52397  0.46337  Biso   1.000  H
  C88      1.0000 0.21933  0.52367  0.51307  Biso   1.000  C
  H53      1.0000 0.27443  0.53507  0.50747  Biso   1.000  H
  C89      1.0000 0.11933  0.50967  0.55507  Biso   1.000  C
  H54      1.0000 0.10663  0.51437  0.57877  Biso   1.000  H
  C90      1.0000 0.06463  0.50067  0.52907  Biso   1.000  C
  N10      1.0000 0.01700  0.15700  0.11960  Biso   1.000  N
  O19      1.0000 0.96867  0.41023  0.04395  Biso   1.000  O
  O20      1.0000 0.88949  0.37166  0.99666  Biso   1.000  O
  C91      1.0000 0.90760  0.36140  0.02663  Biso   1.000  C
  C92      1.0000 0.84850  0.28010  0.04388  Biso   1.000  C
  C93      1.0000 0.86270  0.26570  0.07795  Biso   1.000  C
  H55      1.0000 0.91070  0.30420  0.08930  Biso   1.000  H
  C94      1.0000 0.77560  0.16920  0.15470  Biso   1.000  C
  H56      1.0000 0.72880  0.17520  0.14890  Biso   1.000  H
  C95      1.0000 0.79060  0.15800  0.18900  Biso   1.000  C
  H57      1.0000 0.75480  0.15800  0.20690  Biso   1.000  H
  C96      1.0000 0.91240  0.15500  0.17200  Biso   1.000  C
  C97      1.0000 0.98120  0.14700  0.17950  Biso   1.000  C
  H58      1.0000 0.99390  0.14270  0.20330  Biso   1.000  H
  C98      1.0000 0.02900  0.14300  0.15360  Biso   1.000  C
  H59      1.0000 0.07270  0.13160  0.15920  Biso   1.000  H
  C99      1.0000 0.94300  0.15700  0.11160  Biso   1.000  C
  H60      1.0000 0.92560  0.15230  0.08790  Biso   1.000  H
  C100     1.0000 0.89730  0.16600  0.13760  Biso   1.000  C
  N11      1.0000 0.68367  0.49033  0.45293  Biso   1.000  N
  O21      1.0000 0.63534  0.74356  0.37728  Biso   1.000  O
  O22      1.0000 0.55616  0.70499  0.32999  Biso   1.000  O
  C101     1.0000 0.57427  0.69473  0.35996  Biso   1.000  C
  C102     1.0000 0.51517  0.61343  0.37721  Biso   1.000  C
  C103     1.0000 0.52937  0.59903  0.41128  Biso   1.000  C
  H61      1.0000 0.57737  0.63753  0.42263  Biso   1.000  H
  C104     1.0000 0.44227  0.50253  0.48803  Biso   1.000  C
  H62      1.0000 0.39547  0.50853  0.48223  Biso   1.000  H
  C105     1.0000 0.45727  0.49133  0.52233  Biso   1.000  C
  H63      1.0000 0.42147  0.49133  0.54023  Biso   1.000  H
  C106     1.0000 0.57907  0.48833  0.50533  Biso   1.000  C
  C107     1.0000 0.64787  0.48033  0.51283  Biso   1.000  C
  H64      1.0000 0.66057  0.47603  0.53663  Biso   1.000  H
  C108     1.0000 0.69567  0.47633  0.48693  Biso   1.000  C
  H65      1.0000 0.73937  0.46493  0.49253  Biso   1.000  H
  C109     1.0000 0.60967  0.49033  0.44493  Biso   1.000  C
  H66      1.0000 0.59227  0.48563  0.42123  Biso   1.000  H
  C110     1.0000 0.56397  0.49933  0.47093  Biso   1.000  C
  N12      1.0000 0.35033  0.82367  0.78627  Biso   1.000  N
  O23      1.0000 0.30200  0.07690  0.71062  Biso   1.000  O
  O24      1.0000 0.22282  0.03833  0.66333  Biso   1.000  O
  C111     1.0000 0.24093  0.02807  0.69330  Biso   1.000  C
  C112     1.0000 0.18183  0.94677  0.71055  Biso   1.000  C
  C113     1.0000 0.19603  0.93237  0.74462  Biso   1.000  C
  H67      1.0000 0.24403  0.97087  0.75597  Biso   1.000  H
  C114     1.0000 0.10893  0.83587  0.82137  Biso   1.000  C
  H68      1.0000 0.06213  0.84187  0.81557  Biso   1.000  H
  C115     1.0000 0.12393  0.82467  0.85567  Biso   1.000  C
  H69      1.0000 0.08813  0.82467  0.87357  Biso   1.000  H
  C116     1.0000 0.24573  0.82167  0.83867  Biso   1.000  C
  C117     1.0000 0.31453  0.81367  0.84617  Biso   1.000  C
  H70      1.0000 0.32723  0.80937  0.86997  Biso   1.000  H
  C118     1.0000 0.36233  0.80967  0.82027  Biso   1.000  C
  H71      1.0000 0.40603  0.79827  0.82587  Biso   1.000  H
  C119     1.0000 0.27633  0.82367  0.77827  Biso   1.000  C
  H72      1.0000 0.25893  0.81897  0.75457  Biso   1.000  H
  C120     1.0000 0.23063  0.83267  0.80427  Biso   1.000  C
  N13      1.0000 0.14000  0.98300  0.11960  Biso   1.000  N
  O25      1.0000 0.44156  0.03133  0.04395  Biso   1.000  O
  O26      1.0000 0.48217  0.11051  0.99666  Biso   1.000  O
  C121     1.0000 0.45380  0.09240  0.02663  Biso   1.000  C
  C122     1.0000 0.43160  0.15150  0.04388  Biso   1.000  C
  C123     1.0000 0.40300  0.13730  0.07795  Biso   1.000  C
  H73      1.0000 0.39350  0.08930  0.08930  Biso   1.000  H
  C124     1.0000 0.39360  0.22440  0.15470  Biso   1.000  C
  H74      1.0000 0.44640  0.27120  0.14890  Biso   1.000  H
  C125     1.0000 0.36740  0.20940  0.18900  Biso   1.000  C
  H75      1.0000 0.40320  0.24520  0.20690  Biso   1.000  H
  C126     1.0000 0.24260  0.08760  0.17200  Biso   1.000  C
  C127     1.0000 0.16580  0.01880  0.17950  Biso   1.000  C
  H76      1.0000 0.14880  0.00610  0.20330  Biso   1.000  H
  C128     1.0000 0.11400  0.97100  0.15360  Biso   1.000  C
  H77      1.0000 0.05890  0.92730  0.15920  Biso   1.000  H
  C129     1.0000 0.21400  0.05700  0.11160  Biso   1.000  C
  H78      1.0000 0.22670  0.07440  0.08790  Biso   1.000  H
  C130     1.0000 0.26870  0.10270  0.13760  Biso   1.000  C
  N14      1.0000 0.80667  0.31633  0.45293  Biso   1.000  N
  O27      1.0000 0.10823  0.36466  0.37728  Biso   1.000  O
  O28      1.0000 0.14884  0.44384  0.32999  Biso   1.000  O
  C131     1.0000 0.12047  0.42573  0.35996  Biso   1.000  C
  C132     1.0000 0.09827  0.48483  0.37721  Biso   1.000  C
  C133     1.0000 0.06967  0.47063  0.41128  Biso   1.000  C
  H79      1.0000 0.06017  0.42263  0.42263  Biso   1.000  H
  C134     1.0000 0.06027  0.55773  0.48803  Biso   1.000  C
  H80      1.0000 0.11307  0.60453  0.48223  Biso   1.000  H
  C135     1.0000 0.03407  0.54273  0.52233  Biso   1.000  C
  H81      1.0000 0.06987  0.57853  0.54023  Biso   1.000  H
  C136     1.0000 0.90927  0.42093  0.50533  Biso   1.000  C
  C137     1.0000 0.83247  0.35213  0.51283  Biso   1.000  C
  H82      1.0000 0.81547  0.33943  0.53663  Biso   1.000  H
  C138     1.0000 0.78067  0.30433  0.48693  Biso   1.000  C
  H83      1.0000 0.72557  0.26063  0.49253  Biso   1.000  H
  C139     1.0000 0.88067  0.39033  0.44493  Biso   1.000  C
  H84      1.0000 0.89337  0.40773  0.42123  Biso   1.000  H
  C140     1.0000 0.93537  0.43603  0.47093  Biso   1.000  C
  N15      1.0000 0.47333  0.64967  0.78627  Biso   1.000  N
  O29      1.0000 0.77489  0.69800  0.71062  Biso   1.000  O
  O30      1.0000 0.81550  0.77718  0.66333  Biso   1.000  O
  C141     1.0000 0.78713  0.75907  0.69330  Biso   1.000  C
  C142     1.0000 0.76493  0.81817  0.71055  Biso   1.000  C
  C143     1.0000 0.73633  0.80397  0.74462  Biso   1.000  C
  H85      1.0000 0.72683  0.75597  0.75597  Biso   1.000  H
  C144     1.0000 0.72693  0.89107  0.82137  Biso   1.000  C
  H86      1.0000 0.77973  0.93787  0.81557  Biso   1.000  H
  C145     1.0000 0.70073  0.87607  0.85567  Biso   1.000  C
  H87      1.0000 0.73653  0.91187  0.87357  Biso   1.000  H
  C146     1.0000 0.57593  0.75427  0.83867  Biso   1.000  C
  C147     1.0000 0.49913  0.68547  0.84617  Biso   1.000  C
  H88      1.0000 0.48213  0.67277  0.86997  Biso   1.000  H
  C148     1.0000 0.44733  0.63767  0.82027  Biso   1.000  C
  H89      1.0000 0.39223  0.59397  0.82587  Biso   1.000  H
  C149     1.0000 0.54733  0.72367  0.77827  Biso   1.000  C
  H90      1.0000 0.56003  0.74107  0.75457  Biso   1.000  H
  C150     1.0000 0.60203  0.76937  0.80427  Biso   1.000  C
  N16      1.0000 0.84300  0.86000  0.11960  Biso   1.000  N
  O31      1.0000 0.58977  0.55844  0.04395  Biso   1.000  O
  O32      1.0000 0.62834  0.51783  0.99666  Biso   1.000  O
  C151     1.0000 0.63860  0.54620  0.02663  Biso   1.000  C
  C152     1.0000 0.71990  0.56840  0.04388  Biso   1.000  C
  C153     1.0000 0.73430  0.59700  0.07795  Biso   1.000  C
  H91      1.0000 0.69580  0.60650  0.08930  Biso   1.000  H
  C154     1.0000 0.83080  0.60640  0.15470  Biso   1.000  C
  H92      1.0000 0.82480  0.55360  0.14890  Biso   1.000  H
  C155     1.0000 0.84200  0.63260  0.18900  Biso   1.000  C
  H93      1.0000 0.84200  0.59680  0.20690  Biso   1.000  H
  C156     1.0000 0.84500  0.75740  0.17200  Biso   1.000  C
  C157     1.0000 0.85300  0.83420  0.17950  Biso   1.000  C
  H94      1.0000 0.85730  0.85120  0.20330  Biso   1.000  H
  C158     1.0000 0.85700  0.88600  0.15360  Biso   1.000  C
  H95      1.0000 0.86840  0.94110  0.15920  Biso   1.000  H
  C159     1.0000 0.84300  0.78600  0.11160  Biso   1.000  C
  H96      1.0000 0.84770  0.77330  0.08790  Biso   1.000  H
  C160     1.0000 0.83400  0.73130  0.13760  Biso   1.000  C
  N17      1.0000 0.50967  0.19333  0.45293  Biso   1.000  N
  O33      1.0000 0.25644  0.89177  0.37728  Biso   1.000  O
  O34      1.0000 0.29501  0.85116  0.32999  Biso   1.000  O
  C161     1.0000 0.30527  0.87953  0.35996  Biso   1.000  C
  C162     1.0000 0.38657  0.90173  0.37721  Biso   1.000  C
  C163     1.0000 0.40097  0.93033  0.41128  Biso   1.000  C
  H97      1.0000 0.36247  0.93983  0.42263  Biso   1.000  H
  C164     1.0000 0.49747  0.93973  0.48803  Biso   1.000  C
  H98      1.0000 0.49147  0.88693  0.48223  Biso   1.000  H
  C165     1.0000 0.50867  0.96593  0.52233  Biso   1.000  C
  H99      1.0000 0.50867  0.93013  0.54023  Biso   1.000  H
  C166     1.0000 0.51167  0.09073  0.50533  Biso   1.000  C
  C167     1.0000 0.51967  0.16753  0.51283  Biso   1.000  C
  H100     1.0000 0.52397  0.18453  0.53663  Biso   1.000  H
  C168     1.0000 0.52367  0.21933  0.48693  Biso   1.000  C
  H101     1.0000 0.53507  0.27443  0.49253  Biso   1.000  H
  C169     1.0000 0.50967  0.11933  0.44493  Biso   1.000  C
  H102     1.0000 0.51437  0.10663  0.42123  Biso   1.000  H
  C170     1.0000 0.50067  0.06463  0.47093  Biso   1.000  C
  N18      1.0000 0.17633  0.52667  0.78627  Biso   1.000  N
  O35      1.0000 0.92310  0.22511  0.71062  Biso   1.000  O
  O36      1.0000 0.96167  0.18450  0.66333  Biso   1.000  O
  C171     1.0000 0.97193  0.21287  0.69330  Biso   1.000  C
  C172     1.0000 0.05323  0.23507  0.71055  Biso   1.000  C
  C173     1.0000 0.06763  0.26367  0.74462  Biso   1.000  C
  H103     1.0000 0.02913  0.27317  0.75597  Biso   1.000  H
  C174     1.0000 0.16413  0.27307  0.82137  Biso   1.000  C
  H104     1.0000 0.15813  0.22027  0.81557  Biso   1.000  H
  C175     1.0000 0.17533  0.29927  0.85567  Biso   1.000  C
  H105     1.0000 0.17533  0.26347  0.87357  Biso   1.000  H
  C176     1.0000 0.17833  0.42407  0.83867  Biso   1.000  C
  C177     1.0000 0.18633  0.50087  0.84617  Biso   1.000  C
  H106     1.0000 0.19063  0.51787  0.86997  Biso   1.000  H
  C178     1.0000 0.19033  0.55267  0.82027  Biso   1.000  C
  H107     1.0000 0.20173  0.60777  0.82587  Biso   1.000  H
  C179     1.0000 0.17633  0.45267  0.77827  Biso   1.000  C
  H108     1.0000 0.18103  0.43997  0.75457  Biso   1.000  H
  C180     1.0000 0.16733  0.39797  0.80427  Biso   1.000  C
  N19      1.0000 0.84300  0.98300  0.11960  Biso   1.000  N
  O37      1.0000 0.58977  0.03133  0.04395  Biso   1.000  O
  O38      1.0000 0.62834  0.11051  0.99666  Biso   1.000  O
  C181     1.0000 0.63860  0.09240  0.02663  Biso   1.000  C
  C182     1.0000 0.71990  0.15150  0.04388  Biso   1.000  C
  C183     1.0000 0.73430  0.13730  0.07795  Biso   1.000  C
  H109     1.0000 0.69580  0.08930  0.08930  Biso   1.000  H
  C184     1.0000 0.83080  0.22440  0.15470  Biso   1.000  C
  H110     1.0000 0.82480  0.27120  0.14890  Biso   1.000  H
  C185     1.0000 0.84200  0.20940  0.18900  Biso   1.000  C
  H111     1.0000 0.84200  0.24520  0.20690  Biso   1.000  H
  C186     1.0000 0.84500  0.08760  0.17200  Biso   1.000  C
  C187     1.0000 0.85300  0.01880  0.17950  Biso   1.000  C
  H112     1.0000 0.85730  0.00610  0.20330  Biso   1.000  H
  C188     1.0000 0.85700  0.97100  0.15360  Biso   1.000  C
  H113     1.0000 0.86840  0.92730  0.15920  Biso   1.000  H
  C189     1.0000 0.84300  0.05700  0.11160  Biso   1.000  C
  H114     1.0000 0.84770  0.07440  0.08790  Biso   1.000  H
  C190     1.0000 0.83400  0.10270  0.13760  Biso   1.000  C
  N20      1.0000 0.50967  0.31633  0.45293  Biso   1.000  N
  O39      1.0000 0.25644  0.36466  0.37728  Biso   1.000  O
  O40      1.0000 0.29501  0.44384  0.32999  Biso   1.000  O
  C191     1.0000 0.30527  0.42573  0.35996  Biso   1.000  C
  C192     1.0000 0.38657  0.48483  0.37721  Biso   1.000  C
  C193     1.0000 0.40097  0.47063  0.41128  Biso   1.000  C
  H115     1.0000 0.36247  0.42263  0.42263  Biso   1.000  H
  C194     1.0000 0.49747  0.55773  0.48803  Biso   1.000  C
  H116     1.0000 0.49147  0.60453  0.48223  Biso   1.000  H
  C195     1.0000 0.50867  0.54273  0.52233  Biso   1.000  C
  H117     1.0000 0.50867  0.57853  0.54023  Biso   1.000  H
  C196     1.0000 0.51167  0.42093  0.50533  Biso   1.000  C
  C197     1.0000 0.51967  0.35213  0.51283  Biso   1.000  C
  H118     1.0000 0.52397  0.33943  0.53663  Biso   1.000  H
  C198     1.0000 0.52367  0.30433  0.48693  Biso   1.000  C
  H119     1.0000 0.53507  0.26063  0.49253  Biso   1.000  H
  C199     1.0000 0.50967  0.39033  0.44493  Biso   1.000  C
  H120     1.0000 0.51437  0.40773  0.42123  Biso   1.000  H
  C200     1.0000 0.50067  0.43603  0.47093  Biso   1.000  C
  N21      1.0000 0.17633  0.64967  0.78627  Biso   1.000  N
  O41      1.0000 0.92310  0.69800  0.71062  Biso   1.000  O
  O42      1.0000 0.96167  0.77718  0.66333  Biso   1.000  O
  C201     1.0000 0.97193  0.75907  0.69330  Biso   1.000  C
  C202     1.0000 0.05323  0.81817  0.71055  Biso   1.000  C
  C203     1.0000 0.06763  0.80397  0.74462  Biso   1.000  C
  H121     1.0000 0.02913  0.75597  0.75597  Biso   1.000  H
  C204     1.0000 0.16413  0.89107  0.82137  Biso   1.000  C
  H122     1.0000 0.15813  0.93787  0.81557  Biso   1.000  H
  C205     1.0000 0.17533  0.87607  0.85567  Biso   1.000  C
  H123     1.0000 0.17533  0.91187  0.87357  Biso   1.000  H
  C206     1.0000 0.17833  0.75427  0.83867  Biso   1.000  C
  C207     1.0000 0.18633  0.68547  0.84617  Biso   1.000  C
  H124     1.0000 0.19063  0.67277  0.86997  Biso   1.000  H
  C208     1.0000 0.19033  0.63767  0.82027  Biso   1.000  C
  H125     1.0000 0.20173  0.59397  0.82587  Biso   1.000  H
  C209     1.0000 0.17633  0.72367  0.77827  Biso   1.000  C
  H126     1.0000 0.18103  0.74107  0.75457  Biso   1.000  H
  C210     1.0000 0.16733  0.76937  0.80427  Biso   1.000  C
  N22      1.0000 0.01700  0.86000  0.11960  Biso   1.000  N
  O43      1.0000 0.96867  0.55844  0.04395  Biso   1.000  O
  O44      1.0000 0.88949  0.51783  0.99666  Biso   1.000  O
  C211     1.0000 0.90760  0.54620  0.02663  Biso   1.000  C
  C212     1.0000 0.84850  0.56840  0.04388  Biso   1.000  C
  C213     1.0000 0.86270  0.59700  0.07795  Biso   1.000  C
  H127     1.0000 0.91070  0.60650  0.08930  Biso   1.000  H
  C214     1.0000 0.77560  0.60640  0.15470  Biso   1.000  C
  H128     1.0000 0.72880  0.55360  0.14890  Biso   1.000  H
  C215     1.0000 0.79060  0.63260  0.18900  Biso   1.000  C
  H129     1.0000 0.75480  0.59680  0.20690  Biso   1.000  H
  C216     1.0000 0.91240  0.75740  0.17200  Biso   1.000  C
  C217     1.0000 0.98120  0.83420  0.17950  Biso   1.000  C
  H130     1.0000 0.99390  0.85120  0.20330  Biso   1.000  H
  C218     1.0000 0.02900  0.88600  0.15360  Biso   1.000  C
  H131     1.0000 0.07270  0.94110  0.15920  Biso   1.000  H
  C219     1.0000 0.94300  0.78600  0.11160  Biso   1.000  C
  H132     1.0000 0.92560  0.77330  0.08790  Biso   1.000  H
  C220     1.0000 0.89730  0.73130  0.13760  Biso   1.000  C
  N23      1.0000 0.68367  0.19333  0.45293  Biso   1.000  N
  O45      1.0000 0.63534  0.89177  0.37728  Biso   1.000  O
  O46      1.0000 0.55616  0.85116  0.32999  Biso   1.000  O
  C221     1.0000 0.57427  0.87953  0.35996  Biso   1.000  C
  C222     1.0000 0.51517  0.90173  0.37721  Biso   1.000  C
  C223     1.0000 0.52937  0.93033  0.41128  Biso   1.000  C
  H133     1.0000 0.57737  0.93983  0.42263  Biso   1.000  H
  C224     1.0000 0.44227  0.93973  0.48803  Biso   1.000  C
  H134     1.0000 0.39547  0.88693  0.48223  Biso   1.000  H
  C225     1.0000 0.45727  0.96593  0.52233  Biso   1.000  C
  H135     1.0000 0.42147  0.93013  0.54023  Biso   1.000  H
  C226     1.0000 0.57907  0.09073  0.50533  Biso   1.000  C
  C227     1.0000 0.64787  0.16753  0.51283  Biso   1.000  C
  H136     1.0000 0.66057  0.18453  0.53663  Biso   1.000  H
  C228     1.0000 0.69567  0.21933  0.48693  Biso   1.000  C
  H137     1.0000 0.73937  0.27443  0.49253  Biso   1.000  H
  C229     1.0000 0.60967  0.11933  0.44493  Biso   1.000  C
  H138     1.0000 0.59227  0.10663  0.42123  Biso   1.000  H
  C230     1.0000 0.56397  0.06463  0.47093  Biso   1.000  C
  N24      1.0000 0.35033  0.52667  0.78627  Biso   1.000  N
  O47      1.0000 0.30200  0.22511  0.71062  Biso   1.000  O
  O48      1.0000 0.22282  0.18450  0.66333  Biso   1.000  O
  C231     1.0000 0.24093  0.21287  0.69330  Biso   1.000  C
  C232     1.0000 0.18183  0.23507  0.71055  Biso   1.000  C
  C233     1.0000 0.19603  0.26367  0.74462  Biso   1.000  C
  H139     1.0000 0.24403  0.27317  0.75597  Biso   1.000  H
  C234     1.0000 0.10893  0.27307  0.82137  Biso   1.000  C
  H140     1.0000 0.06213  0.22027  0.81557  Biso   1.000  H
  C235     1.0000 0.12393  0.29927  0.85567  Biso   1.000  C
  H141     1.0000 0.08813  0.26347  0.87357  Biso   1.000  H
  C236     1.0000 0.24573  0.42407  0.83867  Biso   1.000  C
  C237     1.0000 0.31453  0.50087  0.84617  Biso   1.000  C
  H142     1.0000 0.32723  0.51787  0.86997  Biso   1.000  H
  C238     1.0000 0.36233  0.55267  0.82027  Biso   1.000  C
  H143     1.0000 0.40603  0.60777  0.82587  Biso   1.000  H
  C239     1.0000 0.27633  0.45267  0.77827  Biso   1.000  C
  H144     1.0000 0.25893  0.43997  0.75457  Biso   1.000  H
  C240     1.0000 0.23063  0.39797  0.80427  Biso   1.000  C
  N25      1.0000 0.14000  0.15700  0.11960  Biso   1.000  N
  O49      1.0000 0.44156  0.41023  0.04395  Biso   1.000  O
  O50      1.0000 0.48217  0.37166  0.99666  Biso   1.000  O
  C241     1.0000 0.45380  0.36140  0.02663  Biso   1.000  C
  C242     1.0000 0.43160  0.28010  0.04388  Biso   1.000  C
  C243     1.0000 0.40300  0.26570  0.07795  Biso   1.000  C
  H145     1.0000 0.39350  0.30420  0.08930  Biso   1.000  H
  C244     1.0000 0.39360  0.16920  0.15470  Biso   1.000  C
  H146     1.0000 0.44640  0.17520  0.14890  Biso   1.000  H
  C245     1.0000 0.36740  0.15800  0.18900  Biso   1.000  C
  H147     1.0000 0.40320  0.15800  0.20690  Biso   1.000  H
  C246     1.0000 0.24260  0.15500  0.17200  Biso   1.000  C
  C247     1.0000 0.16580  0.14700  0.17950  Biso   1.000  C
  H148     1.0000 0.14880  0.14270  0.20330  Biso   1.000  H
  C248     1.0000 0.11400  0.14300  0.15360  Biso   1.000  C
  H149     1.0000 0.05890  0.13160  0.15920  Biso   1.000  H
  C249     1.0000 0.21400  0.15700  0.11160  Biso   1.000  C
  H150     1.0000 0.22670  0.15230  0.08790  Biso   1.000  H
  C250     1.0000 0.26870  0.16600  0.13760  Biso   1.000  C
  N26      1.0000 0.80667  0.49033  0.45293  Biso   1.000  N
  O51      1.0000 0.10823  0.74356  0.37728  Biso   1.000  O
  O52      1.0000 0.14884  0.70499  0.32999  Biso   1.000  O
  C251     1.0000 0.12047  0.69473  0.35996  Biso   1.000  C
  C252     1.0000 0.09827  0.61343  0.37721  Biso   1.000  C
  C253     1.0000 0.06967  0.59903  0.41128  Biso   1.000  C
  H151     1.0000 0.06017  0.63753  0.42263  Biso   1.000  H
  C254     1.0000 0.06027  0.50253  0.48803  Biso   1.000  C
  H152     1.0000 0.11307  0.50853  0.48223  Biso   1.000  H
  C255     1.0000 0.03407  0.49133  0.52233  Biso   1.000  C
  H153     1.0000 0.06987  0.49133  0.54023  Biso   1.000  H
  C256     1.0000 0.90927  0.48833  0.50533  Biso   1.000  C
  C257     1.0000 0.83247  0.48033  0.51283  Biso   1.000  C
  H154     1.0000 0.81547  0.47603  0.53663  Biso   1.000  H
  C258     1.0000 0.78067  0.47633  0.48693  Biso   1.000  C
  H155     1.0000 0.72557  0.46493  0.49253  Biso   1.000  H
  C259     1.0000 0.88067  0.49033  0.44493  Biso   1.000  C
  H156     1.0000 0.89337  0.48563  0.42123  Biso   1.000  H
  C260     1.0000 0.93537  0.49933  0.47093  Biso   1.000  C
  N27      1.0000 0.47333  0.82367  0.78627  Biso   1.000  N
  O53      1.0000 0.77489  0.07690  0.71062  Biso   1.000  O
  O54      1.0000 0.81550  0.03833  0.66333  Biso   1.000  O
  C261     1.0000 0.78713  0.02807  0.69330  Biso   1.000  C
  C262     1.0000 0.76493  0.94677  0.71055  Biso   1.000  C
  C263     1.0000 0.73633  0.93237  0.74462  Biso   1.000  C
  H157     1.0000 0.72683  0.97087  0.75597  Biso   1.000  H
  C264     1.0000 0.72693  0.83587  0.82137  Biso   1.000  C
  H158     1.0000 0.77973  0.84187  0.81557  Biso   1.000  H
  C265     1.0000 0.70073  0.82467  0.85567  Biso   1.000  C
  H159     1.0000 0.73653  0.82467  0.87357  Biso   1.000  H
  C266     1.0000 0.57593  0.82167  0.83867  Biso   1.000  C
  C267     1.0000 0.49913  0.81367  0.84617  Biso   1.000  C
  H160     1.0000 0.48213  0.80937  0.86997  Biso   1.000  H
  C268     1.0000 0.44733  0.80967  0.82027  Biso   1.000  C
  H161     1.0000 0.39223  0.79827  0.82587  Biso   1.000  H
  C269     1.0000 0.54733  0.82367  0.77827  Biso   1.000  C
  H162     1.0000 0.56003  0.81897  0.75457  Biso   1.000  H
  C270     1.0000 0.60203  0.83267  0.80427  Biso   1.000  C
  N28      1.0000 0.98300  0.84300  0.88040  Biso   1.000  N
  O55      1.0000 0.03133  0.58977  0.95605  Biso   1.000  O
  O56      1.0000 0.11051  0.62834  0.00334  Biso   1.000  O
  C271     1.0000 0.09240  0.63860  0.97337  Biso   1.000  C
  C272     1.0000 0.15150  0.71990  0.95612  Biso   1.000  C
  C273     1.0000 0.13730  0.73430  0.92205  Biso   1.000  C
  H163     1.0000 0.08930  0.69580  0.91070  Biso   1.000  H
  C274     1.0000 0.22440  0.83080  0.84530  Biso   1.000  C
  H164     1.0000 0.27120  0.82480  0.85110  Biso   1.000  H
  C275     1.0000 0.20940  0.84200  0.81100  Biso   1.000  C
  H165     1.0000 0.24520  0.84200  0.79310  Biso   1.000  H
  C276     1.0000 0.08760  0.84500  0.82800  Biso   1.000  C
  C277     1.0000 0.01880  0.85300  0.82050  Biso   1.000  C
  H166     1.0000 0.00610  0.85730  0.79670  Biso   1.000  H
  C278     1.0000 0.97100  0.85700  0.84640  Biso   1.000  C
  H167     1.0000 0.92730  0.86840  0.84080  Biso   1.000  H
  C279     1.0000 0.05700  0.84300  0.88840  Biso   1.000  C
  H168     1.0000 0.07440  0.84770  0.91210  Biso   1.000  H
  C280     1.0000 0.10270  0.83400  0.86240  Biso   1.000  C
  N29      1.0000 0.64967  0.17633  0.21373  Biso   1.000  N
  O57      1.0000 0.69800  0.92310  0.28938  Biso   1.000  O
  O58      1.0000 0.77718  0.96167  0.33667  Biso   1.000  O
  C281     1.0000 0.75907  0.97193  0.30670  Biso   1.000  C
  C282     1.0000 0.81817  0.05323  0.28945  Biso   1.000  C
  C283     1.0000 0.80397  0.06763  0.25538  Biso   1.000  C
  H169     1.0000 0.75597  0.02913  0.24403  Biso   1.000  H
  C284     1.0000 0.89107  0.16413  0.17863  Biso   1.000  C
  H170     1.0000 0.93787  0.15813  0.18443  Biso   1.000  H
  C285     1.0000 0.87607  0.17533  0.14433  Biso   1.000  C
  H171     1.0000 0.91187  0.17533  0.12643  Biso   1.000  H
  C286     1.0000 0.75427  0.17833  0.16133  Biso   1.000  C
  C287     1.0000 0.68547  0.18633  0.15383  Biso   1.000  C
  H172     1.0000 0.67277  0.19063  0.13003  Biso   1.000  H
  C288     1.0000 0.63767  0.19033  0.17973  Biso   1.000  C
  H173     1.0000 0.59397  0.20173  0.17413  Biso   1.000  H
  C289     1.0000 0.72367  0.17633  0.22173  Biso   1.000  C
  H174     1.0000 0.74107  0.18103  0.24543  Biso   1.000  H
  C290     1.0000 0.76937  0.16733  0.19573  Biso   1.000  C
  N30      1.0000 0.31633  0.50967  0.54707  Biso   1.000  N
  O59      1.0000 0.36466  0.25644  0.62272  Biso   1.000  O
  O60      1.0000 0.44384  0.29501  0.67001  Biso   1.000  O
  C291     1.0000 0.42573  0.30527  0.64004  Biso   1.000  C
  C292     1.0000 0.48483  0.38657  0.62279  Biso   1.000  C
  C293     1.0000 0.47063  0.40097  0.58872  Biso   1.000  C
  H175     1.0000 0.42263  0.36247  0.57737  Biso   1.000  H
  C294     1.0000 0.55773  0.49747  0.51197  Biso   1.000  C
  H176     1.0000 0.60453  0.49147  0.51777  Biso   1.000  H
  C295     1.0000 0.54273  0.50867  0.47767  Biso   1.000  C
  H177     1.0000 0.57853  0.50867  0.45977  Biso   1.000  H
  C296     1.0000 0.42093  0.51167  0.49467  Biso   1.000  C
  C297     1.0000 0.35213  0.51967  0.48717  Biso   1.000  C
  H178     1.0000 0.33943  0.52397  0.46337  Biso   1.000  H
  C298     1.0000 0.30433  0.52367  0.51307  Biso   1.000  C
  H179     1.0000 0.26063  0.53507  0.50747  Biso   1.000  H
  C299     1.0000 0.39033  0.50967  0.55507  Biso   1.000  C
  H180     1.0000 0.40773  0.51437  0.57877  Biso   1.000  H
  C300     1.0000 0.43603  0.50067  0.52907  Biso   1.000  C
  N31      1.0000 0.86000  0.01700  0.88040  Biso   1.000  N
  O61      1.0000 0.55844  0.96867  0.95605  Biso   1.000  O
  O62      1.0000 0.51783  0.88949  0.00334  Biso   1.000  O
  C301     1.0000 0.54620  0.90760  0.97337  Biso   1.000  C
  C302     1.0000 0.56840  0.84850  0.95612  Biso   1.000  C
  C303     1.0000 0.59700  0.86270  0.92205  Biso   1.000  C
  H181     1.0000 0.60650  0.91070  0.91070  Biso   1.000  H
  C304     1.0000 0.60640  0.77560  0.84530  Biso   1.000  C
  H182     1.0000 0.55360  0.72880  0.85110  Biso   1.000  H
  C305     1.0000 0.63260  0.79060  0.81100  Biso   1.000  C
  H183     1.0000 0.59680  0.75480  0.79310  Biso   1.000  H
  C306     1.0000 0.75740  0.91240  0.82800  Biso   1.000  C
  C307     1.0000 0.83420  0.98120  0.82050  Biso   1.000  C
  H184     1.0000 0.85120  0.99390  0.79670  Biso   1.000  H
  C308     1.0000 0.88600  0.02900  0.84640  Biso   1.000  C
  H185     1.0000 0.94110  0.07270  0.84080  Biso   1.000  H
  C309     1.0000 0.78600  0.94300  0.88840  Biso   1.000  C
  H186     1.0000 0.77330  0.92560  0.91210  Biso   1.000  H
  C310     1.0000 0.73130  0.89730  0.86240  Biso   1.000  C
  N32      1.0000 0.52667  0.35033  0.21373  Biso   1.000  N
  O63      1.0000 0.22511  0.30200  0.28938  Biso   1.000  O
  O64      1.0000 0.18450  0.22282  0.33667  Biso   1.000  O
  C311     1.0000 0.21287  0.24093  0.30670  Biso   1.000  C
  C312     1.0000 0.23507  0.18183  0.28945  Biso   1.000  C
  C313     1.0000 0.26367  0.19603  0.25538  Biso   1.000  C
  H187     1.0000 0.27317  0.24403  0.24403  Biso   1.000  H
  C314     1.0000 0.27307  0.10893  0.17863  Biso   1.000  C
  H188     1.0000 0.22027  0.06213  0.18443  Biso   1.000  H
  C315     1.0000 0.29927  0.12393  0.14433  Biso   1.000  C
  H189     1.0000 0.26347  0.08813  0.12643  Biso   1.000  H
  C316     1.0000 0.42407  0.24573  0.16133  Biso   1.000  C
  C317     1.0000 0.50087  0.31453  0.15383  Biso   1.000  C
  H190     1.0000 0.51787  0.32723  0.13003  Biso   1.000  H
  C318     1.0000 0.55267  0.36233  0.17973  Biso   1.000  C
  H191     1.0000 0.60777  0.40603  0.17413  Biso   1.000  H
  C319     1.0000 0.45267  0.27633  0.22173  Biso   1.000  C
  H192     1.0000 0.43997  0.25893  0.24543  Biso   1.000  H
  C320     1.0000 0.39797  0.23063  0.19573  Biso   1.000  C
  N33      1.0000 0.19333  0.68367  0.54707  Biso   1.000  N
  O65      1.0000 0.89177  0.63534  0.62272  Biso   1.000  O
  O66      1.0000 0.85116  0.55616  0.67001  Biso   1.000  O
  C321     1.0000 0.87953  0.57427  0.64004  Biso   1.000  C
  C322     1.0000 0.90173  0.51517  0.62279  Biso   1.000  C
  C323     1.0000 0.93033  0.52937  0.58872  Biso   1.000  C
  H193     1.0000 0.93983  0.57737  0.57737  Biso   1.000  H
  C324     1.0000 0.93973  0.44227  0.51197  Biso   1.000  C
  H194     1.0000 0.88693  0.39547  0.51777  Biso   1.000  H
  C325     1.0000 0.96593  0.45727  0.47767  Biso   1.000  C
  H195     1.0000 0.93013  0.42147  0.45977  Biso   1.000  H
  C326     1.0000 0.09073  0.57907  0.49467  Biso   1.000  C
  C327     1.0000 0.16753  0.64787  0.48717  Biso   1.000  C
  H196     1.0000 0.18453  0.66057  0.46337  Biso   1.000  H
  C328     1.0000 0.21933  0.69567  0.51307  Biso   1.000  C
  H197     1.0000 0.27443  0.73937  0.50747  Biso   1.000  H
  C329     1.0000 0.11933  0.60967  0.55507  Biso   1.000  C
  H198     1.0000 0.10663  0.59227  0.57877  Biso   1.000  H
  C330     1.0000 0.06463  0.56397  0.52907  Biso   1.000  C
  N34      1.0000 0.15700  0.14000  0.88040  Biso   1.000  N
  O67      1.0000 0.41023  0.44156  0.95605  Biso   1.000  O
  O68      1.0000 0.37166  0.48217  0.00334  Biso   1.000  O
  C331     1.0000 0.36140  0.45380  0.97337  Biso   1.000  C
  C332     1.0000 0.28010  0.43160  0.95612  Biso   1.000  C
  C333     1.0000 0.26570  0.40300  0.92205  Biso   1.000  C
  H199     1.0000 0.30420  0.39350  0.91070  Biso   1.000  H
  C334     1.0000 0.16920  0.39360  0.84530  Biso   1.000  C
  H200     1.0000 0.17520  0.44640  0.85110  Biso   1.000  H
  C335     1.0000 0.15800  0.36740  0.81100  Biso   1.000  C
  H201     1.0000 0.15800  0.40320  0.79310  Biso   1.000  H
  C336     1.0000 0.15500  0.24260  0.82800  Biso   1.000  C
  C337     1.0000 0.14700  0.16580  0.82050  Biso   1.000  C
  H202     1.0000 0.14270  0.14880  0.79670  Biso   1.000  H
  C338     1.0000 0.14300  0.11400  0.84640  Biso   1.000  C
  H203     1.0000 0.13160  0.05890  0.84080  Biso   1.000  H
  C339     1.0000 0.15700  0.21400  0.88840  Biso   1.000  C
  H204     1.0000 0.15230  0.22670  0.91210  Biso   1.000  H
  C340     1.0000 0.16600  0.26870  0.86240  Biso   1.000  C
  N35      1.0000 0.82367  0.47333  0.21373  Biso   1.000  N
  O69      1.0000 0.07690  0.77489  0.28938  Biso   1.000  O
  O70      1.0000 0.03833  0.81550  0.33667  Biso   1.000  O
  C341     1.0000 0.02807  0.78713  0.30670  Biso   1.000  C
  C342     1.0000 0.94677  0.76493  0.28945  Biso   1.000  C
  C343     1.0000 0.93237  0.73633  0.25538  Biso   1.000  C
  H205     1.0000 0.97087  0.72683  0.24403  Biso   1.000  H
  C344     1.0000 0.83587  0.72693  0.17863  Biso   1.000  C
  H206     1.0000 0.84187  0.77973  0.18443  Biso   1.000  H
  C345     1.0000 0.82467  0.70073  0.14433  Biso   1.000  C
  H207     1.0000 0.82467  0.73653  0.12643  Biso   1.000  H
  C346     1.0000 0.82167  0.57593  0.16133  Biso   1.000  C
  C347     1.0000 0.81367  0.49913  0.15383  Biso   1.000  C
  H208     1.0000 0.80937  0.48213  0.13003  Biso   1.000  H
  C348     1.0000 0.80967  0.44733  0.17973  Biso   1.000  C
  H209     1.0000 0.79827  0.39223  0.17413  Biso   1.000  H
  C349     1.0000 0.82367  0.54733  0.22173  Biso   1.000  C
  H210     1.0000 0.81897  0.56003  0.24543  Biso   1.000  H
  C350     1.0000 0.83267  0.60203  0.19573  Biso   1.000  C
  N36      1.0000 0.49033  0.80667  0.54707  Biso   1.000  N
  O71      1.0000 0.74356  0.10823  0.62272  Biso   1.000  O
  O72      1.0000 0.70499  0.14884  0.67001  Biso   1.000  O
  C351     1.0000 0.69473  0.12047  0.64004  Biso   1.000  C
  C352     1.0000 0.61343  0.09827  0.62279  Biso   1.000  C
  C353     1.0000 0.59903  0.06967  0.58872  Biso   1.000  C
  H211     1.0000 0.63753  0.06017  0.57737  Biso   1.000  H
  C354     1.0000 0.50253  0.06027  0.51197  Biso   1.000  C
  H212     1.0000 0.50853  0.11307  0.51777  Biso   1.000  H
  C355     1.0000 0.49133  0.03407  0.47767  Biso   1.000  C
  H213     1.0000 0.49133  0.06987  0.45977  Biso   1.000  H
  C356     1.0000 0.48833  0.90927  0.49467  Biso   1.000  C
  C357     1.0000 0.48033  0.83247  0.48717  Biso   1.000  C
  H214     1.0000 0.47603  0.81547  0.46337  Biso   1.000  H
  C358     1.0000 0.47633  0.78067  0.51307  Biso   1.000  C
  H215     1.0000 0.46493  0.72557  0.50747  Biso   1.000  H
  C359     1.0000 0.49033  0.88067  0.55507  Biso   1.000  C
  H216     1.0000 0.48563  0.89337  0.57877  Biso   1.000  H
  C360     1.0000 0.49933  0.93537  0.52907  Biso   1.000  C
  Cu1      1.0000 0.47653  0.95306  0.02825  Biso   1.000  Cu
  Cu2      1.0000 0.14320  0.28639  0.36159  Biso   1.000  Cu
  Cu3      1.0000 0.80986  0.61973  0.69492  Biso   1.000  Cu
  Cu4      1.0000 0.04694  0.52347  0.02825  Biso   1.000  Cu
  Cu5      1.0000 0.71361  0.85680  0.36159  Biso   1.000  Cu
  Cu6      1.0000 0.38027  0.19014  0.69492  Biso   1.000  Cu
  Cu7      1.0000 0.47653  0.52347  0.02825  Biso   1.000  Cu
  Cu8      1.0000 0.14320  0.85680  0.36159  Biso   1.000  Cu
  Cu9      1.0000 0.80986  0.19014  0.69492  Biso   1.000  Cu
  Cu10     1.0000 0.95306  0.47653  0.97175  Biso   1.000  Cu
  Cu11     1.0000 0.61973  0.80986  0.30508  Biso   1.000  Cu
  Cu12     1.0000 0.28639  0.14320  0.63841  Biso   1.000  Cu
  Cu13     1.0000 0.52347  0.04694  0.97175  Biso   1.000  Cu
  Cu14     1.0000 0.19014  0.38027  0.30508  Biso   1.000  Cu
  Cu15     1.0000 0.85680  0.71361  0.63841  Biso   1.000  Cu
  Cu16     1.0000 0.52347  0.47653  0.97175  Biso   1.000  Cu
  Cu17     1.0000 0.19014  0.80986  0.30508  Biso   1.000  Cu
  Cu18     1.0000 0.85680  0.14320  0.63841  Biso   1.000  Cu
  C361     1.0000 0.22298  0.77702  0.97315  Biso   1.000  C
  H217     1.0000 0.23250  0.76750  0.99590  Biso   1.000  H
  C362     1.0000 0.19450  0.80550  0.90490  Biso   1.000  C
  C363     1.0000 0.17170  0.82830  0.87110  Biso   1.000  C
  C364     1.0000 0.14560  0.85440  0.80240  Biso   1.000  C
  C365     1.0000 0.88965  0.11035  0.30648  Biso   1.000  C
  H218     1.0000 0.89917  0.10083  0.32923  Biso   1.000  H
  C366     1.0000 0.86117  0.13883  0.23823  Biso   1.000  C
  C367     1.0000 0.83837  0.16163  0.20443  Biso   1.000  C
  C368     1.0000 0.81227  0.18773  0.13573  Biso   1.000  C
  C369     1.0000 0.55631  0.44369  0.63982  Biso   1.000  C
  H219     1.0000 0.56583  0.43417  0.66257  Biso   1.000  H
  C370     1.0000 0.52783  0.47217  0.57157  Biso   1.000  C
  C371     1.0000 0.50503  0.49497  0.53777  Biso   1.000  C
  C372     1.0000 0.47893  0.52107  0.46907  Biso   1.000  C
  C373     1.0000 0.22298  0.44596  0.97315  Biso   1.000  C
  H220     1.0000 0.23250  0.46500  0.99590  Biso   1.000  H
  C374     1.0000 0.19450  0.38900  0.90490  Biso   1.000  C
  C375     1.0000 0.17170  0.34340  0.87110  Biso   1.000  C
  C376     1.0000 0.14560  0.29120  0.80240  Biso   1.000  C
  C377     1.0000 0.88965  0.77929  0.30648  Biso   1.000  C
  H221     1.0000 0.89917  0.79833  0.32923  Biso   1.000  H
  C378     1.0000 0.86117  0.72233  0.23823  Biso   1.000  C
  C379     1.0000 0.83837  0.67673  0.20443  Biso   1.000  C
  C380     1.0000 0.81227  0.62453  0.13573  Biso   1.000  C
  C381     1.0000 0.55631  0.11263  0.63982  Biso   1.000  C
  H222     1.0000 0.56583  0.13167  0.66257  Biso   1.000  H
  C382     1.0000 0.52783  0.05567  0.57157  Biso   1.000  C
  C383     1.0000 0.50503  0.01007  0.53777  Biso   1.000  C
  C384     1.0000 0.47893  0.95787  0.46907  Biso   1.000  C
  C385     1.0000 0.55404  0.77702  0.97315  Biso   1.000  C
  H223     1.0000 0.53500  0.76750  0.99590  Biso   1.000  H
  C386     1.0000 0.61100  0.80550  0.90490  Biso   1.000  C
  C387     1.0000 0.65660  0.82830  0.87110  Biso   1.000  C
  C388     1.0000 0.70880  0.85440  0.80240  Biso   1.000  C
  C389     1.0000 0.22071  0.11035  0.30648  Biso   1.000  C
  H224     1.0000 0.20167  0.10083  0.32923  Biso   1.000  H
  C390     1.0000 0.27767  0.13883  0.23823  Biso   1.000  C
  C391     1.0000 0.32327  0.16163  0.20443  Biso   1.000  C
  C392     1.0000 0.37547  0.18773  0.13573  Biso   1.000  C
  C393     1.0000 0.88737  0.44369  0.63982  Biso   1.000  C
  H225     1.0000 0.86833  0.43417  0.66257  Biso   1.000  H
  C394     1.0000 0.94433  0.47217  0.57157  Biso   1.000  C
  C395     1.0000 0.98993  0.49497  0.53777  Biso   1.000  C
  C396     1.0000 0.04213  0.52107  0.46907  Biso   1.000  C
  C397     1.0000 0.77702  0.22298  0.02685  Biso   1.000  C
  H226     1.0000 0.76750  0.23250  0.00410  Biso   1.000  H
  C398     1.0000 0.80550  0.19450  0.09510  Biso   1.000  C
  C399     1.0000 0.82830  0.17170  0.12890  Biso   1.000  C
  C400     1.0000 0.85440  0.14560  0.19760  Biso   1.000  C
  C401     1.0000 0.44369  0.55631  0.36018  Biso   1.000  C
  H227     1.0000 0.43417  0.56583  0.33743  Biso   1.000  H
  C402     1.0000 0.47217  0.52783  0.42843  Biso   1.000  C
  C403     1.0000 0.49497  0.50503  0.46223  Biso   1.000  C
  C404     1.0000 0.52107  0.47893  0.53093  Biso   1.000  C
  C405     1.0000 0.11035  0.88965  0.69352  Biso   1.000  C
  H228     1.0000 0.10083  0.89917  0.67077  Biso   1.000  H
  C406     1.0000 0.13883  0.86117  0.76177  Biso   1.000  C
  C407     1.0000 0.16163  0.83837  0.79557  Biso   1.000  C
  C408     1.0000 0.18773  0.81227  0.86427  Biso   1.000  C
  C409     1.0000 0.44596  0.22298  0.02685  Biso   1.000  C
  H229     1.0000 0.46500  0.23250  0.00410  Biso   1.000  H
  C410     1.0000 0.38900  0.19450  0.09510  Biso   1.000  C
  C411     1.0000 0.34340  0.17170  0.12890  Biso   1.000  C
  C412     1.0000 0.29120  0.14560  0.19760  Biso   1.000  C
  C413     1.0000 0.11263  0.55631  0.36018  Biso   1.000  C
  H230     1.0000 0.13167  0.56583  0.33743  Biso   1.000  H
  C414     1.0000 0.05567  0.52783  0.42843  Biso   1.000  C
  C415     1.0000 0.01007  0.50503  0.46223  Biso   1.000  C
  C416     1.0000 0.95787  0.47893  0.53093  Biso   1.000  C
  C417     1.0000 0.77929  0.88965  0.69352  Biso   1.000  C
  H231     1.0000 0.79833  0.89917  0.67077  Biso   1.000  H
  C418     1.0000 0.72233  0.86117  0.76177  Biso   1.000  C
  C419     1.0000 0.67673  0.83837  0.79557  Biso   1.000  C
  C420     1.0000 0.62453  0.81227  0.86427  Biso   1.000  C
  C421     1.0000 0.77702  0.55404  0.02685  Biso   1.000  C
  H232     1.0000 0.76750  0.53500  0.00410  Biso   1.000  H
  C422     1.0000 0.80550  0.61100  0.09510  Biso   1.000  C
  C423     1.0000 0.82830  0.65660  0.12890  Biso   1.000  C
  C424     1.0000 0.85440  0.70880  0.19760  Biso   1.000  C
  C425     1.0000 0.44369  0.88737  0.36018  Biso   1.000  C
  H233     1.0000 0.43417  0.86833  0.33743  Biso   1.000  H
  C426     1.0000 0.47217  0.94433  0.42843  Biso   1.000  C
  C427     1.0000 0.49497  0.98993  0.46223  Biso   1.000  C
  C428     1.0000 0.52107  0.04213  0.53093  Biso   1.000  C
  C429     1.0000 0.11035  0.22071  0.69352  Biso   1.000  C
  H234     1.0000 0.10083  0.20167  0.67077  Biso   1.000  H
  C430     1.0000 0.13883  0.27767  0.76177  Biso   1.000  C
  C431     1.0000 0.16163  0.32327  0.79557  Biso   1.000  C
  C432     1.0000 0.18773  0.37547  0.86427  Biso   1.000  C
