data_image0
_cell_length_a       18.5565
_cell_length_b       18.5565
_cell_length_c       38.6189
_cell_angle_alpha    90
_cell_angle_beta     90
_cell_angle_gamma    120

_symmetry_space_group_name_H-M    "P 1"
_symmetry_int_tables_number       1

loop_
  _symmetry_equiv_pos_as_xyz
  'x, y, z'

loop_
  _atom_site_label
  _atom_site_occupancy
  _atom_site_fract_x
  _atom_site_fract_y
  _atom_site_fract_z
  _atom_site_thermal_displace_type
  _atom_site_B_iso_or_equiv
  _atom_site_type_symbol
  C1       1.0000 0.57431  0.69380  0.36021  Biso   1.000  C
  C2       1.0000 0.51571  0.61380  0.37723  Biso   1.000  C
  N1       1.0000 0.50320  0.34230  0.51500  Biso   1.000  N
  N2       1.0000 0.49020  0.37840  0.44470  Biso   1.000  N
  O1       1.0000 0.55563  0.70431  0.33008  Biso   1.000  O
  O2       1.0000 0.63666  0.74507  0.37744  Biso   1.000  O
  C3       1.0000 0.52960  0.59870  0.41118  Biso   1.000  C
  H1       1.0000 0.57810  0.63690  0.42250  Biso   1.000  H
  C4       1.0000 0.50910  0.56090  0.48580  Biso   1.000  C
  H2       1.0000 0.51030  0.61150  0.47950  Biso   1.000  H
  C5       1.0000 0.52100  0.54790  0.52050  Biso   1.000  C
  H3       1.0000 0.52670  0.58800  0.53770  Biso   1.000  H
  C6       1.0000 0.50190  0.41520  0.50550  Biso   1.000  C
  C7       1.0000 0.49240  0.43220  0.47100  Biso   1.000  C
  C8       1.0000 0.48500  0.28320  0.48920  Biso   1.000  C
  H4       1.0000 0.47010  0.22730  0.49530  Biso   1.000  H
  C9       1.0000 0.48920  0.30690  0.45440  Biso   1.000  C
  H5       1.0000 0.49150  0.27180  0.43670  Biso   1.000  H
  C10      1.0000 0.24098  0.02713  0.69354  Biso   1.000  C
  C11      1.0000 0.18238  0.94713  0.71056  Biso   1.000  C
  N3       1.0000 0.16987  0.67563  0.84833  Biso   1.000  N
  N4       1.0000 0.15687  0.71173  0.77803  Biso   1.000  N
  O3       1.0000 0.22230  0.03764  0.66341  Biso   1.000  O
  O4       1.0000 0.30333  0.07840  0.71077  Biso   1.000  O
  C12      1.0000 0.19627  0.93203  0.74451  Biso   1.000  C
  H6       1.0000 0.24477  0.97023  0.75583  Biso   1.000  H
  C13      1.0000 0.17577  0.89423  0.81913  Biso   1.000  C
  H7       1.0000 0.17697  0.94483  0.81283  Biso   1.000  H
  C14      1.0000 0.18767  0.88123  0.85383  Biso   1.000  C
  H8       1.0000 0.19337  0.92133  0.87103  Biso   1.000  H
  C15      1.0000 0.16857  0.74853  0.83883  Biso   1.000  C
  C16      1.0000 0.15907  0.76553  0.80433  Biso   1.000  C
  C17      1.0000 0.15167  0.61653  0.82253  Biso   1.000  C
  H9       1.0000 0.13677  0.56063  0.82863  Biso   1.000  H
  C18      1.0000 0.15587  0.64023  0.78773  Biso   1.000  C
  H10      1.0000 0.15817  0.60513  0.77003  Biso   1.000  H
  C19      1.0000 0.90764  0.36047  0.02688  Biso   1.000  C
  C20      1.0000 0.84904  0.28047  0.04390  Biso   1.000  C
  N5       1.0000 0.83653  0.00897  0.18167  Biso   1.000  N
  N6       1.0000 0.82353  0.04507  0.11137  Biso   1.000  N
  O5       1.0000 0.88896  0.37098  0.99675  Biso   1.000  O
  O6       1.0000 0.96999  0.41174  0.04411  Biso   1.000  O
  C21      1.0000 0.86293  0.26537  0.07785  Biso   1.000  C
  H11      1.0000 0.91143  0.30357  0.08917  Biso   1.000  H
  C22      1.0000 0.84243  0.22757  0.15247  Biso   1.000  C
  H12      1.0000 0.84363  0.27817  0.14617  Biso   1.000  H
  C23      1.0000 0.85433  0.21457  0.18717  Biso   1.000  C
  H13      1.0000 0.86003  0.25467  0.20437  Biso   1.000  H
  C24      1.0000 0.83523  0.08187  0.17217  Biso   1.000  C
  C25      1.0000 0.82573  0.09887  0.13767  Biso   1.000  C
  C26      1.0000 0.81833  0.94987  0.15587  Biso   1.000  C
  H14      1.0000 0.80343  0.89397  0.16197  Biso   1.000  H
  C27      1.0000 0.82253  0.97357  0.12107  Biso   1.000  C
  H15      1.0000 0.82483  0.93847  0.10337  Biso   1.000  H
  C28      1.0000 0.30620  0.88051  0.36021  Biso   1.000  C
  C29      1.0000 0.38620  0.90191  0.37723  Biso   1.000  C
  N7       1.0000 0.65770  0.16090  0.51500  Biso   1.000  N
  N8       1.0000 0.62160  0.11180  0.44470  Biso   1.000  N
  O7       1.0000 0.29569  0.85132  0.33008  Biso   1.000  O
  O8       1.0000 0.25493  0.89159  0.37744  Biso   1.000  O
  C30      1.0000 0.40130  0.93090  0.41118  Biso   1.000  C
  H16      1.0000 0.36310  0.94120  0.42250  Biso   1.000  H
  C31      1.0000 0.43910  0.94820  0.48580  Biso   1.000  C
  H17      1.0000 0.38850  0.89880  0.47950  Biso   1.000  H
  C32      1.0000 0.45210  0.97310  0.52050  Biso   1.000  C
  H18      1.0000 0.41200  0.93870  0.53770  Biso   1.000  H
  C33      1.0000 0.58480  0.08670  0.50550  Biso   1.000  C
  C34      1.0000 0.56780  0.06020  0.47100  Biso   1.000  C
  C35      1.0000 0.71680  0.20180  0.48920  Biso   1.000  C
  H19      1.0000 0.77270  0.24280  0.49530  Biso   1.000  H
  C36      1.0000 0.69310  0.18230  0.45440  Biso   1.000  C
  H20      1.0000 0.72820  0.21970  0.43670  Biso   1.000  H
  C37      1.0000 0.97287  0.21384  0.69354  Biso   1.000  C
  C38      1.0000 0.05287  0.23524  0.71056  Biso   1.000  C
  N9       1.0000 0.32437  0.49423  0.84833  Biso   1.000  N
  N10      1.0000 0.28827  0.44513  0.77803  Biso   1.000  N
  O9       1.0000 0.96236  0.18465  0.66341  Biso   1.000  O
  O10      1.0000 0.92160  0.22492  0.71077  Biso   1.000  O
  C39      1.0000 0.06797  0.26423  0.74451  Biso   1.000  C
  H21      1.0000 0.02977  0.27453  0.75583  Biso   1.000  H
  C40      1.0000 0.10577  0.28153  0.81913  Biso   1.000  C
  H22      1.0000 0.05517  0.23213  0.81283  Biso   1.000  H
  C41      1.0000 0.11877  0.30643  0.85383  Biso   1.000  C
  H23      1.0000 0.07867  0.27203  0.87103  Biso   1.000  H
  C42      1.0000 0.25147  0.42003  0.83883  Biso   1.000  C
  C43      1.0000 0.23447  0.39353  0.80433  Biso   1.000  C
  C44      1.0000 0.38347  0.53513  0.82253  Biso   1.000  C
  H24      1.0000 0.43937  0.57613  0.82863  Biso   1.000  H
  C45      1.0000 0.35977  0.51563  0.78773  Biso   1.000  C
  H25      1.0000 0.39487  0.55303  0.77003  Biso   1.000  H
  C46      1.0000 0.63953  0.54718  0.02688  Biso   1.000  C
  C47      1.0000 0.71953  0.56858  0.04390  Biso   1.000  C
  N11      1.0000 0.99103  0.82757  0.18167  Biso   1.000  N
  N12      1.0000 0.95493  0.77847  0.11137  Biso   1.000  N
  O11      1.0000 0.62902  0.51799  0.99675  Biso   1.000  O
  O12      1.0000 0.58826  0.55826  0.04411  Biso   1.000  O
  C48      1.0000 0.73463  0.59757  0.07785  Biso   1.000  C
  H26      1.0000 0.69643  0.60787  0.08917  Biso   1.000  H
  C49      1.0000 0.77243  0.61487  0.15247  Biso   1.000  C
  H27      1.0000 0.72183  0.56547  0.14617  Biso   1.000  H
  C50      1.0000 0.78543  0.63977  0.18717  Biso   1.000  C
  H28      1.0000 0.74533  0.60537  0.20437  Biso   1.000  H
  C51      1.0000 0.91813  0.75337  0.17217  Biso   1.000  C
  C52      1.0000 0.90113  0.72687  0.13767  Biso   1.000  C
  C53      1.0000 0.05013  0.86847  0.15587  Biso   1.000  C
  H29      1.0000 0.10603  0.90947  0.16197  Biso   1.000  H
  C54      1.0000 0.02643  0.84897  0.12107  Biso   1.000  C
  H30      1.0000 0.06153  0.88637  0.10337  Biso   1.000  H
  C55      1.0000 0.11949  0.42569  0.36021  Biso   1.000  C
  C56      1.0000 0.09809  0.48429  0.37723  Biso   1.000  C
  N13      1.0000 0.83910  0.49680  0.51500  Biso   1.000  N
  N14      1.0000 0.88820  0.50980  0.44470  Biso   1.000  N
  O13      1.0000 0.14868  0.44437  0.33008  Biso   1.000  O
  O14      1.0000 0.10841  0.36334  0.37744  Biso   1.000  O
  C57      1.0000 0.06910  0.47040  0.41118  Biso   1.000  C
  H31      1.0000 0.05880  0.42190  0.42250  Biso   1.000  H
  C58      1.0000 0.05180  0.49090  0.48580  Biso   1.000  C
  H32      1.0000 0.10120  0.48970  0.47950  Biso   1.000  H
  C59      1.0000 0.02690  0.47900  0.52050  Biso   1.000  C
  H33      1.0000 0.06130  0.47330  0.53770  Biso   1.000  H
  C60      1.0000 0.91330  0.49810  0.50550  Biso   1.000  C
  C61      1.0000 0.93980  0.50760  0.47100  Biso   1.000  C
  C62      1.0000 0.79820  0.51500  0.48920  Biso   1.000  C
  H34      1.0000 0.75720  0.52990  0.49530  Biso   1.000  H
  C63      1.0000 0.81770  0.51080  0.45440  Biso   1.000  C
  H35      1.0000 0.78030  0.50850  0.43670  Biso   1.000  H
  C64      1.0000 0.78616  0.75902  0.69354  Biso   1.000  C
  C65      1.0000 0.76476  0.81762  0.71056  Biso   1.000  C
  N15      1.0000 0.50577  0.83013  0.84833  Biso   1.000  N
  N16      1.0000 0.55487  0.84313  0.77803  Biso   1.000  N
  O15      1.0000 0.81535  0.77770  0.66341  Biso   1.000  O
  O16      1.0000 0.77508  0.69667  0.71077  Biso   1.000  O
  C66      1.0000 0.73577  0.80373  0.74451  Biso   1.000  C
  H36      1.0000 0.72547  0.75523  0.75583  Biso   1.000  H
  C67      1.0000 0.71847  0.82423  0.81913  Biso   1.000  C
  H37      1.0000 0.76787  0.82303  0.81283  Biso   1.000  H
  C68      1.0000 0.69357  0.81233  0.85383  Biso   1.000  C
  H38      1.0000 0.72797  0.80663  0.87103  Biso   1.000  H
  C69      1.0000 0.57997  0.83143  0.83883  Biso   1.000  C
  C70      1.0000 0.60647  0.84093  0.80433  Biso   1.000  C
  C71      1.0000 0.46487  0.84833  0.82253  Biso   1.000  C
  H39      1.0000 0.42387  0.86323  0.82863  Biso   1.000  H
  C72      1.0000 0.48437  0.84413  0.78773  Biso   1.000  C
  H40      1.0000 0.44697  0.84183  0.77003  Biso   1.000  H
  C73      1.0000 0.45282  0.09236  0.02688  Biso   1.000  C
  C74      1.0000 0.43142  0.15096  0.04390  Biso   1.000  C
  N17      1.0000 0.17243  0.16347  0.18167  Biso   1.000  N
  N18      1.0000 0.22153  0.17647  0.11137  Biso   1.000  N
  O17      1.0000 0.48201  0.11104  0.99675  Biso   1.000  O
  O18      1.0000 0.44174  0.03001  0.04411  Biso   1.000  O
  C75      1.0000 0.40243  0.13707  0.07785  Biso   1.000  C
  H41      1.0000 0.39213  0.08857  0.08917  Biso   1.000  H
  C76      1.0000 0.38513  0.15757  0.15247  Biso   1.000  C
  H42      1.0000 0.43453  0.15637  0.14617  Biso   1.000  H
  C77      1.0000 0.36023  0.14567  0.18717  Biso   1.000  C
  H43      1.0000 0.39463  0.13997  0.20437  Biso   1.000  H
  C78      1.0000 0.24663  0.16477  0.17217  Biso   1.000  C
  C79      1.0000 0.27313  0.17427  0.13767  Biso   1.000  C
  C80      1.0000 0.13153  0.18167  0.15587  Biso   1.000  C
  H44      1.0000 0.09053  0.19657  0.16197  Biso   1.000  H
  C81      1.0000 0.15103  0.17747  0.12107  Biso   1.000  C
  H45      1.0000 0.11363  0.17517  0.10337  Biso   1.000  H
  C82      1.0000 0.69380  0.57431  0.63979  Biso   1.000  C
  C83      1.0000 0.61380  0.51571  0.62277  Biso   1.000  C
  N19      1.0000 0.34230  0.50320  0.48500  Biso   1.000  N
  N20      1.0000 0.37840  0.49020  0.55530  Biso   1.000  N
  O19      1.0000 0.70431  0.55563  0.66992  Biso   1.000  O
  O20      1.0000 0.74507  0.63666  0.62256  Biso   1.000  O
  C84      1.0000 0.59870  0.52960  0.58882  Biso   1.000  C
  H46      1.0000 0.63690  0.57810  0.57750  Biso   1.000  H
  C85      1.0000 0.56090  0.50910  0.51420  Biso   1.000  C
  H47      1.0000 0.61150  0.51030  0.52050  Biso   1.000  H
  C86      1.0000 0.54790  0.52100  0.47950  Biso   1.000  C
  H48      1.0000 0.58800  0.52670  0.46230  Biso   1.000  H
  C87      1.0000 0.41520  0.50190  0.49450  Biso   1.000  C
  C88      1.0000 0.43220  0.49240  0.52900  Biso   1.000  C
  C89      1.0000 0.28320  0.48500  0.51080  Biso   1.000  C
  H49      1.0000 0.22730  0.47010  0.50470  Biso   1.000  H
  C90      1.0000 0.30690  0.48920  0.54560  Biso   1.000  C
  H50      1.0000 0.27180  0.49150  0.56330  Biso   1.000  H
  C91      1.0000 0.36047  0.90764  0.97312  Biso   1.000  C
  C92      1.0000 0.28047  0.84904  0.95610  Biso   1.000  C
  N21      1.0000 0.00897  0.83653  0.81833  Biso   1.000  N
  N22      1.0000 0.04507  0.82353  0.88863  Biso   1.000  N
  O21      1.0000 0.37098  0.88896  0.00325  Biso   1.000  O
  O22      1.0000 0.41174  0.96999  0.95589  Biso   1.000  O
  C93      1.0000 0.26537  0.86293  0.92215  Biso   1.000  C
  H51      1.0000 0.30357  0.91143  0.91083  Biso   1.000  H
  C94      1.0000 0.22757  0.84243  0.84753  Biso   1.000  C
  H52      1.0000 0.27817  0.84363  0.85383  Biso   1.000  H
  C95      1.0000 0.21457  0.85433  0.81283  Biso   1.000  C
  H53      1.0000 0.25467  0.86003  0.79563  Biso   1.000  H
  C96      1.0000 0.08187  0.83523  0.82783  Biso   1.000  C
  C97      1.0000 0.09887  0.82573  0.86233  Biso   1.000  C
  C98      1.0000 0.94987  0.81833  0.84413  Biso   1.000  C
  H54      1.0000 0.89397  0.80343  0.83803  Biso   1.000  H
  C99      1.0000 0.97357  0.82253  0.87893  Biso   1.000  C
  H55      1.0000 0.93847  0.82483  0.89663  Biso   1.000  H
  C100     1.0000 0.02713  0.24098  0.30646  Biso   1.000  C
  C101     1.0000 0.94713  0.18238  0.28944  Biso   1.000  C
  N23      1.0000 0.67563  0.16987  0.15167  Biso   1.000  N
  N24      1.0000 0.71173  0.15687  0.22197  Biso   1.000  N
  O23      1.0000 0.03764  0.22230  0.33659  Biso   1.000  O
  O24      1.0000 0.07840  0.30333  0.28923  Biso   1.000  O
  C102     1.0000 0.93203  0.19627  0.25549  Biso   1.000  C
  H56      1.0000 0.97023  0.24477  0.24417  Biso   1.000  H
  C103     1.0000 0.89423  0.17577  0.18087  Biso   1.000  C
  H57      1.0000 0.94483  0.17697  0.18717  Biso   1.000  H
  C104     1.0000 0.88123  0.18767  0.14617  Biso   1.000  C
  H58      1.0000 0.92133  0.19337  0.12897  Biso   1.000  H
  C105     1.0000 0.74853  0.16857  0.16117  Biso   1.000  C
  C106     1.0000 0.76553  0.15907  0.19567  Biso   1.000  C
  C107     1.0000 0.61653  0.15167  0.17747  Biso   1.000  C
  H59      1.0000 0.56063  0.13677  0.17137  Biso   1.000  H
  C108     1.0000 0.64023  0.15587  0.21227  Biso   1.000  C
  H60      1.0000 0.60513  0.15817  0.22997  Biso   1.000  H
  C109     1.0000 0.88051  0.30620  0.63979  Biso   1.000  C
  C110     1.0000 0.90191  0.38620  0.62277  Biso   1.000  C
  N25      1.0000 0.16090  0.65770  0.48500  Biso   1.000  N
  N26      1.0000 0.11180  0.62160  0.55530  Biso   1.000  N
  O25      1.0000 0.85132  0.29569  0.66992  Biso   1.000  O
  O26      1.0000 0.89159  0.25493  0.62256  Biso   1.000  O
  C111     1.0000 0.93090  0.40130  0.58882  Biso   1.000  C
  H61      1.0000 0.94120  0.36310  0.57750  Biso   1.000  H
  C112     1.0000 0.94820  0.43910  0.51420  Biso   1.000  C
  H62      1.0000 0.89880  0.38850  0.52050  Biso   1.000  H
  C113     1.0000 0.97310  0.45210  0.47950  Biso   1.000  C
  H63      1.0000 0.93870  0.41200  0.46230  Biso   1.000  H
  C114     1.0000 0.08670  0.58480  0.49450  Biso   1.000  C
  C115     1.0000 0.06020  0.56780  0.52900  Biso   1.000  C
  C116     1.0000 0.20180  0.71680  0.51080  Biso   1.000  C
  H64      1.0000 0.24280  0.77270  0.50470  Biso   1.000  H
  C117     1.0000 0.18230  0.69310  0.54560  Biso   1.000  C
  H65      1.0000 0.21970  0.72820  0.56330  Biso   1.000  H
  C118     1.0000 0.54718  0.63953  0.97312  Biso   1.000  C
  C119     1.0000 0.56858  0.71953  0.95610  Biso   1.000  C
  N27      1.0000 0.82757  0.99103  0.81833  Biso   1.000  N
  N28      1.0000 0.77847  0.95493  0.88863  Biso   1.000  N
  O27      1.0000 0.51799  0.62902  0.00325  Biso   1.000  O
  O28      1.0000 0.55826  0.58826  0.95589  Biso   1.000  O
  C120     1.0000 0.59757  0.73463  0.92215  Biso   1.000  C
  H66      1.0000 0.60787  0.69643  0.91083  Biso   1.000  H
  C121     1.0000 0.61487  0.77243  0.84753  Biso   1.000  C
  H67      1.0000 0.56547  0.72183  0.85383  Biso   1.000  H
  C122     1.0000 0.63977  0.78543  0.81283  Biso   1.000  C
  H68      1.0000 0.60537  0.74533  0.79563  Biso   1.000  H
  C123     1.0000 0.75337  0.91813  0.82783  Biso   1.000  C
  C124     1.0000 0.72687  0.90113  0.86233  Biso   1.000  C
  C125     1.0000 0.86847  0.05013  0.84413  Biso   1.000  C
  H69      1.0000 0.90947  0.10603  0.83803  Biso   1.000  H
  C126     1.0000 0.84897  0.02643  0.87893  Biso   1.000  C
  H70      1.0000 0.88637  0.06153  0.89663  Biso   1.000  H
  C127     1.0000 0.21384  0.97287  0.30646  Biso   1.000  C
  C128     1.0000 0.23524  0.05287  0.28944  Biso   1.000  C
  N29      1.0000 0.49423  0.32437  0.15167  Biso   1.000  N
  N30      1.0000 0.44513  0.28827  0.22197  Biso   1.000  N
  O29      1.0000 0.18465  0.96236  0.33659  Biso   1.000  O
  O30      1.0000 0.22492  0.92160  0.28923  Biso   1.000  O
  C129     1.0000 0.26423  0.06797  0.25549  Biso   1.000  C
  H71      1.0000 0.27453  0.02977  0.24417  Biso   1.000  H
  C130     1.0000 0.28153  0.10577  0.18087  Biso   1.000  C
  H72      1.0000 0.23213  0.05517  0.18717  Biso   1.000  H
  C131     1.0000 0.30643  0.11877  0.14617  Biso   1.000  C
  H73      1.0000 0.27203  0.07867  0.12897  Biso   1.000  H
  C132     1.0000 0.42003  0.25147  0.16117  Biso   1.000  C
  C133     1.0000 0.39353  0.23447  0.19567  Biso   1.000  C
  C134     1.0000 0.53513  0.38347  0.17747  Biso   1.000  C
  H74      1.0000 0.57613  0.43937  0.17137  Biso   1.000  H
  C135     1.0000 0.51563  0.35977  0.21227  Biso   1.000  C
  H75      1.0000 0.55303  0.39487  0.22997  Biso   1.000  H
  C136     1.0000 0.42569  0.11949  0.63979  Biso   1.000  C
  C137     1.0000 0.48429  0.09809  0.62277  Biso   1.000  C
  N31      1.0000 0.49680  0.83910  0.48500  Biso   1.000  N
  N32      1.0000 0.50980  0.88820  0.55530  Biso   1.000  N
  O31      1.0000 0.44437  0.14868  0.66992  Biso   1.000  O
  O32      1.0000 0.36334  0.10841  0.62256  Biso   1.000  O
  C138     1.0000 0.47040  0.06910  0.58882  Biso   1.000  C
  H76      1.0000 0.42190  0.05880  0.57750  Biso   1.000  H
  C139     1.0000 0.49090  0.05180  0.51420  Biso   1.000  C
  H77      1.0000 0.48970  0.10120  0.52050  Biso   1.000  H
  C140     1.0000 0.47900  0.02690  0.47950  Biso   1.000  C
  H78      1.0000 0.47330  0.06130  0.46230  Biso   1.000  H
  C141     1.0000 0.49810  0.91330  0.49450  Biso   1.000  C
  C142     1.0000 0.50760  0.93980  0.52900  Biso   1.000  C
  C143     1.0000 0.51500  0.79820  0.51080  Biso   1.000  C
  H79      1.0000 0.52990  0.75720  0.50470  Biso   1.000  H
  C144     1.0000 0.51080  0.81770  0.54560  Biso   1.000  C
  H80      1.0000 0.50850  0.78030  0.56330  Biso   1.000  H
  C145     1.0000 0.09236  0.45282  0.97312  Biso   1.000  C
  C146     1.0000 0.15096  0.43142  0.95610  Biso   1.000  C
  N33      1.0000 0.16347  0.17243  0.81833  Biso   1.000  N
  N34      1.0000 0.17647  0.22153  0.88863  Biso   1.000  N
  O33      1.0000 0.11104  0.48201  0.00325  Biso   1.000  O
  O34      1.0000 0.03001  0.44174  0.95589  Biso   1.000  O
  C147     1.0000 0.13707  0.40243  0.92215  Biso   1.000  C
  H81      1.0000 0.08857  0.39213  0.91083  Biso   1.000  H
  C148     1.0000 0.15757  0.38513  0.84753  Biso   1.000  C
  H82      1.0000 0.15637  0.43453  0.85383  Biso   1.000  H
  C149     1.0000 0.14567  0.36023  0.81283  Biso   1.000  C
  H83      1.0000 0.13997  0.39463  0.79563  Biso   1.000  H
  C150     1.0000 0.16477  0.24663  0.82783  Biso   1.000  C
  C151     1.0000 0.17427  0.27313  0.86233  Biso   1.000  C
  C152     1.0000 0.18167  0.13153  0.84413  Biso   1.000  C
  H84      1.0000 0.19657  0.09053  0.83803  Biso   1.000  H
  C153     1.0000 0.17747  0.15103  0.87893  Biso   1.000  C
  H85      1.0000 0.17517  0.11363  0.89663  Biso   1.000  H
  C154     1.0000 0.75902  0.78616  0.30646  Biso   1.000  C
  C155     1.0000 0.81762  0.76476  0.28944  Biso   1.000  C
  N35      1.0000 0.83013  0.50577  0.15167  Biso   1.000  N
  N36      1.0000 0.84313  0.55487  0.22197  Biso   1.000  N
  O35      1.0000 0.77770  0.81535  0.33659  Biso   1.000  O
  O36      1.0000 0.69667  0.77508  0.28923  Biso   1.000  O
  C156     1.0000 0.80373  0.73577  0.25549  Biso   1.000  C
  H86      1.0000 0.75523  0.72547  0.24417  Biso   1.000  H
  C157     1.0000 0.82423  0.71847  0.18087  Biso   1.000  C
  H87      1.0000 0.82303  0.76787  0.18717  Biso   1.000  H
  C158     1.0000 0.81233  0.69357  0.14617  Biso   1.000  C
  H88      1.0000 0.80663  0.72797  0.12897  Biso   1.000  H
  C159     1.0000 0.83143  0.57997  0.16117  Biso   1.000  C
  C160     1.0000 0.84093  0.60647  0.19567  Biso   1.000  C
  C161     1.0000 0.84833  0.46487  0.17747  Biso   1.000  C
  H89      1.0000 0.86323  0.42387  0.17137  Biso   1.000  H
  C162     1.0000 0.84413  0.48437  0.21227  Biso   1.000  C
  H90      1.0000 0.84183  0.44697  0.22997  Biso   1.000  H
  C163     1.0000 0.42569  0.30620  0.63979  Biso   1.000  C
  C164     1.0000 0.48429  0.38620  0.62277  Biso   1.000  C
  N37      1.0000 0.49680  0.65770  0.48500  Biso   1.000  N
  N38      1.0000 0.50980  0.62160  0.55530  Biso   1.000  N
  O37      1.0000 0.44437  0.29569  0.66992  Biso   1.000  O
  O38      1.0000 0.36334  0.25493  0.62256  Biso   1.000  O
  C165     1.0000 0.47040  0.40130  0.58882  Biso   1.000  C
  H91      1.0000 0.42190  0.36310  0.57750  Biso   1.000  H
  C166     1.0000 0.49090  0.43910  0.51420  Biso   1.000  C
  H92      1.0000 0.48970  0.38850  0.52050  Biso   1.000  H
  C167     1.0000 0.47900  0.45210  0.47950  Biso   1.000  C
  H93      1.0000 0.47330  0.41200  0.46230  Biso   1.000  H
  C168     1.0000 0.49810  0.58480  0.49450  Biso   1.000  C
  C169     1.0000 0.50760  0.56780  0.52900  Biso   1.000  C
  C170     1.0000 0.51500  0.71680  0.51080  Biso   1.000  C
  H94      1.0000 0.52990  0.77270  0.50470  Biso   1.000  H
  C171     1.0000 0.51080  0.69310  0.54560  Biso   1.000  C
  H95      1.0000 0.50850  0.72820  0.56330  Biso   1.000  H
  C172     1.0000 0.09236  0.63953  0.97312  Biso   1.000  C
  C173     1.0000 0.15096  0.71953  0.95610  Biso   1.000  C
  N39      1.0000 0.16347  0.99103  0.81833  Biso   1.000  N
  N40      1.0000 0.17647  0.95493  0.88863  Biso   1.000  N
  O39      1.0000 0.11104  0.62902  0.00325  Biso   1.000  O
  O40      1.0000 0.03001  0.58826  0.95589  Biso   1.000  O
  C174     1.0000 0.13707  0.73463  0.92215  Biso   1.000  C
  H96      1.0000 0.08857  0.69643  0.91083  Biso   1.000  H
  C175     1.0000 0.15757  0.77243  0.84753  Biso   1.000  C
  H97      1.0000 0.15637  0.72183  0.85383  Biso   1.000  H
  C176     1.0000 0.14567  0.78543  0.81283  Biso   1.000  C
  H98      1.0000 0.13997  0.74533  0.79563  Biso   1.000  H
  C177     1.0000 0.16477  0.91813  0.82783  Biso   1.000  C
  C178     1.0000 0.17427  0.90113  0.86233  Biso   1.000  C
  C179     1.0000 0.18167  0.05013  0.84413  Biso   1.000  C
  H99      1.0000 0.19657  0.10603  0.83803  Biso   1.000  H
  C180     1.0000 0.17747  0.02643  0.87893  Biso   1.000  C
  H100     1.0000 0.17517  0.06153  0.89663  Biso   1.000  H
  C181     1.0000 0.75902  0.97287  0.30646  Biso   1.000  C
  C182     1.0000 0.81762  0.05287  0.28944  Biso   1.000  C
  N41      1.0000 0.83013  0.32437  0.15167  Biso   1.000  N
  N42      1.0000 0.84313  0.28827  0.22197  Biso   1.000  N
  O41      1.0000 0.77770  0.96236  0.33659  Biso   1.000  O
  O42      1.0000 0.69667  0.92160  0.28923  Biso   1.000  O
  C183     1.0000 0.80373  0.06797  0.25549  Biso   1.000  C
  H101     1.0000 0.75523  0.02977  0.24417  Biso   1.000  H
  C184     1.0000 0.82423  0.10577  0.18087  Biso   1.000  C
  H102     1.0000 0.82303  0.05517  0.18717  Biso   1.000  H
  C185     1.0000 0.81233  0.11877  0.14617  Biso   1.000  C
  H103     1.0000 0.80663  0.07867  0.12897  Biso   1.000  H
  C186     1.0000 0.83143  0.25147  0.16117  Biso   1.000  C
  C187     1.0000 0.84093  0.23447  0.19567  Biso   1.000  C
  C188     1.0000 0.84833  0.38347  0.17747  Biso   1.000  C
  H104     1.0000 0.86323  0.43937  0.17137  Biso   1.000  H
  C189     1.0000 0.84413  0.35977  0.21227  Biso   1.000  C
  H105     1.0000 0.84183  0.39487  0.22997  Biso   1.000  H
  C190     1.0000 0.69380  0.11949  0.63979  Biso   1.000  C
  C191     1.0000 0.61380  0.09809  0.62277  Biso   1.000  C
  N43      1.0000 0.34230  0.83910  0.48500  Biso   1.000  N
  N44      1.0000 0.37840  0.88820  0.55530  Biso   1.000  N
  O43      1.0000 0.70431  0.14868  0.66992  Biso   1.000  O
  O44      1.0000 0.74507  0.10841  0.62256  Biso   1.000  O
  C192     1.0000 0.59870  0.06910  0.58882  Biso   1.000  C
  H106     1.0000 0.63690  0.05880  0.57750  Biso   1.000  H
  C193     1.0000 0.56090  0.05180  0.51420  Biso   1.000  C
  H107     1.0000 0.61150  0.10120  0.52050  Biso   1.000  H
  C194     1.0000 0.54790  0.02690  0.47950  Biso   1.000  C
  H108     1.0000 0.58800  0.06130  0.46230  Biso   1.000  H
  C195     1.0000 0.41520  0.91330  0.49450  Biso   1.000  C
  C196     1.0000 0.43220  0.93980  0.52900  Biso   1.000  C
  C197     1.0000 0.28320  0.79820  0.51080  Biso   1.000  C
  H109     1.0000 0.22730  0.75720  0.50470  Biso   1.000  H
  C198     1.0000 0.30690  0.81770  0.54560  Biso   1.000  C
  H110     1.0000 0.27180  0.78030  0.56330  Biso   1.000  H
  C199     1.0000 0.36047  0.45282  0.97312  Biso   1.000  C
  C200     1.0000 0.28047  0.43142  0.95610  Biso   1.000  C
  N45      1.0000 0.00897  0.17243  0.81833  Biso   1.000  N
  N46      1.0000 0.04507  0.22153  0.88863  Biso   1.000  N
  O45      1.0000 0.37098  0.48201  0.00325  Biso   1.000  O
  O46      1.0000 0.41174  0.44174  0.95589  Biso   1.000  O
  C201     1.0000 0.26537  0.40243  0.92215  Biso   1.000  C
  H111     1.0000 0.30357  0.39213  0.91083  Biso   1.000  H
  C202     1.0000 0.22757  0.38513  0.84753  Biso   1.000  C
  H112     1.0000 0.27817  0.43453  0.85383  Biso   1.000  H
  C203     1.0000 0.21457  0.36023  0.81283  Biso   1.000  C
  H113     1.0000 0.25467  0.39463  0.79563  Biso   1.000  H
  C204     1.0000 0.08187  0.24663  0.82783  Biso   1.000  C
  C205     1.0000 0.09887  0.27313  0.86233  Biso   1.000  C
  C206     1.0000 0.94987  0.13153  0.84413  Biso   1.000  C
  H114     1.0000 0.89397  0.09053  0.83803  Biso   1.000  H
  C207     1.0000 0.97357  0.15103  0.87893  Biso   1.000  C
  H115     1.0000 0.93847  0.11363  0.89663  Biso   1.000  H
  C208     1.0000 0.02713  0.78616  0.30646  Biso   1.000  C
  C209     1.0000 0.94713  0.76476  0.28944  Biso   1.000  C
  N47      1.0000 0.67563  0.50577  0.15167  Biso   1.000  N
  N48      1.0000 0.71173  0.55487  0.22197  Biso   1.000  N
  O47      1.0000 0.03764  0.81535  0.33659  Biso   1.000  O
  O48      1.0000 0.07840  0.77508  0.28923  Biso   1.000  O
  C210     1.0000 0.93203  0.73577  0.25549  Biso   1.000  C
  H116     1.0000 0.97023  0.72547  0.24417  Biso   1.000  H
  C211     1.0000 0.89423  0.71847  0.18087  Biso   1.000  C
  H117     1.0000 0.94483  0.76787  0.18717  Biso   1.000  H
  C212     1.0000 0.88123  0.69357  0.14617  Biso   1.000  C
  H118     1.0000 0.92133  0.72797  0.12897  Biso   1.000  H
  C213     1.0000 0.74853  0.57997  0.16117  Biso   1.000  C
  C214     1.0000 0.76553  0.60647  0.19567  Biso   1.000  C
  C215     1.0000 0.61653  0.46487  0.17747  Biso   1.000  C
  H119     1.0000 0.56063  0.42387  0.17137  Biso   1.000  H
  C216     1.0000 0.64023  0.48437  0.21227  Biso   1.000  C
  H120     1.0000 0.60513  0.44697  0.22997  Biso   1.000  H
  C217     1.0000 0.88051  0.57431  0.63979  Biso   1.000  C
  C218     1.0000 0.90191  0.51571  0.62277  Biso   1.000  C
  N49      1.0000 0.16090  0.50320  0.48500  Biso   1.000  N
  N50      1.0000 0.11180  0.49020  0.55530  Biso   1.000  N
  O49      1.0000 0.85132  0.55563  0.66992  Biso   1.000  O
  O50      1.0000 0.89159  0.63666  0.62256  Biso   1.000  O
  C219     1.0000 0.93090  0.52960  0.58882  Biso   1.000  C
  H121     1.0000 0.94120  0.57810  0.57750  Biso   1.000  H
  C220     1.0000 0.94820  0.50910  0.51420  Biso   1.000  C
  H122     1.0000 0.89880  0.51030  0.52050  Biso   1.000  H
  C221     1.0000 0.97310  0.52100  0.47950  Biso   1.000  C
  H123     1.0000 0.93870  0.52670  0.46230  Biso   1.000  H
  C222     1.0000 0.08670  0.50190  0.49450  Biso   1.000  C
  C223     1.0000 0.06020  0.49240  0.52900  Biso   1.000  C
  C224     1.0000 0.20180  0.48500  0.51080  Biso   1.000  C
  H124     1.0000 0.24280  0.47010  0.50470  Biso   1.000  H
  C225     1.0000 0.18230  0.48920  0.54560  Biso   1.000  C
  H125     1.0000 0.21970  0.49150  0.56330  Biso   1.000  H
  C226     1.0000 0.54718  0.90764  0.97312  Biso   1.000  C
  C227     1.0000 0.56858  0.84904  0.95610  Biso   1.000  C
  N51      1.0000 0.82757  0.83653  0.81833  Biso   1.000  N
  N52      1.0000 0.77847  0.82353  0.88863  Biso   1.000  N
  O51      1.0000 0.51799  0.88896  0.00325  Biso   1.000  O
  O52      1.0000 0.55826  0.96999  0.95589  Biso   1.000  O
  C228     1.0000 0.59757  0.86293  0.92215  Biso   1.000  C
  H126     1.0000 0.60787  0.91143  0.91083  Biso   1.000  H
  C229     1.0000 0.61487  0.84243  0.84753  Biso   1.000  C
  H127     1.0000 0.56547  0.84363  0.85383  Biso   1.000  H
  C230     1.0000 0.63977  0.85433  0.81283  Biso   1.000  C
  H128     1.0000 0.60537  0.86003  0.79563  Biso   1.000  H
  C231     1.0000 0.75337  0.83523  0.82783  Biso   1.000  C
  C232     1.0000 0.72687  0.82573  0.86233  Biso   1.000  C
  C233     1.0000 0.86847  0.81833  0.84413  Biso   1.000  C
  H129     1.0000 0.90947  0.80343  0.83803  Biso   1.000  H
  C234     1.0000 0.84897  0.82253  0.87893  Biso   1.000  C
  H130     1.0000 0.88637  0.82483  0.89663  Biso   1.000  H
  C235     1.0000 0.21384  0.24098  0.30646  Biso   1.000  C
  C236     1.0000 0.23524  0.18238  0.28944  Biso   1.000  C
  N53      1.0000 0.49423  0.16987  0.15167  Biso   1.000  N
  N54      1.0000 0.44513  0.15687  0.22197  Biso   1.000  N
  O53      1.0000 0.18465  0.22230  0.33659  Biso   1.000  O
  O54      1.0000 0.22492  0.30333  0.28923  Biso   1.000  O
  C237     1.0000 0.26423  0.19627  0.25549  Biso   1.000  C
  H131     1.0000 0.27453  0.24477  0.24417  Biso   1.000  H
  C238     1.0000 0.28153  0.17577  0.18087  Biso   1.000  C
  H132     1.0000 0.23213  0.17697  0.18717  Biso   1.000  H
  C239     1.0000 0.30643  0.18767  0.14617  Biso   1.000  C
  H133     1.0000 0.27203  0.19337  0.12897  Biso   1.000  H
  C240     1.0000 0.42003  0.16857  0.16117  Biso   1.000  C
  C241     1.0000 0.39353  0.15907  0.19567  Biso   1.000  C
  C242     1.0000 0.53513  0.15167  0.17747  Biso   1.000  C
  H134     1.0000 0.57613  0.13677  0.17137  Biso   1.000  H
  C243     1.0000 0.51563  0.15587  0.21227  Biso   1.000  C
  H135     1.0000 0.55303  0.15817  0.22997  Biso   1.000  H
  C244     1.0000 0.30620  0.42569  0.36021  Biso   1.000  C
  C245     1.0000 0.38620  0.48429  0.37723  Biso   1.000  C
  N55      1.0000 0.65770  0.49680  0.51500  Biso   1.000  N
  N56      1.0000 0.62160  0.50980  0.44470  Biso   1.000  N
  O55      1.0000 0.29569  0.44437  0.33008  Biso   1.000  O
  O56      1.0000 0.25493  0.36334  0.37744  Biso   1.000  O
  C246     1.0000 0.40130  0.47040  0.41118  Biso   1.000  C
  H136     1.0000 0.36310  0.42190  0.42250  Biso   1.000  H
  C247     1.0000 0.43910  0.49090  0.48580  Biso   1.000  C
  H137     1.0000 0.38850  0.48970  0.47950  Biso   1.000  H
  C248     1.0000 0.45210  0.47900  0.52050  Biso   1.000  C
  H138     1.0000 0.41200  0.47330  0.53770  Biso   1.000  H
  C249     1.0000 0.58480  0.49810  0.50550  Biso   1.000  C
  C250     1.0000 0.56780  0.50760  0.47100  Biso   1.000  C
  C251     1.0000 0.71680  0.51500  0.48920  Biso   1.000  C
  H139     1.0000 0.77270  0.52990  0.49530  Biso   1.000  H
  C252     1.0000 0.69310  0.51080  0.45440  Biso   1.000  C
  H140     1.0000 0.72820  0.50850  0.43670  Biso   1.000  H
  C253     1.0000 0.97287  0.75902  0.69354  Biso   1.000  C
  C254     1.0000 0.05287  0.81762  0.71056  Biso   1.000  C
  N57      1.0000 0.32437  0.83013  0.84833  Biso   1.000  N
  N58      1.0000 0.28827  0.84313  0.77803  Biso   1.000  N
  O57      1.0000 0.96236  0.77770  0.66341  Biso   1.000  O
  O58      1.0000 0.92160  0.69667  0.71077  Biso   1.000  O
  C255     1.0000 0.06797  0.80373  0.74451  Biso   1.000  C
  H141     1.0000 0.02977  0.75523  0.75583  Biso   1.000  H
  C256     1.0000 0.10577  0.82423  0.81913  Biso   1.000  C
  H142     1.0000 0.05517  0.82303  0.81283  Biso   1.000  H
  C257     1.0000 0.11877  0.81233  0.85383  Biso   1.000  C
  H143     1.0000 0.07867  0.80663  0.87103  Biso   1.000  H
  C258     1.0000 0.25147  0.83143  0.83883  Biso   1.000  C
  C259     1.0000 0.23447  0.84093  0.80433  Biso   1.000  C
  C260     1.0000 0.38347  0.84833  0.82253  Biso   1.000  C
  H144     1.0000 0.43937  0.86323  0.82863  Biso   1.000  H
  C261     1.0000 0.35977  0.84413  0.78773  Biso   1.000  C
  H145     1.0000 0.39487  0.84183  0.77003  Biso   1.000  H
  C262     1.0000 0.63953  0.09236  0.02688  Biso   1.000  C
  C263     1.0000 0.71953  0.15096  0.04390  Biso   1.000  C
  N59      1.0000 0.99103  0.16347  0.18167  Biso   1.000  N
  N60      1.0000 0.95493  0.17647  0.11137  Biso   1.000  N
  O59      1.0000 0.62902  0.11104  0.99675  Biso   1.000  O
  O60      1.0000 0.58826  0.03001  0.04411  Biso   1.000  O
  C264     1.0000 0.73463  0.13707  0.07785  Biso   1.000  C
  H146     1.0000 0.69643  0.08857  0.08917  Biso   1.000  H
  C265     1.0000 0.77243  0.15757  0.15247  Biso   1.000  C
  H147     1.0000 0.72183  0.15637  0.14617  Biso   1.000  H
  C266     1.0000 0.78543  0.14567  0.18717  Biso   1.000  C
  H148     1.0000 0.74533  0.13997  0.20437  Biso   1.000  H
  C267     1.0000 0.91813  0.16477  0.17217  Biso   1.000  C
  C268     1.0000 0.90113  0.17427  0.13767  Biso   1.000  C
  C269     1.0000 0.05013  0.18167  0.15587  Biso   1.000  C
  H149     1.0000 0.10603  0.19657  0.16197  Biso   1.000  H
  C270     1.0000 0.02643  0.17747  0.12107  Biso   1.000  C
  H150     1.0000 0.06153  0.17517  0.10337  Biso   1.000  H
  C271     1.0000 0.11949  0.69380  0.36021  Biso   1.000  C
  C272     1.0000 0.09809  0.61380  0.37723  Biso   1.000  C
  N61      1.0000 0.83910  0.34230  0.51500  Biso   1.000  N
  N62      1.0000 0.88820  0.37840  0.44470  Biso   1.000  N
  O61      1.0000 0.14868  0.70431  0.33008  Biso   1.000  O
  O62      1.0000 0.10841  0.74507  0.37744  Biso   1.000  O
  C273     1.0000 0.06910  0.59870  0.41118  Biso   1.000  C
  H151     1.0000 0.05880  0.63690  0.42250  Biso   1.000  H
  C274     1.0000 0.05180  0.56090  0.48580  Biso   1.000  C
  H152     1.0000 0.10120  0.61150  0.47950  Biso   1.000  H
  C275     1.0000 0.02690  0.54790  0.52050  Biso   1.000  C
  H153     1.0000 0.06130  0.58800  0.53770  Biso   1.000  H
  C276     1.0000 0.91330  0.41520  0.50550  Biso   1.000  C
  C277     1.0000 0.93980  0.43220  0.47100  Biso   1.000  C
  C278     1.0000 0.79820  0.28320  0.48920  Biso   1.000  C
  H154     1.0000 0.75720  0.22730  0.49530  Biso   1.000  H
  C279     1.0000 0.81770  0.30690  0.45440  Biso   1.000  C
  H155     1.0000 0.78030  0.27180  0.43670  Biso   1.000  H
  C280     1.0000 0.78616  0.02713  0.69354  Biso   1.000  C
  C281     1.0000 0.76476  0.94713  0.71056  Biso   1.000  C
  N63      1.0000 0.50577  0.67563  0.84833  Biso   1.000  N
  N64      1.0000 0.55487  0.71173  0.77803  Biso   1.000  N
  O63      1.0000 0.81535  0.03764  0.66341  Biso   1.000  O
  O64      1.0000 0.77508  0.07840  0.71077  Biso   1.000  O
  C282     1.0000 0.73577  0.93203  0.74451  Biso   1.000  C
  H156     1.0000 0.72547  0.97023  0.75583  Biso   1.000  H
  C283     1.0000 0.71847  0.89423  0.81913  Biso   1.000  C
  H157     1.0000 0.76787  0.94483  0.81283  Biso   1.000  H
  C284     1.0000 0.69357  0.88123  0.85383  Biso   1.000  C
  H158     1.0000 0.72797  0.92133  0.87103  Biso   1.000  H
  C285     1.0000 0.57997  0.74853  0.83883  Biso   1.000  C
  C286     1.0000 0.60647  0.76553  0.80433  Biso   1.000  C
  C287     1.0000 0.46487  0.61653  0.82253  Biso   1.000  C
  H159     1.0000 0.42387  0.56063  0.82863  Biso   1.000  H
  C288     1.0000 0.48437  0.64023  0.78773  Biso   1.000  C
  H160     1.0000 0.44697  0.60513  0.77003  Biso   1.000  H
  C289     1.0000 0.45282  0.36047  0.02688  Biso   1.000  C
  C290     1.0000 0.43142  0.28047  0.04390  Biso   1.000  C
  N65      1.0000 0.17243  0.00897  0.18167  Biso   1.000  N
  N66      1.0000 0.22153  0.04507  0.11137  Biso   1.000  N
  O65      1.0000 0.48201  0.37098  0.99675  Biso   1.000  O
  O66      1.0000 0.44174  0.41174  0.04411  Biso   1.000  O
  C291     1.0000 0.40243  0.26537  0.07785  Biso   1.000  C
  H161     1.0000 0.39213  0.30357  0.08917  Biso   1.000  H
  C292     1.0000 0.38513  0.22757  0.15247  Biso   1.000  C
  H162     1.0000 0.43453  0.27817  0.14617  Biso   1.000  H
  C293     1.0000 0.36023  0.21457  0.18717  Biso   1.000  C
  H163     1.0000 0.39463  0.25467  0.20437  Biso   1.000  H
  C294     1.0000 0.24663  0.08187  0.17217  Biso   1.000  C
  C295     1.0000 0.27313  0.09887  0.13767  Biso   1.000  C
  C296     1.0000 0.13153  0.94987  0.15587  Biso   1.000  C
  H164     1.0000 0.09053  0.89397  0.16197  Biso   1.000  H
  C297     1.0000 0.15103  0.97357  0.12107  Biso   1.000  C
  H165     1.0000 0.11363  0.93847  0.10337  Biso   1.000  H
  C298     1.0000 0.57431  0.88051  0.36021  Biso   1.000  C
  C299     1.0000 0.51571  0.90191  0.37723  Biso   1.000  C
  N67      1.0000 0.50320  0.16090  0.51500  Biso   1.000  N
  N68      1.0000 0.49020  0.11180  0.44470  Biso   1.000  N
  O67      1.0000 0.55563  0.85132  0.33008  Biso   1.000  O
  O68      1.0000 0.63666  0.89159  0.37744  Biso   1.000  O
  C300     1.0000 0.52960  0.93090  0.41118  Biso   1.000  C
  H166     1.0000 0.57810  0.94120  0.42250  Biso   1.000  H
  C301     1.0000 0.50910  0.94820  0.48580  Biso   1.000  C
  H167     1.0000 0.51030  0.89880  0.47950  Biso   1.000  H
  C302     1.0000 0.52100  0.97310  0.52050  Biso   1.000  C
  H168     1.0000 0.52670  0.93870  0.53770  Biso   1.000  H
  C303     1.0000 0.50190  0.08670  0.50550  Biso   1.000  C
  C304     1.0000 0.49240  0.06020  0.47100  Biso   1.000  C
  C305     1.0000 0.48500  0.20180  0.48920  Biso   1.000  C
  H169     1.0000 0.47010  0.24280  0.49530  Biso   1.000  H
  C306     1.0000 0.48920  0.18230  0.45440  Biso   1.000  C
  H170     1.0000 0.49150  0.21970  0.43670  Biso   1.000  H
  C307     1.0000 0.24098  0.21384  0.69354  Biso   1.000  C
  C308     1.0000 0.18238  0.23524  0.71056  Biso   1.000  C
  N69      1.0000 0.16987  0.49423  0.84833  Biso   1.000  N
  N70      1.0000 0.15687  0.44513  0.77803  Biso   1.000  N
  O69      1.0000 0.22230  0.18465  0.66341  Biso   1.000  O
  O70      1.0000 0.30333  0.22492  0.71077  Biso   1.000  O
  C309     1.0000 0.19627  0.26423  0.74451  Biso   1.000  C
  H171     1.0000 0.24477  0.27453  0.75583  Biso   1.000  H
  C310     1.0000 0.17577  0.28153  0.81913  Biso   1.000  C
  H172     1.0000 0.17697  0.23213  0.81283  Biso   1.000  H
  C311     1.0000 0.18767  0.30643  0.85383  Biso   1.000  C
  H173     1.0000 0.19337  0.27203  0.87103  Biso   1.000  H
  C312     1.0000 0.16857  0.42003  0.83883  Biso   1.000  C
  C313     1.0000 0.15907  0.39353  0.80433  Biso   1.000  C
  C314     1.0000 0.15167  0.53513  0.82253  Biso   1.000  C
  H174     1.0000 0.13677  0.57613  0.82863  Biso   1.000  H
  C315     1.0000 0.15587  0.51563  0.78773  Biso   1.000  C
  H175     1.0000 0.15817  0.55303  0.77003  Biso   1.000  H
  C316     1.0000 0.90764  0.54718  0.02688  Biso   1.000  C
  C317     1.0000 0.84904  0.56858  0.04390  Biso   1.000  C
  N71      1.0000 0.83653  0.82757  0.18167  Biso   1.000  N
  N72      1.0000 0.82353  0.77847  0.11137  Biso   1.000  N
  O71      1.0000 0.88896  0.51799  0.99675  Biso   1.000  O
  O72      1.0000 0.96999  0.55826  0.04411  Biso   1.000  O
  C318     1.0000 0.86293  0.59757  0.07785  Biso   1.000  C
  H176     1.0000 0.91143  0.60787  0.08917  Biso   1.000  H
  C319     1.0000 0.84243  0.61487  0.15247  Biso   1.000  C
  H177     1.0000 0.84363  0.56547  0.14617  Biso   1.000  H
  C320     1.0000 0.85433  0.63977  0.18717  Biso   1.000  C
  H178     1.0000 0.86003  0.60537  0.20437  Biso   1.000  H
  C321     1.0000 0.83523  0.75337  0.17217  Biso   1.000  C
  C322     1.0000 0.82573  0.72687  0.13767  Biso   1.000  C
  C323     1.0000 0.81833  0.86847  0.15587  Biso   1.000  C
  H179     1.0000 0.80343  0.90947  0.16197  Biso   1.000  H
  C324     1.0000 0.82253  0.84897  0.12107  Biso   1.000  C
  H180     1.0000 0.82483  0.88637  0.10337  Biso   1.000  H
  C325     1.0000 0.44409  0.55591  0.36071  Biso   1.000  C
  H181     1.0000 0.43460  0.56540  0.33790  Biso   1.000  H
  C326     1.0000 0.47230  0.52770  0.42826  Biso   1.000  C
  C327     1.0000 0.49620  0.50380  0.46080  Biso   1.000  C
  C328     1.0000 0.52270  0.47730  0.53070  Biso   1.000  C
  C329     1.0000 0.11076  0.88924  0.69404  Biso   1.000  C
  H182     1.0000 0.10127  0.89873  0.67123  Biso   1.000  H
  C330     1.0000 0.13897  0.86103  0.76159  Biso   1.000  C
  C331     1.0000 0.16287  0.83713  0.79413  Biso   1.000  C
  C332     1.0000 0.18937  0.81063  0.86403  Biso   1.000  C
  C333     1.0000 0.77742  0.22258  0.02738  Biso   1.000  C
  H183     1.0000 0.76793  0.23207  0.00457  Biso   1.000  H
  C334     1.0000 0.80563  0.19437  0.09493  Biso   1.000  C
  C335     1.0000 0.82953  0.17047  0.12747  Biso   1.000  C
  C336     1.0000 0.85603  0.14397  0.19737  Biso   1.000  C
  C337     1.0000 0.44409  0.88818  0.36071  Biso   1.000  C
  H184     1.0000 0.43460  0.86920  0.33790  Biso   1.000  H
  C338     1.0000 0.47230  0.94460  0.42826  Biso   1.000  C
  C339     1.0000 0.49620  0.99240  0.46080  Biso   1.000  C
  C340     1.0000 0.52270  0.04540  0.53070  Biso   1.000  C
  C341     1.0000 0.11076  0.22151  0.69404  Biso   1.000  C
  H185     1.0000 0.10127  0.20253  0.67123  Biso   1.000  H
  C342     1.0000 0.13897  0.27793  0.76159  Biso   1.000  C
  C343     1.0000 0.16287  0.32573  0.79413  Biso   1.000  C
  C344     1.0000 0.18937  0.37873  0.86403  Biso   1.000  C
  C345     1.0000 0.77742  0.55485  0.02738  Biso   1.000  C
  H186     1.0000 0.76793  0.53587  0.00457  Biso   1.000  H
  C346     1.0000 0.80563  0.61127  0.09493  Biso   1.000  C
  C347     1.0000 0.82953  0.65907  0.12747  Biso   1.000  C
  C348     1.0000 0.85603  0.71207  0.19737  Biso   1.000  C
  C349     1.0000 0.11182  0.55591  0.36071  Biso   1.000  C
  H187     1.0000 0.13080  0.56540  0.33790  Biso   1.000  H
  C350     1.0000 0.05540  0.52770  0.42826  Biso   1.000  C
  C351     1.0000 0.00760  0.50380  0.46080  Biso   1.000  C
  C352     1.0000 0.95460  0.47730  0.53070  Biso   1.000  C
  C353     1.0000 0.77849  0.88924  0.69404  Biso   1.000  C
  H188     1.0000 0.79747  0.89873  0.67123  Biso   1.000  H
  C354     1.0000 0.72207  0.86103  0.76159  Biso   1.000  C
  C355     1.0000 0.67427  0.83713  0.79413  Biso   1.000  C
  C356     1.0000 0.62127  0.81063  0.86403  Biso   1.000  C
  C357     1.0000 0.44515  0.22258  0.02738  Biso   1.000  C
  H189     1.0000 0.46413  0.23207  0.00457  Biso   1.000  H
  C358     1.0000 0.38873  0.19437  0.09493  Biso   1.000  C
  C359     1.0000 0.34093  0.17047  0.12747  Biso   1.000  C
  C360     1.0000 0.28793  0.14397  0.19737  Biso   1.000  C
  C361     1.0000 0.55591  0.44409  0.63929  Biso   1.000  C
  H190     1.0000 0.56540  0.43460  0.66210  Biso   1.000  H
  C362     1.0000 0.52770  0.47230  0.57174  Biso   1.000  C
  C363     1.0000 0.50380  0.49620  0.53920  Biso   1.000  C
  C364     1.0000 0.47730  0.52270  0.46930  Biso   1.000  C
  C365     1.0000 0.22258  0.77742  0.97262  Biso   1.000  C
  H191     1.0000 0.23207  0.76793  0.99543  Biso   1.000  H
  C366     1.0000 0.19437  0.80563  0.90507  Biso   1.000  C
  C367     1.0000 0.17047  0.82953  0.87253  Biso   1.000  C
  C368     1.0000 0.14397  0.85603  0.80263  Biso   1.000  C
  C369     1.0000 0.88924  0.11076  0.30596  Biso   1.000  C
  H192     1.0000 0.89873  0.10127  0.32877  Biso   1.000  H
  C370     1.0000 0.86103  0.13897  0.23841  Biso   1.000  C
  C371     1.0000 0.83713  0.16287  0.20587  Biso   1.000  C
  C372     1.0000 0.81063  0.18937  0.13597  Biso   1.000  C
  C373     1.0000 0.88818  0.44409  0.63929  Biso   1.000  C
  H193     1.0000 0.86920  0.43460  0.66210  Biso   1.000  H
  C374     1.0000 0.94460  0.47230  0.57174  Biso   1.000  C
  C375     1.0000 0.99240  0.49620  0.53920  Biso   1.000  C
  C376     1.0000 0.04540  0.52270  0.46930  Biso   1.000  C
  C377     1.0000 0.55485  0.77742  0.97262  Biso   1.000  C
  H194     1.0000 0.53587  0.76793  0.99543  Biso   1.000  H
  C378     1.0000 0.61127  0.80563  0.90507  Biso   1.000  C
  C379     1.0000 0.65907  0.82953  0.87253  Biso   1.000  C
  C380     1.0000 0.71207  0.85603  0.80263  Biso   1.000  C
  C381     1.0000 0.22151  0.11076  0.30596  Biso   1.000  C
  H195     1.0000 0.20253  0.10127  0.32877  Biso   1.000  H
  C382     1.0000 0.27793  0.13897  0.23841  Biso   1.000  C
  C383     1.0000 0.32573  0.16287  0.20587  Biso   1.000  C
  C384     1.0000 0.37873  0.18937  0.13597  Biso   1.000  C
  C385     1.0000 0.55591  0.11182  0.63929  Biso   1.000  C
  H196     1.0000 0.56540  0.13080  0.66210  Biso   1.000  H
  C386     1.0000 0.52770  0.05540  0.57174  Biso   1.000  C
  C387     1.0000 0.50380  0.00760  0.53920  Biso   1.000  C
  C388     1.0000 0.47730  0.95460  0.46930  Biso   1.000  C
  C389     1.0000 0.22258  0.44515  0.97262  Biso   1.000  C
  H197     1.0000 0.23207  0.46413  0.99543  Biso   1.000  H
  C390     1.0000 0.19437  0.38873  0.90507  Biso   1.000  C
  C391     1.0000 0.17047  0.34093  0.87253  Biso   1.000  C
  C392     1.0000 0.14397  0.28793  0.80263  Biso   1.000  C
  C393     1.0000 0.88924  0.77849  0.30596  Biso   1.000  C
  H198     1.0000 0.89873  0.79747  0.32877  Biso   1.000  H
  C394     1.0000 0.86103  0.72207  0.23841  Biso   1.000  C
  C395     1.0000 0.83713  0.67427  0.20587  Biso   1.000  C
  C396     1.0000 0.81063  0.62127  0.13597  Biso   1.000  C
  Cu1      1.0000 0.71442  0.85721  0.36145  Biso   1.000  Cu
  Cu2      1.0000 0.38109  0.19054  0.69479  Biso   1.000  Cu
  Cu3      1.0000 0.04775  0.52388  0.02812  Biso   1.000  Cu
  Cu4      1.0000 0.14279  0.85721  0.36145  Biso   1.000  Cu
  Cu5      1.0000 0.80946  0.19054  0.69479  Biso   1.000  Cu
  Cu6      1.0000 0.47612  0.52388  0.02812  Biso   1.000  Cu
  Cu7      1.0000 0.14279  0.28558  0.36145  Biso   1.000  Cu
  Cu8      1.0000 0.80946  0.61891  0.69479  Biso   1.000  Cu
  Cu9      1.0000 0.47612  0.95225  0.02812  Biso   1.000  Cu
  Cu10     1.0000 0.85721  0.71442  0.63855  Biso   1.000  Cu
  Cu11     1.0000 0.52388  0.04775  0.97188  Biso   1.000  Cu
  Cu12     1.0000 0.19054  0.38109  0.30521  Biso   1.000  Cu
  Cu13     1.0000 0.85721  0.14279  0.63855  Biso   1.000  Cu
  Cu14     1.0000 0.52388  0.47612  0.97188  Biso   1.000  Cu
  Cu15     1.0000 0.19054  0.80946  0.30521  Biso   1.000  Cu
  Cu16     1.0000 0.28558  0.14279  0.63855  Biso   1.000  Cu
  Cu17     1.0000 0.95225  0.47612  0.97188  Biso   1.000  Cu
  Cu18     1.0000 0.61891  0.80946  0.30521  Biso   1.000  Cu
