data_image0
_cell_length_a       23.7776
_cell_length_b       23.7776
_cell_length_c       75.9896
_cell_angle_alpha    90
_cell_angle_beta     90
_cell_angle_gamma    90

_symmetry_space_group_name_H-M    "P 1"
_symmetry_int_tables_number       1

loop_
  _symmetry_equiv_pos_as_xyz
  'x, y, z'

loop_
  _atom_site_label
  _atom_site_occupancy
  _atom_site_fract_x
  _atom_site_fract_y
  _atom_site_fract_z
  _atom_site_thermal_displace_type
  _atom_site_B_iso_or_equiv
  _atom_site_type_symbol
  Cu1      1.0000 0.95678  0.96532  0.13911  Biso   1.000  Cu
  C1       1.0000 0.15377  0.80139  0.21660  Biso   1.000  C
  C2       1.0000 0.17670  0.82838  0.23116  Biso   1.000  C
  H1       1.0000 0.17440  0.86730  0.23210  Biso   1.000  H
  C3       1.0000 0.20310  0.79720  0.24424  Biso   1.000  C
  C4       1.0000 0.20653  0.73903  0.24277  Biso   1.000  C
  C5       1.0000 0.18361  0.71204  0.22822  Biso   1.000  C
  C6       1.0000 0.15723  0.74322  0.21513  Biso   1.000  C
  C7       1.0000 0.13540  0.71570  0.19981  Biso   1.000  C
  H2       1.0000 0.12020  0.73700  0.19070  Biso   1.000  H
  C8       1.0000 0.13660  0.65750  0.19839  Biso   1.000  C
  C9       1.0000 0.16110  0.62630  0.21240  Biso   1.000  C
  H3       1.0000 0.16130  0.58730  0.21190  Biso   1.000  H
  C10      1.0000 0.18410  0.65270  0.22631  Biso   1.000  C
  H4       1.0000 0.20110  0.63120  0.23500  Biso   1.000  H
  C11      1.0000 0.12350  0.83960  0.20268  Biso   1.000  C
  C12      1.0000 0.06920  0.82780  0.19696  Biso   1.000  C
  H5       1.0000 0.04940  0.79780  0.20180  Biso   1.000  H
  C13      1.0000 0.04455  0.86080  0.18397  Biso   1.000  C
  H6       1.0000 0.00820  0.85290  0.18010  Biso   1.000  H
  C14      1.0000 0.07410  0.90552  0.17671  Biso   1.000  C
  C15      1.0000 0.12840  0.91732  0.18243  Biso   1.000  C
  H7       1.0000 0.14820  0.94730  0.17760  Biso   1.000  H
  C16      1.0000 0.15306  0.88440  0.19541  Biso   1.000  C
  H8       1.0000 0.18940  0.89230  0.19920  Biso   1.000  H
  O1       1.0000 0.99980  0.92540  0.15765  Biso   1.000  O
  O2       1.0000 0.00300  0.57240  0.12943  Biso   1.000  O
  O3       1.0000 0.07280  0.51150  0.12986  Biso   1.000  O
  C17      1.0000 0.11270  0.63050  0.18234  Biso   1.000  C
  C18      1.0000 0.14007  0.58460  0.17487  Biso   1.000  C
  H9       1.0000 0.17260  0.57050  0.18000  Biso   1.000  H
  C19      1.0000 0.11890  0.56004  0.15966  Biso   1.000  C
  H10      1.0000 0.13710  0.52940  0.15470  Biso   1.000  H
  C20      1.0000 0.07030  0.58130  0.15193  Biso   1.000  C
  C21      1.0000 0.04298  0.62710  0.15941  Biso   1.000  C
  H11      1.0000 0.01050  0.64130  0.15420  Biso   1.000  H
  C22      1.0000 0.06420  0.65169  0.17461  Biso   1.000  C
  H12      1.0000 0.04590  0.68230  0.17960  Biso   1.000  H
  C23      1.0000 0.04780  0.93960  0.16308  Biso   1.000  C
  C24      1.0000 0.04990  0.55180  0.13595  Biso   1.000  C
  C25      1.0000 0.20830  0.88630  0.26250  Biso   1.000  C
  C26      1.0000 0.19300  0.90600  0.27330  Biso   1.000  C
  O4       1.0000 0.07250  0.98150  0.15690  Biso   1.000  O
  O5       1.0000 0.22660  0.82160  0.25843  Biso   1.000  O
  C27      1.0000 0.75740  0.38110  0.99290  Biso   1.000  C
  C28      1.0000 0.74410  0.40160  0.97390  Biso   1.000  C
  Cu2      1.0000 0.45678  0.46532  0.63911  Biso   1.000  Cu
  C29      1.0000 0.65377  0.30139  0.71660  Biso   1.000  C
  C30      1.0000 0.67670  0.32838  0.73116  Biso   1.000  C
  H13      1.0000 0.67440  0.36730  0.73210  Biso   1.000  H
  C31      1.0000 0.70310  0.29720  0.74424  Biso   1.000  C
  C32      1.0000 0.70653  0.23903  0.74277  Biso   1.000  C
  C33      1.0000 0.68361  0.21204  0.72822  Biso   1.000  C
  C34      1.0000 0.65723  0.24322  0.71513  Biso   1.000  C
  C35      1.0000 0.63540  0.21570  0.69981  Biso   1.000  C
  H14      1.0000 0.62020  0.23700  0.69070  Biso   1.000  H
  C36      1.0000 0.63660  0.15750  0.69839  Biso   1.000  C
  C37      1.0000 0.66110  0.12630  0.71240  Biso   1.000  C
  H15      1.0000 0.66130  0.08730  0.71190  Biso   1.000  H
  C38      1.0000 0.68410  0.15270  0.72631  Biso   1.000  C
  H16      1.0000 0.70110  0.13120  0.73500  Biso   1.000  H
  C39      1.0000 0.62350  0.33960  0.70268  Biso   1.000  C
  C40      1.0000 0.56920  0.32780  0.69696  Biso   1.000  C
  H17      1.0000 0.54940  0.29780  0.70180  Biso   1.000  H
  C41      1.0000 0.54455  0.36080  0.68397  Biso   1.000  C
  H18      1.0000 0.50820  0.35290  0.68010  Biso   1.000  H
  C42      1.0000 0.57410  0.40552  0.67671  Biso   1.000  C
  C43      1.0000 0.62840  0.41732  0.68243  Biso   1.000  C
  H19      1.0000 0.64820  0.44730  0.67760  Biso   1.000  H
  C44      1.0000 0.65306  0.38440  0.69541  Biso   1.000  C
  H20      1.0000 0.68940  0.39230  0.69920  Biso   1.000  H
  O6       1.0000 0.49980  0.42540  0.65765  Biso   1.000  O
  O7       1.0000 0.50300  0.07240  0.62943  Biso   1.000  O
  O8       1.0000 0.57280  0.01150  0.62986  Biso   1.000  O
  C45      1.0000 0.61270  0.13050  0.68234  Biso   1.000  C
  C46      1.0000 0.64007  0.08460  0.67487  Biso   1.000  C
  H21      1.0000 0.67260  0.07050  0.68000  Biso   1.000  H
  C47      1.0000 0.61890  0.06004  0.65966  Biso   1.000  C
  H22      1.0000 0.63710  0.02940  0.65470  Biso   1.000  H
  C48      1.0000 0.57030  0.08130  0.65193  Biso   1.000  C
  C49      1.0000 0.54298  0.12710  0.65941  Biso   1.000  C
  H23      1.0000 0.51050  0.14130  0.65420  Biso   1.000  H
  C50      1.0000 0.56420  0.15169  0.67461  Biso   1.000  C
  H24      1.0000 0.54590  0.18230  0.67960  Biso   1.000  H
  C51      1.0000 0.54780  0.43960  0.66308  Biso   1.000  C
  C52      1.0000 0.54990  0.05180  0.63595  Biso   1.000  C
  C53      1.0000 0.70830  0.38630  0.76250  Biso   1.000  C
  C54      1.0000 0.69300  0.40600  0.77330  Biso   1.000  C
  O9       1.0000 0.57250  0.48150  0.65690  Biso   1.000  O
  O10      1.0000 0.72660  0.32160  0.75843  Biso   1.000  O
  C55      1.0000 0.25740  0.88110  0.49290  Biso   1.000  C
  C56      1.0000 0.24410  0.90160  0.47390  Biso   1.000  C
  Cu3      1.0000 0.54322  0.53468  0.63911  Biso   1.000  Cu
  C57      1.0000 0.34623  0.69861  0.71660  Biso   1.000  C
  C58      1.0000 0.32330  0.67162  0.73116  Biso   1.000  C
  H25      1.0000 0.32560  0.63270  0.73210  Biso   1.000  H
  C59      1.0000 0.29690  0.70280  0.74424  Biso   1.000  C
  C60      1.0000 0.29347  0.76097  0.74277  Biso   1.000  C
  C61      1.0000 0.31639  0.78796  0.72822  Biso   1.000  C
  C62      1.0000 0.34277  0.75678  0.71513  Biso   1.000  C
  C63      1.0000 0.36460  0.78430  0.69981  Biso   1.000  C
  H26      1.0000 0.37980  0.76300  0.69070  Biso   1.000  H
  C64      1.0000 0.36340  0.84250  0.69839  Biso   1.000  C
  C65      1.0000 0.33890  0.87370  0.71240  Biso   1.000  C
  H27      1.0000 0.33870  0.91270  0.71190  Biso   1.000  H
  C66      1.0000 0.31590  0.84730  0.72631  Biso   1.000  C
  H28      1.0000 0.29890  0.86880  0.73500  Biso   1.000  H
  C67      1.0000 0.37650  0.66040  0.70268  Biso   1.000  C
  C68      1.0000 0.43080  0.67220  0.69696  Biso   1.000  C
  H29      1.0000 0.45060  0.70220  0.70180  Biso   1.000  H
  C69      1.0000 0.45545  0.63920  0.68397  Biso   1.000  C
  H30      1.0000 0.49180  0.64710  0.68010  Biso   1.000  H
  C70      1.0000 0.42590  0.59448  0.67671  Biso   1.000  C
  C71      1.0000 0.37160  0.58268  0.68243  Biso   1.000  C
  H31      1.0000 0.35180  0.55270  0.67760  Biso   1.000  H
  C72      1.0000 0.34694  0.61560  0.69541  Biso   1.000  C
  H32      1.0000 0.31060  0.60770  0.69920  Biso   1.000  H
  O11      1.0000 0.50020  0.57460  0.65765  Biso   1.000  O
  O12      1.0000 0.49700  0.92760  0.62943  Biso   1.000  O
  O13      1.0000 0.42720  0.98850  0.62986  Biso   1.000  O
  C73      1.0000 0.38730  0.86950  0.68234  Biso   1.000  C
  C74      1.0000 0.35993  0.91540  0.67487  Biso   1.000  C
  H33      1.0000 0.32740  0.92950  0.68000  Biso   1.000  H
  C75      1.0000 0.38110  0.93996  0.65966  Biso   1.000  C
  H34      1.0000 0.36290  0.97060  0.65470  Biso   1.000  H
  C76      1.0000 0.42970  0.91870  0.65193  Biso   1.000  C
  C77      1.0000 0.45702  0.87290  0.65941  Biso   1.000  C
  H35      1.0000 0.48950  0.85870  0.65420  Biso   1.000  H
  C78      1.0000 0.43580  0.84831  0.67461  Biso   1.000  C
  H36      1.0000 0.45410  0.81770  0.67960  Biso   1.000  H
  C79      1.0000 0.45220  0.56040  0.66308  Biso   1.000  C
  C80      1.0000 0.45010  0.94820  0.63595  Biso   1.000  C
  C81      1.0000 0.29170  0.61370  0.76250  Biso   1.000  C
  C82      1.0000 0.30700  0.59400  0.77330  Biso   1.000  C
  O14      1.0000 0.42750  0.51850  0.65690  Biso   1.000  O
  O15      1.0000 0.27340  0.67840  0.75843  Biso   1.000  O
  C83      1.0000 0.74260  0.11890  0.49290  Biso   1.000  C
  C84      1.0000 0.75590  0.09840  0.47390  Biso   1.000  C
  Cu4      1.0000 0.04322  0.03468  0.13911  Biso   1.000  Cu
  C85      1.0000 0.84623  0.19861  0.21660  Biso   1.000  C
  C86      1.0000 0.82330  0.17162  0.23116  Biso   1.000  C
  H37      1.0000 0.82560  0.13270  0.23210  Biso   1.000  H
  C87      1.0000 0.79690  0.20280  0.24424  Biso   1.000  C
  C88      1.0000 0.79347  0.26097  0.24277  Biso   1.000  C
  C89      1.0000 0.81639  0.28796  0.22822  Biso   1.000  C
  C90      1.0000 0.84277  0.25678  0.21513  Biso   1.000  C
  C91      1.0000 0.86460  0.28430  0.19981  Biso   1.000  C
  H38      1.0000 0.87980  0.26300  0.19070  Biso   1.000  H
  C92      1.0000 0.86340  0.34250  0.19839  Biso   1.000  C
  C93      1.0000 0.83890  0.37370  0.21240  Biso   1.000  C
  H39      1.0000 0.83870  0.41270  0.21190  Biso   1.000  H
  C94      1.0000 0.81590  0.34730  0.22631  Biso   1.000  C
  H40      1.0000 0.79890  0.36880  0.23500  Biso   1.000  H
  C95      1.0000 0.87650  0.16040  0.20268  Biso   1.000  C
  C96      1.0000 0.93080  0.17220  0.19696  Biso   1.000  C
  H41      1.0000 0.95060  0.20220  0.20180  Biso   1.000  H
  C97      1.0000 0.95545  0.13920  0.18397  Biso   1.000  C
  H42      1.0000 0.99180  0.14710  0.18010  Biso   1.000  H
  C98      1.0000 0.92590  0.09448  0.17671  Biso   1.000  C
  C99      1.0000 0.87160  0.08268  0.18243  Biso   1.000  C
  H43      1.0000 0.85180  0.05270  0.17760  Biso   1.000  H
  C100     1.0000 0.84694  0.11560  0.19541  Biso   1.000  C
  H44      1.0000 0.81060  0.10770  0.19920  Biso   1.000  H
  O16      1.0000 0.00020  0.07460  0.15765  Biso   1.000  O
  O17      1.0000 0.99700  0.42760  0.12943  Biso   1.000  O
  O18      1.0000 0.92720  0.48850  0.12986  Biso   1.000  O
  C101     1.0000 0.88730  0.36950  0.18234  Biso   1.000  C
  C102     1.0000 0.85993  0.41540  0.17487  Biso   1.000  C
  H45      1.0000 0.82740  0.42950  0.18000  Biso   1.000  H
  C103     1.0000 0.88110  0.43996  0.15966  Biso   1.000  C
  H46      1.0000 0.86290  0.47060  0.15470  Biso   1.000  H
  C104     1.0000 0.92970  0.41870  0.15193  Biso   1.000  C
  C105     1.0000 0.95702  0.37290  0.15941  Biso   1.000  C
  H47      1.0000 0.98950  0.35870  0.15420  Biso   1.000  H
  C106     1.0000 0.93580  0.34831  0.17461  Biso   1.000  C
  H48      1.0000 0.95410  0.31770  0.17960  Biso   1.000  H
  C107     1.0000 0.95220  0.06040  0.16308  Biso   1.000  C
  C108     1.0000 0.95010  0.44820  0.13595  Biso   1.000  C
  C109     1.0000 0.79170  0.11370  0.26250  Biso   1.000  C
  C110     1.0000 0.80700  0.09400  0.27330  Biso   1.000  C
  O19      1.0000 0.92750  0.01850  0.15690  Biso   1.000  O
  O20      1.0000 0.77340  0.17840  0.25843  Biso   1.000  O
  C111     1.0000 0.24260  0.61890  0.99290  Biso   1.000  C
  C112     1.0000 0.25590  0.59840  0.97390  Biso   1.000  C
  Cu5      1.0000 0.03468  0.45678  0.38911  Biso   1.000  Cu
  C113     1.0000 0.19861  0.65377  0.46660  Biso   1.000  C
  C114     1.0000 0.17162  0.67670  0.48116  Biso   1.000  C
  H49      1.0000 0.13270  0.67440  0.48210  Biso   1.000  H
  C115     1.0000 0.20280  0.70310  0.49424  Biso   1.000  C
  C116     1.0000 0.26097  0.70653  0.49277  Biso   1.000  C
  C117     1.0000 0.28796  0.68361  0.47822  Biso   1.000  C
  C118     1.0000 0.25678  0.65723  0.46513  Biso   1.000  C
  C119     1.0000 0.28430  0.63540  0.44981  Biso   1.000  C
  H50      1.0000 0.26300  0.62020  0.44070  Biso   1.000  H
  C120     1.0000 0.34250  0.63660  0.44839  Biso   1.000  C
  C121     1.0000 0.37370  0.66110  0.46240  Biso   1.000  C
  H51      1.0000 0.41270  0.66130  0.46190  Biso   1.000  H
  C122     1.0000 0.34730  0.68410  0.47631  Biso   1.000  C
  H52      1.0000 0.36880  0.70110  0.48500  Biso   1.000  H
  C123     1.0000 0.16040  0.62350  0.45268  Biso   1.000  C
  C124     1.0000 0.17220  0.56920  0.44696  Biso   1.000  C
  H53      1.0000 0.20220  0.54940  0.45180  Biso   1.000  H
  C125     1.0000 0.13920  0.54455  0.43397  Biso   1.000  C
  H54      1.0000 0.14710  0.50820  0.43010  Biso   1.000  H
  C126     1.0000 0.09448  0.57410  0.42671  Biso   1.000  C
  C127     1.0000 0.08268  0.62840  0.43243  Biso   1.000  C
  H55      1.0000 0.05270  0.64820  0.42760  Biso   1.000  H
  C128     1.0000 0.11560  0.65306  0.44541  Biso   1.000  C
  H56      1.0000 0.10770  0.68940  0.44920  Biso   1.000  H
  O21      1.0000 0.07460  0.49980  0.40765  Biso   1.000  O
  O22      1.0000 0.42760  0.50300  0.37943  Biso   1.000  O
  O23      1.0000 0.48850  0.57280  0.37986  Biso   1.000  O
  C129     1.0000 0.36950  0.61270  0.43234  Biso   1.000  C
  C130     1.0000 0.41540  0.64007  0.42487  Biso   1.000  C
  H57      1.0000 0.42950  0.67260  0.43000  Biso   1.000  H
  C131     1.0000 0.43996  0.61890  0.40966  Biso   1.000  C
  H58      1.0000 0.47060  0.63710  0.40470  Biso   1.000  H
  C132     1.0000 0.41870  0.57030  0.40193  Biso   1.000  C
  C133     1.0000 0.37290  0.54298  0.40941  Biso   1.000  C
  H59      1.0000 0.35870  0.51050  0.40420  Biso   1.000  H
  C134     1.0000 0.34831  0.56420  0.42461  Biso   1.000  C
  H60      1.0000 0.31770  0.54590  0.42960  Biso   1.000  H
  C135     1.0000 0.06040  0.54780  0.41308  Biso   1.000  C
  C136     1.0000 0.44820  0.54990  0.38595  Biso   1.000  C
  C137     1.0000 0.11370  0.70830  0.51250  Biso   1.000  C
  C138     1.0000 0.09400  0.69300  0.52330  Biso   1.000  C
  O24      1.0000 0.01850  0.57250  0.40690  Biso   1.000  O
  O25      1.0000 0.17840  0.72660  0.50843  Biso   1.000  O
  C139     1.0000 0.61890  0.25740  0.24290  Biso   1.000  C
  C140     1.0000 0.59840  0.24410  0.22390  Biso   1.000  C
  Cu6      1.0000 0.53468  0.95678  0.88911  Biso   1.000  Cu
  C141     1.0000 0.69861  0.15377  0.96660  Biso   1.000  C
  C142     1.0000 0.67162  0.17670  0.98116  Biso   1.000  C
  H61      1.0000 0.63270  0.17440  0.98210  Biso   1.000  H
  C143     1.0000 0.70280  0.20310  0.99424  Biso   1.000  C
  C144     1.0000 0.76097  0.20653  0.99277  Biso   1.000  C
  C145     1.0000 0.78796  0.18361  0.97822  Biso   1.000  C
  C146     1.0000 0.75678  0.15723  0.96513  Biso   1.000  C
  C147     1.0000 0.78430  0.13540  0.94981  Biso   1.000  C
  H62      1.0000 0.76300  0.12020  0.94070  Biso   1.000  H
  C148     1.0000 0.84250  0.13660  0.94839  Biso   1.000  C
  C149     1.0000 0.87370  0.16110  0.96240  Biso   1.000  C
  H63      1.0000 0.91270  0.16130  0.96190  Biso   1.000  H
  C150     1.0000 0.84730  0.18410  0.97631  Biso   1.000  C
  H64      1.0000 0.86880  0.20110  0.98500  Biso   1.000  H
  C151     1.0000 0.66040  0.12350  0.95268  Biso   1.000  C
  C152     1.0000 0.67220  0.06920  0.94696  Biso   1.000  C
  H65      1.0000 0.70220  0.04940  0.95180  Biso   1.000  H
  C153     1.0000 0.63920  0.04455  0.93397  Biso   1.000  C
  H66      1.0000 0.64710  0.00820  0.93010  Biso   1.000  H
  C154     1.0000 0.59448  0.07410  0.92671  Biso   1.000  C
  C155     1.0000 0.58268  0.12840  0.93243  Biso   1.000  C
  H67      1.0000 0.55270  0.14820  0.92760  Biso   1.000  H
  C156     1.0000 0.61560  0.15306  0.94541  Biso   1.000  C
  H68      1.0000 0.60770  0.18940  0.94920  Biso   1.000  H
  O26      1.0000 0.57460  0.99980  0.90765  Biso   1.000  O
  O27      1.0000 0.92760  0.00300  0.87943  Biso   1.000  O
  O28      1.0000 0.98850  0.07280  0.87986  Biso   1.000  O
  C157     1.0000 0.86950  0.11270  0.93234  Biso   1.000  C
  C158     1.0000 0.91540  0.14007  0.92487  Biso   1.000  C
  H69      1.0000 0.92950  0.17260  0.93000  Biso   1.000  H
  C159     1.0000 0.93996  0.11890  0.90966  Biso   1.000  C
  H70      1.0000 0.97060  0.13710  0.90470  Biso   1.000  H
  C160     1.0000 0.91870  0.07030  0.90193  Biso   1.000  C
  C161     1.0000 0.87290  0.04298  0.90941  Biso   1.000  C
  H71      1.0000 0.85870  0.01050  0.90420  Biso   1.000  H
  C162     1.0000 0.84831  0.06420  0.92461  Biso   1.000  C
  H72      1.0000 0.81770  0.04590  0.92960  Biso   1.000  H
  C163     1.0000 0.56040  0.04780  0.91308  Biso   1.000  C
  C164     1.0000 0.94820  0.04990  0.88595  Biso   1.000  C
  C165     1.0000 0.61370  0.20830  0.01250  Biso   1.000  C
  C166     1.0000 0.59400  0.19300  0.02330  Biso   1.000  C
  O29      1.0000 0.51850  0.07250  0.90690  Biso   1.000  O
  O30      1.0000 0.67840  0.22660  0.00843  Biso   1.000  O
  C167     1.0000 0.11890  0.75740  0.74290  Biso   1.000  C
  C168     1.0000 0.09840  0.74410  0.72390  Biso   1.000  C
  Cu7      1.0000 0.46532  0.04322  0.88911  Biso   1.000  Cu
  C169     1.0000 0.30139  0.84623  0.96660  Biso   1.000  C
  C170     1.0000 0.32838  0.82330  0.98116  Biso   1.000  C
  H73      1.0000 0.36730  0.82560  0.98210  Biso   1.000  H
  C171     1.0000 0.29720  0.79690  0.99424  Biso   1.000  C
  C172     1.0000 0.23903  0.79347  0.99277  Biso   1.000  C
  C173     1.0000 0.21204  0.81639  0.97822  Biso   1.000  C
  C174     1.0000 0.24322  0.84277  0.96513  Biso   1.000  C
  C175     1.0000 0.21570  0.86460  0.94981  Biso   1.000  C
  H74      1.0000 0.23700  0.87980  0.94070  Biso   1.000  H
  C176     1.0000 0.15750  0.86340  0.94839  Biso   1.000  C
  C177     1.0000 0.12630  0.83890  0.96240  Biso   1.000  C
  H75      1.0000 0.08730  0.83870  0.96190  Biso   1.000  H
  C178     1.0000 0.15270  0.81590  0.97631  Biso   1.000  C
  H76      1.0000 0.13120  0.79890  0.98500  Biso   1.000  H
  C179     1.0000 0.33960  0.87650  0.95268  Biso   1.000  C
  C180     1.0000 0.32780  0.93080  0.94696  Biso   1.000  C
  H77      1.0000 0.29780  0.95060  0.95180  Biso   1.000  H
  C181     1.0000 0.36080  0.95545  0.93397  Biso   1.000  C
  H78      1.0000 0.35290  0.99180  0.93010  Biso   1.000  H
  C182     1.0000 0.40552  0.92590  0.92671  Biso   1.000  C
  C183     1.0000 0.41732  0.87160  0.93243  Biso   1.000  C
  H79      1.0000 0.44730  0.85180  0.92760  Biso   1.000  H
  C184     1.0000 0.38440  0.84694  0.94541  Biso   1.000  C
  H80      1.0000 0.39230  0.81060  0.94920  Biso   1.000  H
  O31      1.0000 0.42540  0.00020  0.90765  Biso   1.000  O
  O32      1.0000 0.07240  0.99700  0.87943  Biso   1.000  O
  O33      1.0000 0.01150  0.92720  0.87986  Biso   1.000  O
  C185     1.0000 0.13050  0.88730  0.93234  Biso   1.000  C
  C186     1.0000 0.08460  0.85993  0.92487  Biso   1.000  C
  H81      1.0000 0.07050  0.82740  0.93000  Biso   1.000  H
  C187     1.0000 0.06004  0.88110  0.90966  Biso   1.000  C
  H82      1.0000 0.02940  0.86290  0.90470  Biso   1.000  H
  C188     1.0000 0.08130  0.92970  0.90193  Biso   1.000  C
  C189     1.0000 0.12710  0.95702  0.90941  Biso   1.000  C
  H83      1.0000 0.14130  0.98950  0.90420  Biso   1.000  H
  C190     1.0000 0.15169  0.93580  0.92461  Biso   1.000  C
  H84      1.0000 0.18230  0.95410  0.92960  Biso   1.000  H
  C191     1.0000 0.43960  0.95220  0.91308  Biso   1.000  C
  C192     1.0000 0.05180  0.95010  0.88595  Biso   1.000  C
  C193     1.0000 0.38630  0.79170  0.01250  Biso   1.000  C
  C194     1.0000 0.40600  0.80700  0.02330  Biso   1.000  C
  O34      1.0000 0.48150  0.92750  0.90690  Biso   1.000  O
  O35      1.0000 0.32160  0.77340  0.00843  Biso   1.000  O
  C195     1.0000 0.88110  0.24260  0.74290  Biso   1.000  C
  C196     1.0000 0.90160  0.25590  0.72390  Biso   1.000  C
  Cu8      1.0000 0.96532  0.54322  0.38911  Biso   1.000  Cu
  C197     1.0000 0.80139  0.34623  0.46660  Biso   1.000  C
  C198     1.0000 0.82838  0.32330  0.48116  Biso   1.000  C
  H85      1.0000 0.86730  0.32560  0.48210  Biso   1.000  H
  C199     1.0000 0.79720  0.29690  0.49424  Biso   1.000  C
  C200     1.0000 0.73903  0.29347  0.49277  Biso   1.000  C
  C201     1.0000 0.71204  0.31639  0.47822  Biso   1.000  C
  C202     1.0000 0.74322  0.34277  0.46513  Biso   1.000  C
  C203     1.0000 0.71570  0.36460  0.44981  Biso   1.000  C
  H86      1.0000 0.73700  0.37980  0.44070  Biso   1.000  H
  C204     1.0000 0.65750  0.36340  0.44839  Biso   1.000  C
  C205     1.0000 0.62630  0.33890  0.46240  Biso   1.000  C
  H87      1.0000 0.58730  0.33870  0.46190  Biso   1.000  H
  C206     1.0000 0.65270  0.31590  0.47631  Biso   1.000  C
  H88      1.0000 0.63120  0.29890  0.48500  Biso   1.000  H
  C207     1.0000 0.83960  0.37650  0.45268  Biso   1.000  C
  C208     1.0000 0.82780  0.43080  0.44696  Biso   1.000  C
  H89      1.0000 0.79780  0.45060  0.45180  Biso   1.000  H
  C209     1.0000 0.86080  0.45545  0.43397  Biso   1.000  C
  H90      1.0000 0.85290  0.49180  0.43010  Biso   1.000  H
  C210     1.0000 0.90552  0.42590  0.42671  Biso   1.000  C
  C211     1.0000 0.91732  0.37160  0.43243  Biso   1.000  C
  H91      1.0000 0.94730  0.35180  0.42760  Biso   1.000  H
  C212     1.0000 0.88440  0.34694  0.44541  Biso   1.000  C
  H92      1.0000 0.89230  0.31060  0.44920  Biso   1.000  H
  O36      1.0000 0.92540  0.50020  0.40765  Biso   1.000  O
  O37      1.0000 0.57240  0.49700  0.37943  Biso   1.000  O
  O38      1.0000 0.51150  0.42720  0.37986  Biso   1.000  O
  C213     1.0000 0.63050  0.38730  0.43234  Biso   1.000  C
  C214     1.0000 0.58460  0.35993  0.42487  Biso   1.000  C
  H93      1.0000 0.57050  0.32740  0.43000  Biso   1.000  H
  C215     1.0000 0.56004  0.38110  0.40966  Biso   1.000  C
  H94      1.0000 0.52940  0.36290  0.40470  Biso   1.000  H
  C216     1.0000 0.58130  0.42970  0.40193  Biso   1.000  C
  C217     1.0000 0.62710  0.45702  0.40941  Biso   1.000  C
  H95      1.0000 0.64130  0.48950  0.40420  Biso   1.000  H
  C218     1.0000 0.65169  0.43580  0.42461  Biso   1.000  C
  H96      1.0000 0.68230  0.45410  0.42960  Biso   1.000  H
  C219     1.0000 0.93960  0.45220  0.41308  Biso   1.000  C
  C220     1.0000 0.55180  0.45010  0.38595  Biso   1.000  C
  C221     1.0000 0.88630  0.29170  0.51250  Biso   1.000  C
  C222     1.0000 0.90600  0.30700  0.52330  Biso   1.000  C
  O39      1.0000 0.98150  0.42750  0.40690  Biso   1.000  O
  O40      1.0000 0.82160  0.27340  0.50843  Biso   1.000  O
  C223     1.0000 0.38110  0.74260  0.24290  Biso   1.000  C
  C224     1.0000 0.40160  0.75590  0.22390  Biso   1.000  C
  Cu9      1.0000 0.54322  0.96532  0.61089  Biso   1.000  Cu
  C225     1.0000 0.34623  0.80139  0.53340  Biso   1.000  C
  C226     1.0000 0.32330  0.82838  0.51884  Biso   1.000  C
  H97      1.0000 0.32560  0.86730  0.51790  Biso   1.000  H
  C227     1.0000 0.29690  0.79720  0.50576  Biso   1.000  C
  C228     1.0000 0.29347  0.73903  0.50723  Biso   1.000  C
  C229     1.0000 0.31639  0.71204  0.52178  Biso   1.000  C
  C230     1.0000 0.34277  0.74322  0.53487  Biso   1.000  C
  C231     1.0000 0.36460  0.71570  0.55019  Biso   1.000  C
  H98      1.0000 0.37980  0.73700  0.55930  Biso   1.000  H
  C232     1.0000 0.36340  0.65750  0.55161  Biso   1.000  C
  C233     1.0000 0.33890  0.62630  0.53760  Biso   1.000  C
  H99      1.0000 0.33870  0.58730  0.53810  Biso   1.000  H
  C234     1.0000 0.31590  0.65270  0.52369  Biso   1.000  C
  H100     1.0000 0.29890  0.63120  0.51500  Biso   1.000  H
  C235     1.0000 0.37650  0.83960  0.54732  Biso   1.000  C
  C236     1.0000 0.43080  0.82780  0.55304  Biso   1.000  C
  H101     1.0000 0.45060  0.79780  0.54820  Biso   1.000  H
  C237     1.0000 0.45545  0.86080  0.56603  Biso   1.000  C
  H102     1.0000 0.49180  0.85290  0.56990  Biso   1.000  H
  C238     1.0000 0.42590  0.90552  0.57329  Biso   1.000  C
  C239     1.0000 0.37160  0.91732  0.56757  Biso   1.000  C
  H103     1.0000 0.35180  0.94730  0.57240  Biso   1.000  H
  C240     1.0000 0.34694  0.88440  0.55459  Biso   1.000  C
  H104     1.0000 0.31060  0.89230  0.55080  Biso   1.000  H
  O41      1.0000 0.50020  0.92540  0.59235  Biso   1.000  O
  O42      1.0000 0.49700  0.57240  0.62057  Biso   1.000  O
  O43      1.0000 0.42720  0.51150  0.62014  Biso   1.000  O
  C241     1.0000 0.38730  0.63050  0.56766  Biso   1.000  C
  C242     1.0000 0.35993  0.58460  0.57513  Biso   1.000  C
  H105     1.0000 0.32740  0.57050  0.57000  Biso   1.000  H
  C243     1.0000 0.38110  0.56004  0.59034  Biso   1.000  C
  H106     1.0000 0.36290  0.52940  0.59530  Biso   1.000  H
  C244     1.0000 0.42970  0.58130  0.59807  Biso   1.000  C
  C245     1.0000 0.45702  0.62710  0.59059  Biso   1.000  C
  H107     1.0000 0.48950  0.64130  0.59580  Biso   1.000  H
  C246     1.0000 0.43580  0.65169  0.57539  Biso   1.000  C
  H108     1.0000 0.45410  0.68230  0.57040  Biso   1.000  H
  C247     1.0000 0.45220  0.93960  0.58692  Biso   1.000  C
  C248     1.0000 0.45010  0.55180  0.61405  Biso   1.000  C
  C249     1.0000 0.29170  0.88630  0.48750  Biso   1.000  C
  C250     1.0000 0.30700  0.90600  0.47670  Biso   1.000  C
  O44      1.0000 0.42750  0.98150  0.59310  Biso   1.000  O
  O45      1.0000 0.27340  0.82160  0.49157  Biso   1.000  O
  C251     1.0000 0.74260  0.38110  0.75710  Biso   1.000  C
  C252     1.0000 0.75590  0.40160  0.77610  Biso   1.000  C
  Cu10     1.0000 0.04322  0.46532  0.11089  Biso   1.000  Cu
  C253     1.0000 0.84623  0.30139  0.03340  Biso   1.000  C
  C254     1.0000 0.82330  0.32838  0.01884  Biso   1.000  C
  H109     1.0000 0.82560  0.36730  0.01790  Biso   1.000  H
  C255     1.0000 0.79690  0.29720  0.00576  Biso   1.000  C
  C256     1.0000 0.79347  0.23903  0.00723  Biso   1.000  C
  C257     1.0000 0.81639  0.21204  0.02178  Biso   1.000  C
  C258     1.0000 0.84277  0.24322  0.03487  Biso   1.000  C
  C259     1.0000 0.86460  0.21570  0.05019  Biso   1.000  C
  H110     1.0000 0.87980  0.23700  0.05930  Biso   1.000  H
  C260     1.0000 0.86340  0.15750  0.05161  Biso   1.000  C
  C261     1.0000 0.83890  0.12630  0.03760  Biso   1.000  C
  H111     1.0000 0.83870  0.08730  0.03810  Biso   1.000  H
  C262     1.0000 0.81590  0.15270  0.02369  Biso   1.000  C
  H112     1.0000 0.79890  0.13120  0.01500  Biso   1.000  H
  C263     1.0000 0.87650  0.33960  0.04732  Biso   1.000  C
  C264     1.0000 0.93080  0.32780  0.05304  Biso   1.000  C
  H113     1.0000 0.95060  0.29780  0.04820  Biso   1.000  H
  C265     1.0000 0.95545  0.36080  0.06603  Biso   1.000  C
  H114     1.0000 0.99180  0.35290  0.06990  Biso   1.000  H
  C266     1.0000 0.92590  0.40552  0.07329  Biso   1.000  C
  C267     1.0000 0.87160  0.41732  0.06757  Biso   1.000  C
  H115     1.0000 0.85180  0.44730  0.07240  Biso   1.000  H
  C268     1.0000 0.84694  0.38440  0.05459  Biso   1.000  C
  H116     1.0000 0.81060  0.39230  0.05080  Biso   1.000  H
  O46      1.0000 0.00020  0.42540  0.09235  Biso   1.000  O
  O47      1.0000 0.99700  0.07240  0.12057  Biso   1.000  O
  O48      1.0000 0.92720  0.01150  0.12014  Biso   1.000  O
  C269     1.0000 0.88730  0.13050  0.06766  Biso   1.000  C
  C270     1.0000 0.85993  0.08460  0.07513  Biso   1.000  C
  H117     1.0000 0.82740  0.07050  0.07000  Biso   1.000  H
  C271     1.0000 0.88110  0.06004  0.09034  Biso   1.000  C
  H118     1.0000 0.86290  0.02940  0.09530  Biso   1.000  H
  C272     1.0000 0.92970  0.08130  0.09807  Biso   1.000  C
  C273     1.0000 0.95702  0.12710  0.09059  Biso   1.000  C
  H119     1.0000 0.98950  0.14130  0.09580  Biso   1.000  H
  C274     1.0000 0.93580  0.15169  0.07539  Biso   1.000  C
  H120     1.0000 0.95410  0.18230  0.07040  Biso   1.000  H
  C275     1.0000 0.95220  0.43960  0.08692  Biso   1.000  C
  C276     1.0000 0.95010  0.05180  0.11405  Biso   1.000  C
  C277     1.0000 0.79170  0.38630  0.98750  Biso   1.000  C
  C278     1.0000 0.80700  0.40600  0.97670  Biso   1.000  C
  O49      1.0000 0.92750  0.48150  0.09310  Biso   1.000  O
  O50      1.0000 0.77340  0.32160  0.99157  Biso   1.000  O
  C279     1.0000 0.24260  0.88110  0.25710  Biso   1.000  C
  C280     1.0000 0.25590  0.90160  0.27610  Biso   1.000  C
  Cu11     1.0000 0.95678  0.53468  0.11089  Biso   1.000  Cu
  C281     1.0000 0.15377  0.69861  0.03340  Biso   1.000  C
  C282     1.0000 0.17670  0.67162  0.01884  Biso   1.000  C
  H121     1.0000 0.17440  0.63270  0.01790  Biso   1.000  H
  C283     1.0000 0.20310  0.70280  0.00576  Biso   1.000  C
  C284     1.0000 0.20653  0.76097  0.00723  Biso   1.000  C
  C285     1.0000 0.18361  0.78796  0.02178  Biso   1.000  C
  C286     1.0000 0.15723  0.75678  0.03487  Biso   1.000  C
  C287     1.0000 0.13540  0.78430  0.05019  Biso   1.000  C
  H122     1.0000 0.12020  0.76300  0.05930  Biso   1.000  H
  C288     1.0000 0.13660  0.84250  0.05161  Biso   1.000  C
  C289     1.0000 0.16110  0.87370  0.03760  Biso   1.000  C
  H123     1.0000 0.16130  0.91270  0.03810  Biso   1.000  H
  C290     1.0000 0.18410  0.84730  0.02369  Biso   1.000  C
  H124     1.0000 0.20110  0.86880  0.01500  Biso   1.000  H
  C291     1.0000 0.12350  0.66040  0.04732  Biso   1.000  C
  C292     1.0000 0.06920  0.67220  0.05304  Biso   1.000  C
  H125     1.0000 0.04940  0.70220  0.04820  Biso   1.000  H
  C293     1.0000 0.04455  0.63920  0.06603  Biso   1.000  C
  H126     1.0000 0.00820  0.64710  0.06990  Biso   1.000  H
  C294     1.0000 0.07410  0.59448  0.07329  Biso   1.000  C
  C295     1.0000 0.12840  0.58268  0.06757  Biso   1.000  C
  H127     1.0000 0.14820  0.55270  0.07240  Biso   1.000  H
  C296     1.0000 0.15306  0.61560  0.05459  Biso   1.000  C
  H128     1.0000 0.18940  0.60770  0.05080  Biso   1.000  H
  O51      1.0000 0.99980  0.57460  0.09235  Biso   1.000  O
  O52      1.0000 0.00300  0.92760  0.12057  Biso   1.000  O
  O53      1.0000 0.07280  0.98850  0.12014  Biso   1.000  O
  C297     1.0000 0.11270  0.86950  0.06766  Biso   1.000  C
  C298     1.0000 0.14007  0.91540  0.07513  Biso   1.000  C
  H129     1.0000 0.17260  0.92950  0.07000  Biso   1.000  H
  C299     1.0000 0.11890  0.93996  0.09034  Biso   1.000  C
  H130     1.0000 0.13710  0.97060  0.09530  Biso   1.000  H
  C300     1.0000 0.07030  0.91870  0.09807  Biso   1.000  C
  C301     1.0000 0.04298  0.87290  0.09059  Biso   1.000  C
  H131     1.0000 0.01050  0.85870  0.09580  Biso   1.000  H
  C302     1.0000 0.06420  0.84831  0.07539  Biso   1.000  C
  H132     1.0000 0.04590  0.81770  0.07040  Biso   1.000  H
  C303     1.0000 0.04780  0.56040  0.08692  Biso   1.000  C
  C304     1.0000 0.04990  0.94820  0.11405  Biso   1.000  C
  C305     1.0000 0.20830  0.61370  0.98750  Biso   1.000  C
  C306     1.0000 0.19300  0.59400  0.97670  Biso   1.000  C
  O54      1.0000 0.07250  0.51850  0.09310  Biso   1.000  O
  O55      1.0000 0.22660  0.67840  0.99157  Biso   1.000  O
  C307     1.0000 0.75740  0.11890  0.25710  Biso   1.000  C
  C308     1.0000 0.74410  0.09840  0.27610  Biso   1.000  C
  Cu12     1.0000 0.45678  0.03468  0.61089  Biso   1.000  Cu
  C309     1.0000 0.65377  0.19861  0.53340  Biso   1.000  C
  C310     1.0000 0.67670  0.17162  0.51884  Biso   1.000  C
  H133     1.0000 0.67440  0.13270  0.51790  Biso   1.000  H
  C311     1.0000 0.70310  0.20280  0.50576  Biso   1.000  C
  C312     1.0000 0.70653  0.26097  0.50723  Biso   1.000  C
  C313     1.0000 0.68361  0.28796  0.52178  Biso   1.000  C
  C314     1.0000 0.65723  0.25678  0.53487  Biso   1.000  C
  C315     1.0000 0.63540  0.28430  0.55019  Biso   1.000  C
  H134     1.0000 0.62020  0.26300  0.55930  Biso   1.000  H
  C316     1.0000 0.63660  0.34250  0.55161  Biso   1.000  C
  C317     1.0000 0.66110  0.37370  0.53760  Biso   1.000  C
  H135     1.0000 0.66130  0.41270  0.53810  Biso   1.000  H
  C318     1.0000 0.68410  0.34730  0.52369  Biso   1.000  C
  H136     1.0000 0.70110  0.36880  0.51500  Biso   1.000  H
  C319     1.0000 0.62350  0.16040  0.54732  Biso   1.000  C
  C320     1.0000 0.56920  0.17220  0.55304  Biso   1.000  C
  H137     1.0000 0.54940  0.20220  0.54820  Biso   1.000  H
  C321     1.0000 0.54455  0.13920  0.56603  Biso   1.000  C
  H138     1.0000 0.50820  0.14710  0.56990  Biso   1.000  H
  C322     1.0000 0.57410  0.09448  0.57329  Biso   1.000  C
  C323     1.0000 0.62840  0.08268  0.56757  Biso   1.000  C
  H139     1.0000 0.64820  0.05270  0.57240  Biso   1.000  H
  C324     1.0000 0.65306  0.11560  0.55459  Biso   1.000  C
  H140     1.0000 0.68940  0.10770  0.55080  Biso   1.000  H
  O56      1.0000 0.49980  0.07460  0.59235  Biso   1.000  O
  O57      1.0000 0.50300  0.42760  0.62057  Biso   1.000  O
  O58      1.0000 0.57280  0.48850  0.62014  Biso   1.000  O
  C325     1.0000 0.61270  0.36950  0.56766  Biso   1.000  C
  C326     1.0000 0.64007  0.41540  0.57513  Biso   1.000  C
  H141     1.0000 0.67260  0.42950  0.57000  Biso   1.000  H
  C327     1.0000 0.61890  0.43996  0.59034  Biso   1.000  C
  H142     1.0000 0.63710  0.47060  0.59530  Biso   1.000  H
  C328     1.0000 0.57030  0.41870  0.59807  Biso   1.000  C
  C329     1.0000 0.54298  0.37290  0.59059  Biso   1.000  C
  H143     1.0000 0.51050  0.35870  0.59580  Biso   1.000  H
  C330     1.0000 0.56420  0.34831  0.57539  Biso   1.000  C
  H144     1.0000 0.54590  0.31770  0.57040  Biso   1.000  H
  C331     1.0000 0.54780  0.06040  0.58692  Biso   1.000  C
  C332     1.0000 0.54990  0.44820  0.61405  Biso   1.000  C
  C333     1.0000 0.70830  0.11370  0.48750  Biso   1.000  C
  C334     1.0000 0.69300  0.09400  0.47670  Biso   1.000  C
  O59      1.0000 0.57250  0.01850  0.59310  Biso   1.000  O
  O60      1.0000 0.72660  0.17840  0.49157  Biso   1.000  O
  C335     1.0000 0.25740  0.61890  0.75710  Biso   1.000  C
  C336     1.0000 0.24410  0.59840  0.77610  Biso   1.000  C
  Cu13     1.0000 0.46532  0.45678  0.36089  Biso   1.000  Cu
  C337     1.0000 0.30139  0.65377  0.28340  Biso   1.000  C
  C338     1.0000 0.32838  0.67670  0.26884  Biso   1.000  C
  H145     1.0000 0.36730  0.67440  0.26790  Biso   1.000  H
  C339     1.0000 0.29720  0.70310  0.25576  Biso   1.000  C
  C340     1.0000 0.23903  0.70653  0.25723  Biso   1.000  C
  C341     1.0000 0.21204  0.68361  0.27178  Biso   1.000  C
  C342     1.0000 0.24322  0.65723  0.28487  Biso   1.000  C
  C343     1.0000 0.21570  0.63540  0.30019  Biso   1.000  C
  H146     1.0000 0.23700  0.62020  0.30930  Biso   1.000  H
  C344     1.0000 0.15750  0.63660  0.30161  Biso   1.000  C
  C345     1.0000 0.12630  0.66110  0.28760  Biso   1.000  C
  H147     1.0000 0.08730  0.66130  0.28810  Biso   1.000  H
  C346     1.0000 0.15270  0.68410  0.27369  Biso   1.000  C
  H148     1.0000 0.13120  0.70110  0.26500  Biso   1.000  H
  C347     1.0000 0.33960  0.62350  0.29732  Biso   1.000  C
  C348     1.0000 0.32780  0.56920  0.30304  Biso   1.000  C
  H149     1.0000 0.29780  0.54940  0.29820  Biso   1.000  H
  C349     1.0000 0.36080  0.54455  0.31603  Biso   1.000  C
  H150     1.0000 0.35290  0.50820  0.31990  Biso   1.000  H
  C350     1.0000 0.40552  0.57410  0.32329  Biso   1.000  C
  C351     1.0000 0.41732  0.62840  0.31757  Biso   1.000  C
  H151     1.0000 0.44730  0.64820  0.32240  Biso   1.000  H
  C352     1.0000 0.38440  0.65306  0.30459  Biso   1.000  C
  H152     1.0000 0.39230  0.68940  0.30080  Biso   1.000  H
  O61      1.0000 0.42540  0.49980  0.34235  Biso   1.000  O
  O62      1.0000 0.07240  0.50300  0.37057  Biso   1.000  O
  O63      1.0000 0.01150  0.57280  0.37014  Biso   1.000  O
  C353     1.0000 0.13050  0.61270  0.31766  Biso   1.000  C
  C354     1.0000 0.08460  0.64007  0.32513  Biso   1.000  C
  H153     1.0000 0.07050  0.67260  0.32000  Biso   1.000  H
  C355     1.0000 0.06004  0.61890  0.34034  Biso   1.000  C
  H154     1.0000 0.02940  0.63710  0.34530  Biso   1.000  H
  C356     1.0000 0.08130  0.57030  0.34807  Biso   1.000  C
  C357     1.0000 0.12710  0.54298  0.34059  Biso   1.000  C
  H155     1.0000 0.14130  0.51050  0.34580  Biso   1.000  H
  C358     1.0000 0.15169  0.56420  0.32539  Biso   1.000  C
  H156     1.0000 0.18230  0.54590  0.32040  Biso   1.000  H
  C359     1.0000 0.43960  0.54780  0.33692  Biso   1.000  C
  C360     1.0000 0.05180  0.54990  0.36405  Biso   1.000  C
  C361     1.0000 0.38630  0.70830  0.23750  Biso   1.000  C
  C362     1.0000 0.40600  0.69300  0.22670  Biso   1.000  C
  O64      1.0000 0.48150  0.57250  0.34310  Biso   1.000  O
  O65      1.0000 0.32160  0.72660  0.24157  Biso   1.000  O
  C363     1.0000 0.88110  0.25740  0.50710  Biso   1.000  C
  C364     1.0000 0.90160  0.24410  0.52610  Biso   1.000  C
  Cu14     1.0000 0.96532  0.95678  0.86089  Biso   1.000  Cu
  C365     1.0000 0.80139  0.15377  0.78340  Biso   1.000  C
  C366     1.0000 0.82838  0.17670  0.76884  Biso   1.000  C
  H157     1.0000 0.86730  0.17440  0.76790  Biso   1.000  H
  C367     1.0000 0.79720  0.20310  0.75576  Biso   1.000  C
  C368     1.0000 0.73903  0.20653  0.75723  Biso   1.000  C
  C369     1.0000 0.71204  0.18361  0.77178  Biso   1.000  C
  C370     1.0000 0.74322  0.15723  0.78487  Biso   1.000  C
  C371     1.0000 0.71570  0.13540  0.80019  Biso   1.000  C
  H158     1.0000 0.73700  0.12020  0.80930  Biso   1.000  H
  C372     1.0000 0.65750  0.13660  0.80161  Biso   1.000  C
  C373     1.0000 0.62630  0.16110  0.78760  Biso   1.000  C
  H159     1.0000 0.58730  0.16130  0.78810  Biso   1.000  H
  C374     1.0000 0.65270  0.18410  0.77369  Biso   1.000  C
  H160     1.0000 0.63120  0.20110  0.76500  Biso   1.000  H
  C375     1.0000 0.83960  0.12350  0.79732  Biso   1.000  C
  C376     1.0000 0.82780  0.06920  0.80304  Biso   1.000  C
  H161     1.0000 0.79780  0.04940  0.79820  Biso   1.000  H
  C377     1.0000 0.86080  0.04455  0.81603  Biso   1.000  C
  H162     1.0000 0.85290  0.00820  0.81990  Biso   1.000  H
  C378     1.0000 0.90552  0.07410  0.82329  Biso   1.000  C
  C379     1.0000 0.91732  0.12840  0.81757  Biso   1.000  C
  H163     1.0000 0.94730  0.14820  0.82240  Biso   1.000  H
  C380     1.0000 0.88440  0.15306  0.80459  Biso   1.000  C
  H164     1.0000 0.89230  0.18940  0.80080  Biso   1.000  H
  O66      1.0000 0.92540  0.99980  0.84235  Biso   1.000  O
  O67      1.0000 0.57240  0.00300  0.87057  Biso   1.000  O
  O68      1.0000 0.51150  0.07280  0.87014  Biso   1.000  O
  C381     1.0000 0.63050  0.11270  0.81766  Biso   1.000  C
  C382     1.0000 0.58460  0.14007  0.82513  Biso   1.000  C
  H165     1.0000 0.57050  0.17260  0.82000  Biso   1.000  H
  C383     1.0000 0.56004  0.11890  0.84034  Biso   1.000  C
  H166     1.0000 0.52940  0.13710  0.84530  Biso   1.000  H
  C384     1.0000 0.58130  0.07030  0.84807  Biso   1.000  C
  C385     1.0000 0.62710  0.04298  0.84059  Biso   1.000  C
  H167     1.0000 0.64130  0.01050  0.84580  Biso   1.000  H
  C386     1.0000 0.65169  0.06420  0.82539  Biso   1.000  C
  H168     1.0000 0.68230  0.04590  0.82040  Biso   1.000  H
  C387     1.0000 0.93960  0.04780  0.83692  Biso   1.000  C
  C388     1.0000 0.55180  0.04990  0.86405  Biso   1.000  C
  C389     1.0000 0.88630  0.20830  0.73750  Biso   1.000  C
  C390     1.0000 0.90600  0.19300  0.72670  Biso   1.000  C
  O69      1.0000 0.98150  0.07250  0.84310  Biso   1.000  O
  O70      1.0000 0.82160  0.22660  0.74157  Biso   1.000  O
  C391     1.0000 0.38110  0.75740  0.00710  Biso   1.000  C
  C392     1.0000 0.40160  0.74410  0.02610  Biso   1.000  C
  Cu15     1.0000 0.03468  0.04322  0.86089  Biso   1.000  Cu
  C393     1.0000 0.19861  0.84623  0.78340  Biso   1.000  C
  C394     1.0000 0.17162  0.82330  0.76884  Biso   1.000  C
  H169     1.0000 0.13270  0.82560  0.76790  Biso   1.000  H
  C395     1.0000 0.20280  0.79690  0.75576  Biso   1.000  C
  C396     1.0000 0.26097  0.79347  0.75723  Biso   1.000  C
  C397     1.0000 0.28796  0.81639  0.77178  Biso   1.000  C
  C398     1.0000 0.25678  0.84277  0.78487  Biso   1.000  C
  C399     1.0000 0.28430  0.86460  0.80019  Biso   1.000  C
  H170     1.0000 0.26300  0.87980  0.80930  Biso   1.000  H
  C400     1.0000 0.34250  0.86340  0.80161  Biso   1.000  C
  C401     1.0000 0.37370  0.83890  0.78760  Biso   1.000  C
  H171     1.0000 0.41270  0.83870  0.78810  Biso   1.000  H
  C402     1.0000 0.34730  0.81590  0.77369  Biso   1.000  C
  H172     1.0000 0.36880  0.79890  0.76500  Biso   1.000  H
  C403     1.0000 0.16040  0.87650  0.79732  Biso   1.000  C
  C404     1.0000 0.17220  0.93080  0.80304  Biso   1.000  C
  H173     1.0000 0.20220  0.95060  0.79820  Biso   1.000  H
  C405     1.0000 0.13920  0.95545  0.81603  Biso   1.000  C
  H174     1.0000 0.14710  0.99180  0.81990  Biso   1.000  H
  C406     1.0000 0.09448  0.92590  0.82329  Biso   1.000  C
  C407     1.0000 0.08268  0.87160  0.81757  Biso   1.000  C
  H175     1.0000 0.05270  0.85180  0.82240  Biso   1.000  H
  C408     1.0000 0.11560  0.84694  0.80459  Biso   1.000  C
  H176     1.0000 0.10770  0.81060  0.80080  Biso   1.000  H
  O71      1.0000 0.07460  0.00020  0.84235  Biso   1.000  O
  O72      1.0000 0.42760  0.99700  0.87057  Biso   1.000  O
  O73      1.0000 0.48850  0.92720  0.87014  Biso   1.000  O
  C409     1.0000 0.36950  0.88730  0.81766  Biso   1.000  C
  C410     1.0000 0.41540  0.85993  0.82513  Biso   1.000  C
  H177     1.0000 0.42950  0.82740  0.82000  Biso   1.000  H
  C411     1.0000 0.43996  0.88110  0.84034  Biso   1.000  C
  H178     1.0000 0.47060  0.86290  0.84530  Biso   1.000  H
  C412     1.0000 0.41870  0.92970  0.84807  Biso   1.000  C
  C413     1.0000 0.37290  0.95702  0.84059  Biso   1.000  C
  H179     1.0000 0.35870  0.98950  0.84580  Biso   1.000  H
  C414     1.0000 0.34831  0.93580  0.82539  Biso   1.000  C
  H180     1.0000 0.31770  0.95410  0.82040  Biso   1.000  H
  C415     1.0000 0.06040  0.95220  0.83692  Biso   1.000  C
  C416     1.0000 0.44820  0.95010  0.86405  Biso   1.000  C
  C417     1.0000 0.11370  0.79170  0.73750  Biso   1.000  C
  C418     1.0000 0.09400  0.80700  0.72670  Biso   1.000  C
  O74      1.0000 0.01850  0.92750  0.84310  Biso   1.000  O
  O75      1.0000 0.17840  0.77340  0.74157  Biso   1.000  O
  C419     1.0000 0.61890  0.24260  0.00710  Biso   1.000  C
  C420     1.0000 0.59840  0.25590  0.02610  Biso   1.000  C
  Cu16     1.0000 0.53468  0.54322  0.36089  Biso   1.000  Cu
  C421     1.0000 0.69861  0.34623  0.28340  Biso   1.000  C
  C422     1.0000 0.67162  0.32330  0.26884  Biso   1.000  C
  H181     1.0000 0.63270  0.32560  0.26790  Biso   1.000  H
  C423     1.0000 0.70280  0.29690  0.25576  Biso   1.000  C
  C424     1.0000 0.76097  0.29347  0.25723  Biso   1.000  C
  C425     1.0000 0.78796  0.31639  0.27178  Biso   1.000  C
  C426     1.0000 0.75678  0.34277  0.28487  Biso   1.000  C
  C427     1.0000 0.78430  0.36460  0.30019  Biso   1.000  C
  H182     1.0000 0.76300  0.37980  0.30930  Biso   1.000  H
  C428     1.0000 0.84250  0.36340  0.30161  Biso   1.000  C
  C429     1.0000 0.87370  0.33890  0.28760  Biso   1.000  C
  H183     1.0000 0.91270  0.33870  0.28810  Biso   1.000  H
  C430     1.0000 0.84730  0.31590  0.27369  Biso   1.000  C
  H184     1.0000 0.86880  0.29890  0.26500  Biso   1.000  H
  C431     1.0000 0.66040  0.37650  0.29732  Biso   1.000  C
  C432     1.0000 0.67220  0.43080  0.30304  Biso   1.000  C
  H185     1.0000 0.70220  0.45060  0.29820  Biso   1.000  H
  C433     1.0000 0.63920  0.45545  0.31603  Biso   1.000  C
  H186     1.0000 0.64710  0.49180  0.31990  Biso   1.000  H
  C434     1.0000 0.59448  0.42590  0.32329  Biso   1.000  C
  C435     1.0000 0.58268  0.37160  0.31757  Biso   1.000  C
  H187     1.0000 0.55270  0.35180  0.32240  Biso   1.000  H
  C436     1.0000 0.61560  0.34694  0.30459  Biso   1.000  C
  H188     1.0000 0.60770  0.31060  0.30080  Biso   1.000  H
  O76      1.0000 0.57460  0.50020  0.34235  Biso   1.000  O
  O77      1.0000 0.92760  0.49700  0.37057  Biso   1.000  O
  O78      1.0000 0.98850  0.42720  0.37014  Biso   1.000  O
  C437     1.0000 0.86950  0.38730  0.31766  Biso   1.000  C
  C438     1.0000 0.91540  0.35993  0.32513  Biso   1.000  C
  H189     1.0000 0.92950  0.32740  0.32000  Biso   1.000  H
  C439     1.0000 0.93996  0.38110  0.34034  Biso   1.000  C
  H190     1.0000 0.97060  0.36290  0.34530  Biso   1.000  H
  C440     1.0000 0.91870  0.42970  0.34807  Biso   1.000  C
  C441     1.0000 0.87290  0.45702  0.34059  Biso   1.000  C
  H191     1.0000 0.85870  0.48950  0.34580  Biso   1.000  H
  C442     1.0000 0.84831  0.43580  0.32539  Biso   1.000  C
  H192     1.0000 0.81770  0.45410  0.32040  Biso   1.000  H
  C443     1.0000 0.56040  0.45220  0.33692  Biso   1.000  C
  C444     1.0000 0.94820  0.45010  0.36405  Biso   1.000  C
  C445     1.0000 0.61370  0.29170  0.23750  Biso   1.000  C
  C446     1.0000 0.59400  0.30700  0.22670  Biso   1.000  C
  O79      1.0000 0.51850  0.42750  0.34310  Biso   1.000  O
  O80      1.0000 0.67840  0.27340  0.24157  Biso   1.000  O
  C447     1.0000 0.11890  0.74260  0.50710  Biso   1.000  C
  C448     1.0000 0.09840  0.75590  0.52610  Biso   1.000  C
