data_image0
_cell_length_a       30.5521
_cell_length_b       30.5521
_cell_length_c       30.5521
_cell_angle_alpha    90
_cell_angle_beta     90
_cell_angle_gamma    90

_symmetry_space_group_name_H-M    "P 1"
_symmetry_int_tables_number       1

loop_
  _symmetry_equiv_pos_as_xyz
  'x, y, z'

loop_
  _atom_site_label
  _atom_site_occupancy
  _atom_site_fract_x
  _atom_site_fract_y
  _atom_site_fract_z
  _atom_site_thermal_displace_type
  _atom_site_B_iso_or_equiv
  _atom_site_type_symbol
  Cu1      1.0000 0.00000  0.22846  0.00000  Biso   1.000  Cu
  Cu2      1.0000 0.00000  0.31419  0.00000  Biso   1.000  Cu
  N1       1.0000 0.00000  0.38297  0.00000  Biso   1.000  N
  C1       1.0000 0.00000  0.47579  0.00000  Biso   1.000  C
  Cu3      1.0000 0.00000  0.77154  0.00000  Biso   1.000  Cu
  Cu4      1.0000 0.00000  0.68581  0.00000  Biso   1.000  Cu
  N2       1.0000 0.00000  0.61703  0.00000  Biso   1.000  N
  C2       1.0000 0.00000  0.52421  0.00000  Biso   1.000  C
  Cu5      1.0000 0.00000  0.00000  0.22846  Biso   1.000  Cu
  Cu6      1.0000 0.00000  0.00000  0.31419  Biso   1.000  Cu
  N3       1.0000 0.00000  0.00000  0.38297  Biso   1.000  N
  C3       1.0000 0.00000  0.00000  0.47579  Biso   1.000  C
  Cu7      1.0000 0.00000  0.00000  0.77154  Biso   1.000  Cu
  Cu8      1.0000 0.00000  0.00000  0.68581  Biso   1.000  Cu
  N4       1.0000 0.00000  0.00000  0.61703  Biso   1.000  N
  C4       1.0000 0.00000  0.00000  0.52421  Biso   1.000  C
  Cu9      1.0000 0.22846  0.00000  0.00000  Biso   1.000  Cu
  Cu10     1.0000 0.31419  0.00000  0.00000  Biso   1.000  Cu
  N5       1.0000 0.38297  0.00000  0.00000  Biso   1.000  N
  C5       1.0000 0.47579  0.00000  0.00000  Biso   1.000  C
  Cu11     1.0000 0.77154  0.00000  0.00000  Biso   1.000  Cu
  Cu12     1.0000 0.68581  0.00000  0.00000  Biso   1.000  Cu
  N6       1.0000 0.61703  0.00000  0.00000  Biso   1.000  N
  C6       1.0000 0.52421  0.00000  0.00000  Biso   1.000  C
  N7       1.0000 0.00000  0.26545  0.26545  Biso   1.000  N
  H1       1.0000 0.00000  0.28630  0.28630  Biso   1.000  H
  N8       1.0000 0.00000  0.73455  0.26545  Biso   1.000  N
  H2       1.0000 0.00000  0.71370  0.28630  Biso   1.000  H
  N9       1.0000 0.00000  0.26545  0.73455  Biso   1.000  N
  H3       1.0000 0.00000  0.28630  0.71370  Biso   1.000  H
  N10      1.0000 0.00000  0.73455  0.73455  Biso   1.000  N
  H4       1.0000 0.00000  0.71370  0.71370  Biso   1.000  H
  N11      1.0000 0.26545  0.00000  0.26545  Biso   1.000  N
  H5       1.0000 0.28630  0.00000  0.28630  Biso   1.000  H
  N12      1.0000 0.26545  0.00000  0.73455  Biso   1.000  N
  H6       1.0000 0.28630  0.00000  0.71370  Biso   1.000  H
  N13      1.0000 0.73455  0.00000  0.26545  Biso   1.000  N
  H7       1.0000 0.71370  0.00000  0.28630  Biso   1.000  H
  N14      1.0000 0.73455  0.00000  0.73455  Biso   1.000  N
  H8       1.0000 0.71370  0.00000  0.71370  Biso   1.000  H
  N15      1.0000 0.26545  0.26545  0.00000  Biso   1.000  N
  H9       1.0000 0.28630  0.28630  0.00000  Biso   1.000  H
  N16      1.0000 0.73455  0.26545  0.00000  Biso   1.000  N
  H10      1.0000 0.71370  0.28630  0.00000  Biso   1.000  H
  N17      1.0000 0.26545  0.73455  0.00000  Biso   1.000  N
  H11      1.0000 0.28630  0.71370  0.00000  Biso   1.000  H
  N18      1.0000 0.73455  0.73455  0.00000  Biso   1.000  N
  H12      1.0000 0.71370  0.71370  0.00000  Biso   1.000  H
  C7       1.0000 0.00000  0.27237  0.08083  Biso   1.000  C
  C8       1.0000 0.00000  0.27034  0.12815  Biso   1.000  C
  C9       1.0000 0.00000  0.23141  0.15356  Biso   1.000  C
  H13      1.0000 0.00000  0.20420  0.13780  Biso   1.000  H
  C10      1.0000 0.00000  0.23212  0.19914  Biso   1.000  C
  C11      1.0000 0.00000  0.27335  0.22407  Biso   1.000  C
  C12      1.0000 0.00000  0.30904  0.20069  Biso   1.000  C
  H14      1.0000 0.00000  0.33600  0.21680  Biso   1.000  H
  C13      1.0000 0.00000  0.31141  0.15539  Biso   1.000  C
  H15      1.0000 0.00000  0.33900  0.14030  Biso   1.000  H
  O1       1.0000 0.00000  0.23485  0.06444  Biso   1.000  O
  O2       1.0000 0.00000  0.30861  0.06278  Biso   1.000  O
  C14      1.0000 0.00000  0.72763  0.08083  Biso   1.000  C
  C15      1.0000 0.00000  0.72966  0.12815  Biso   1.000  C
  C16      1.0000 0.00000  0.76859  0.15356  Biso   1.000  C
  H16      1.0000 0.00000  0.79580  0.13780  Biso   1.000  H
  C17      1.0000 0.00000  0.76788  0.19914  Biso   1.000  C
  C18      1.0000 0.00000  0.72665  0.22407  Biso   1.000  C
  C19      1.0000 0.00000  0.69096  0.20069  Biso   1.000  C
  H17      1.0000 0.00000  0.66400  0.21680  Biso   1.000  H
  C20      1.0000 0.00000  0.68859  0.15539  Biso   1.000  C
  H18      1.0000 0.00000  0.66100  0.14030  Biso   1.000  H
  O3       1.0000 0.00000  0.76515  0.06444  Biso   1.000  O
  O4       1.0000 0.00000  0.69139  0.06278  Biso   1.000  O
  C21      1.0000 0.00000  0.27237  0.91917  Biso   1.000  C
  C22      1.0000 0.00000  0.27034  0.87185  Biso   1.000  C
  C23      1.0000 0.00000  0.23141  0.84644  Biso   1.000  C
  H19      1.0000 0.00000  0.20420  0.86220  Biso   1.000  H
  C24      1.0000 0.00000  0.23212  0.80086  Biso   1.000  C
  C25      1.0000 0.00000  0.27335  0.77593  Biso   1.000  C
  C26      1.0000 0.00000  0.30904  0.79931  Biso   1.000  C
  H20      1.0000 0.00000  0.33600  0.78320  Biso   1.000  H
  C27      1.0000 0.00000  0.31141  0.84461  Biso   1.000  C
  H21      1.0000 0.00000  0.33900  0.85970  Biso   1.000  H
  O5       1.0000 0.00000  0.23485  0.93556  Biso   1.000  O
  O6       1.0000 0.00000  0.30861  0.93722  Biso   1.000  O
  C28      1.0000 0.00000  0.72763  0.91917  Biso   1.000  C
  C29      1.0000 0.00000  0.72966  0.87185  Biso   1.000  C
  C30      1.0000 0.00000  0.76859  0.84644  Biso   1.000  C
  H22      1.0000 0.00000  0.79580  0.86220  Biso   1.000  H
  C31      1.0000 0.00000  0.76788  0.80086  Biso   1.000  C
  C32      1.0000 0.00000  0.72665  0.77593  Biso   1.000  C
  C33      1.0000 0.00000  0.69096  0.79931  Biso   1.000  C
  H23      1.0000 0.00000  0.66400  0.78320  Biso   1.000  H
  C34      1.0000 0.00000  0.68859  0.84461  Biso   1.000  C
  H24      1.0000 0.00000  0.66100  0.85970  Biso   1.000  H
  O7       1.0000 0.00000  0.76515  0.93556  Biso   1.000  O
  O8       1.0000 0.00000  0.69139  0.93722  Biso   1.000  O
  C35      1.0000 0.08083  0.00000  0.27237  Biso   1.000  C
  C36      1.0000 0.12815  0.00000  0.27034  Biso   1.000  C
  C37      1.0000 0.15356  0.00000  0.23141  Biso   1.000  C
  H25      1.0000 0.13780  0.00000  0.20420  Biso   1.000  H
  C38      1.0000 0.19914  0.00000  0.23212  Biso   1.000  C
  C39      1.0000 0.22407  0.00000  0.27335  Biso   1.000  C
  C40      1.0000 0.20069  0.00000  0.30904  Biso   1.000  C
  H26      1.0000 0.21680  0.00000  0.33600  Biso   1.000  H
  C41      1.0000 0.15539  0.00000  0.31141  Biso   1.000  C
  H27      1.0000 0.14030  0.00000  0.33900  Biso   1.000  H
  O9       1.0000 0.06444  0.00000  0.23485  Biso   1.000  O
  O10      1.0000 0.06278  0.00000  0.30861  Biso   1.000  O
  C42      1.0000 0.08083  0.00000  0.72763  Biso   1.000  C
  C43      1.0000 0.12815  0.00000  0.72966  Biso   1.000  C
  C44      1.0000 0.15356  0.00000  0.76859  Biso   1.000  C
  H28      1.0000 0.13780  0.00000  0.79580  Biso   1.000  H
  C45      1.0000 0.19914  0.00000  0.76788  Biso   1.000  C
  C46      1.0000 0.22407  0.00000  0.72665  Biso   1.000  C
  C47      1.0000 0.20069  0.00000  0.69096  Biso   1.000  C
  H29      1.0000 0.21680  0.00000  0.66400  Biso   1.000  H
  C48      1.0000 0.15539  0.00000  0.68859  Biso   1.000  C
  H30      1.0000 0.14030  0.00000  0.66100  Biso   1.000  H
  O11      1.0000 0.06444  0.00000  0.76515  Biso   1.000  O
  O12      1.0000 0.06278  0.00000  0.69139  Biso   1.000  O
  C49      1.0000 0.91917  0.00000  0.27237  Biso   1.000  C
  C50      1.0000 0.87185  0.00000  0.27034  Biso   1.000  C
  C51      1.0000 0.84644  0.00000  0.23141  Biso   1.000  C
  H31      1.0000 0.86220  0.00000  0.20420  Biso   1.000  H
  C52      1.0000 0.80086  0.00000  0.23212  Biso   1.000  C
  C53      1.0000 0.77593  0.00000  0.27335  Biso   1.000  C
  C54      1.0000 0.79931  0.00000  0.30904  Biso   1.000  C
  H32      1.0000 0.78320  0.00000  0.33600  Biso   1.000  H
  C55      1.0000 0.84461  0.00000  0.31141  Biso   1.000  C
  H33      1.0000 0.85970  0.00000  0.33900  Biso   1.000  H
  O13      1.0000 0.93556  0.00000  0.23485  Biso   1.000  O
  O14      1.0000 0.93722  0.00000  0.30861  Biso   1.000  O
  C56      1.0000 0.91917  0.00000  0.72763  Biso   1.000  C
  C57      1.0000 0.87185  0.00000  0.72966  Biso   1.000  C
  C58      1.0000 0.84644  0.00000  0.76859  Biso   1.000  C
  H34      1.0000 0.86220  0.00000  0.79580  Biso   1.000  H
  C59      1.0000 0.80086  0.00000  0.76788  Biso   1.000  C
  C60      1.0000 0.77593  0.00000  0.72665  Biso   1.000  C
  C61      1.0000 0.79931  0.00000  0.69096  Biso   1.000  C
  H35      1.0000 0.78320  0.00000  0.66400  Biso   1.000  H
  C62      1.0000 0.84461  0.00000  0.68859  Biso   1.000  C
  H36      1.0000 0.85970  0.00000  0.66100  Biso   1.000  H
  O15      1.0000 0.93556  0.00000  0.76515  Biso   1.000  O
  O16      1.0000 0.93722  0.00000  0.69139  Biso   1.000  O
  C63      1.0000 0.27237  0.08083  0.00000  Biso   1.000  C
  C64      1.0000 0.27034  0.12815  0.00000  Biso   1.000  C
  C65      1.0000 0.23141  0.15356  0.00000  Biso   1.000  C
  H37      1.0000 0.20420  0.13780  0.00000  Biso   1.000  H
  C66      1.0000 0.23212  0.19914  0.00000  Biso   1.000  C
  C67      1.0000 0.27335  0.22407  0.00000  Biso   1.000  C
  C68      1.0000 0.30904  0.20069  0.00000  Biso   1.000  C
  H38      1.0000 0.33600  0.21680  0.00000  Biso   1.000  H
  C69      1.0000 0.31141  0.15539  0.00000  Biso   1.000  C
  H39      1.0000 0.33900  0.14030  0.00000  Biso   1.000  H
  O17      1.0000 0.23485  0.06444  0.00000  Biso   1.000  O
  O18      1.0000 0.30861  0.06278  0.00000  Biso   1.000  O
  C70      1.0000 0.72763  0.08083  0.00000  Biso   1.000  C
  C71      1.0000 0.72966  0.12815  0.00000  Biso   1.000  C
  C72      1.0000 0.76859  0.15356  0.00000  Biso   1.000  C
  H40      1.0000 0.79580  0.13780  0.00000  Biso   1.000  H
  C73      1.0000 0.76788  0.19914  0.00000  Biso   1.000  C
  C74      1.0000 0.72665  0.22407  0.00000  Biso   1.000  C
  C75      1.0000 0.69096  0.20069  0.00000  Biso   1.000  C
  H41      1.0000 0.66400  0.21680  0.00000  Biso   1.000  H
  C76      1.0000 0.68859  0.15539  0.00000  Biso   1.000  C
  H42      1.0000 0.66100  0.14030  0.00000  Biso   1.000  H
  O19      1.0000 0.76515  0.06444  0.00000  Biso   1.000  O
  O20      1.0000 0.69139  0.06278  0.00000  Biso   1.000  O
  C77      1.0000 0.27237  0.91917  0.00000  Biso   1.000  C
  C78      1.0000 0.27034  0.87185  0.00000  Biso   1.000  C
  C79      1.0000 0.23141  0.84644  0.00000  Biso   1.000  C
  H43      1.0000 0.20420  0.86220  0.00000  Biso   1.000  H
  C80      1.0000 0.23212  0.80086  0.00000  Biso   1.000  C
  C81      1.0000 0.27335  0.77593  0.00000  Biso   1.000  C
  C82      1.0000 0.30904  0.79931  0.00000  Biso   1.000  C
  H44      1.0000 0.33600  0.78320  0.00000  Biso   1.000  H
  C83      1.0000 0.31141  0.84461  0.00000  Biso   1.000  C
  H45      1.0000 0.33900  0.85970  0.00000  Biso   1.000  H
  O21      1.0000 0.23485  0.93556  0.00000  Biso   1.000  O
  O22      1.0000 0.30861  0.93722  0.00000  Biso   1.000  O
  C84      1.0000 0.72763  0.91917  0.00000  Biso   1.000  C
  C85      1.0000 0.72966  0.87185  0.00000  Biso   1.000  C
  C86      1.0000 0.76859  0.84644  0.00000  Biso   1.000  C
  H46      1.0000 0.79580  0.86220  0.00000  Biso   1.000  H
  C87      1.0000 0.76788  0.80086  0.00000  Biso   1.000  C
  C88      1.0000 0.72665  0.77593  0.00000  Biso   1.000  C
  C89      1.0000 0.69096  0.79931  0.00000  Biso   1.000  C
  H47      1.0000 0.66400  0.78320  0.00000  Biso   1.000  H
  C90      1.0000 0.68859  0.84461  0.00000  Biso   1.000  C
  H48      1.0000 0.66100  0.85970  0.00000  Biso   1.000  H
  O23      1.0000 0.76515  0.93556  0.00000  Biso   1.000  O
  O24      1.0000 0.69139  0.93722  0.00000  Biso   1.000  O
  C91      1.0000 0.27237  0.00000  0.91917  Biso   1.000  C
  C92      1.0000 0.27034  0.00000  0.87185  Biso   1.000  C
  C93      1.0000 0.23141  0.00000  0.84644  Biso   1.000  C
  H49      1.0000 0.20420  0.00000  0.86220  Biso   1.000  H
  C94      1.0000 0.23212  0.00000  0.80086  Biso   1.000  C
  C95      1.0000 0.27335  0.00000  0.77593  Biso   1.000  C
  C96      1.0000 0.30904  0.00000  0.79931  Biso   1.000  C
  H50      1.0000 0.33600  0.00000  0.78320  Biso   1.000  H
  C97      1.0000 0.31141  0.00000  0.84461  Biso   1.000  C
  H51      1.0000 0.33900  0.00000  0.85970  Biso   1.000  H
  O25      1.0000 0.23485  0.00000  0.93556  Biso   1.000  O
  O26      1.0000 0.30861  0.00000  0.93722  Biso   1.000  O
  C98      1.0000 0.72763  0.00000  0.91917  Biso   1.000  C
  C99      1.0000 0.72966  0.00000  0.87185  Biso   1.000  C
  C100     1.0000 0.76859  0.00000  0.84644  Biso   1.000  C
  H52      1.0000 0.79580  0.00000  0.86220  Biso   1.000  H
  C101     1.0000 0.76788  0.00000  0.80086  Biso   1.000  C
  C102     1.0000 0.72665  0.00000  0.77593  Biso   1.000  C
  C103     1.0000 0.69096  0.00000  0.79931  Biso   1.000  C
  H53      1.0000 0.66400  0.00000  0.78320  Biso   1.000  H
  C104     1.0000 0.68859  0.00000  0.84461  Biso   1.000  C
  H54      1.0000 0.66100  0.00000  0.85970  Biso   1.000  H
  O27      1.0000 0.76515  0.00000  0.93556  Biso   1.000  O
  O28      1.0000 0.69139  0.00000  0.93722  Biso   1.000  O
  C105     1.0000 0.27237  0.00000  0.08083  Biso   1.000  C
  C106     1.0000 0.27034  0.00000  0.12815  Biso   1.000  C
  C107     1.0000 0.23141  0.00000  0.15356  Biso   1.000  C
  H55      1.0000 0.20420  0.00000  0.13780  Biso   1.000  H
  C108     1.0000 0.23212  0.00000  0.19914  Biso   1.000  C
  C109     1.0000 0.27335  0.00000  0.22407  Biso   1.000  C
  C110     1.0000 0.30904  0.00000  0.20069  Biso   1.000  C
  H56      1.0000 0.33600  0.00000  0.21680  Biso   1.000  H
  C111     1.0000 0.31141  0.00000  0.15539  Biso   1.000  C
  H57      1.0000 0.33900  0.00000  0.14030  Biso   1.000  H
  O29      1.0000 0.23485  0.00000  0.06444  Biso   1.000  O
  O30      1.0000 0.30861  0.00000  0.06278  Biso   1.000  O
  C112     1.0000 0.72763  0.00000  0.08083  Biso   1.000  C
  C113     1.0000 0.72966  0.00000  0.12815  Biso   1.000  C
  C114     1.0000 0.76859  0.00000  0.15356  Biso   1.000  C
  H58      1.0000 0.79580  0.00000  0.13780  Biso   1.000  H
  C115     1.0000 0.76788  0.00000  0.19914  Biso   1.000  C
  C116     1.0000 0.72665  0.00000  0.22407  Biso   1.000  C
  C117     1.0000 0.69096  0.00000  0.20069  Biso   1.000  C
  H59      1.0000 0.66400  0.00000  0.21680  Biso   1.000  H
  C118     1.0000 0.68859  0.00000  0.15539  Biso   1.000  C
  H60      1.0000 0.66100  0.00000  0.14030  Biso   1.000  H
  O31      1.0000 0.76515  0.00000  0.06444  Biso   1.000  O
  O32      1.0000 0.69139  0.00000  0.06278  Biso   1.000  O
  C119     1.0000 0.00000  0.08083  0.72763  Biso   1.000  C
  C120     1.0000 0.00000  0.12815  0.72966  Biso   1.000  C
  C121     1.0000 0.00000  0.15356  0.76859  Biso   1.000  C
  H61      1.0000 0.00000  0.13780  0.79580  Biso   1.000  H
  C122     1.0000 0.00000  0.19914  0.76788  Biso   1.000  C
  C123     1.0000 0.00000  0.22407  0.72665  Biso   1.000  C
  C124     1.0000 0.00000  0.20069  0.69096  Biso   1.000  C
  H62      1.0000 0.00000  0.21680  0.66400  Biso   1.000  H
  C125     1.0000 0.00000  0.15539  0.68859  Biso   1.000  C
  H63      1.0000 0.00000  0.14030  0.66100  Biso   1.000  H
  O33      1.0000 0.00000  0.06444  0.76515  Biso   1.000  O
  O34      1.0000 0.00000  0.06278  0.69139  Biso   1.000  O
  C126     1.0000 0.00000  0.08083  0.27237  Biso   1.000  C
  C127     1.0000 0.00000  0.12815  0.27034  Biso   1.000  C
  C128     1.0000 0.00000  0.15356  0.23141  Biso   1.000  C
  H64      1.0000 0.00000  0.13780  0.20420  Biso   1.000  H
  C129     1.0000 0.00000  0.19914  0.23212  Biso   1.000  C
  C130     1.0000 0.00000  0.22407  0.27335  Biso   1.000  C
  C131     1.0000 0.00000  0.20069  0.30904  Biso   1.000  C
  H65      1.0000 0.00000  0.21680  0.33600  Biso   1.000  H
  C132     1.0000 0.00000  0.15539  0.31141  Biso   1.000  C
  H66      1.0000 0.00000  0.14030  0.33900  Biso   1.000  H
  O35      1.0000 0.00000  0.06444  0.23485  Biso   1.000  O
  O36      1.0000 0.00000  0.06278  0.30861  Biso   1.000  O
  C133     1.0000 0.00000  0.91917  0.72763  Biso   1.000  C
  C134     1.0000 0.00000  0.87185  0.72966  Biso   1.000  C
  C135     1.0000 0.00000  0.84644  0.76859  Biso   1.000  C
  H67      1.0000 0.00000  0.86220  0.79580  Biso   1.000  H
  C136     1.0000 0.00000  0.80086  0.76788  Biso   1.000  C
  C137     1.0000 0.00000  0.77593  0.72665  Biso   1.000  C
  C138     1.0000 0.00000  0.79931  0.69096  Biso   1.000  C
  H68      1.0000 0.00000  0.78320  0.66400  Biso   1.000  H
  C139     1.0000 0.00000  0.84461  0.68859  Biso   1.000  C
  H69      1.0000 0.00000  0.85970  0.66100  Biso   1.000  H
  O37      1.0000 0.00000  0.93556  0.76515  Biso   1.000  O
  O38      1.0000 0.00000  0.93722  0.69139  Biso   1.000  O
  C140     1.0000 0.00000  0.91917  0.27237  Biso   1.000  C
  C141     1.0000 0.00000  0.87185  0.27034  Biso   1.000  C
  C142     1.0000 0.00000  0.84644  0.23141  Biso   1.000  C
  H70      1.0000 0.00000  0.86220  0.20420  Biso   1.000  H
  C143     1.0000 0.00000  0.80086  0.23212  Biso   1.000  C
  C144     1.0000 0.00000  0.77593  0.27335  Biso   1.000  C
  C145     1.0000 0.00000  0.79931  0.30904  Biso   1.000  C
  H71      1.0000 0.00000  0.78320  0.33600  Biso   1.000  H
  C146     1.0000 0.00000  0.84461  0.31141  Biso   1.000  C
  H72      1.0000 0.00000  0.85970  0.33900  Biso   1.000  H
  O39      1.0000 0.00000  0.93556  0.23485  Biso   1.000  O
  O40      1.0000 0.00000  0.93722  0.30861  Biso   1.000  O
  C147     1.0000 0.08083  0.27237  0.00000  Biso   1.000  C
  C148     1.0000 0.12815  0.27034  0.00000  Biso   1.000  C
  C149     1.0000 0.15356  0.23141  0.00000  Biso   1.000  C
  H73      1.0000 0.13780  0.20420  0.00000  Biso   1.000  H
  C150     1.0000 0.19914  0.23212  0.00000  Biso   1.000  C
  C151     1.0000 0.22407  0.27335  0.00000  Biso   1.000  C
  C152     1.0000 0.20069  0.30904  0.00000  Biso   1.000  C
  H74      1.0000 0.21680  0.33600  0.00000  Biso   1.000  H
  C153     1.0000 0.15539  0.31141  0.00000  Biso   1.000  C
  H75      1.0000 0.14030  0.33900  0.00000  Biso   1.000  H
  O41      1.0000 0.06444  0.23485  0.00000  Biso   1.000  O
  O42      1.0000 0.06278  0.30861  0.00000  Biso   1.000  O
  C154     1.0000 0.08083  0.72763  0.00000  Biso   1.000  C
  C155     1.0000 0.12815  0.72966  0.00000  Biso   1.000  C
  C156     1.0000 0.15356  0.76859  0.00000  Biso   1.000  C
  H76      1.0000 0.13780  0.79580  0.00000  Biso   1.000  H
  C157     1.0000 0.19914  0.76788  0.00000  Biso   1.000  C
  C158     1.0000 0.22407  0.72665  0.00000  Biso   1.000  C
  C159     1.0000 0.20069  0.69096  0.00000  Biso   1.000  C
  H77      1.0000 0.21680  0.66400  0.00000  Biso   1.000  H
  C160     1.0000 0.15539  0.68859  0.00000  Biso   1.000  C
  H78      1.0000 0.14030  0.66100  0.00000  Biso   1.000  H
  O43      1.0000 0.06444  0.76515  0.00000  Biso   1.000  O
  O44      1.0000 0.06278  0.69139  0.00000  Biso   1.000  O
  C161     1.0000 0.91917  0.27237  0.00000  Biso   1.000  C
  C162     1.0000 0.87185  0.27034  0.00000  Biso   1.000  C
  C163     1.0000 0.84644  0.23141  0.00000  Biso   1.000  C
  H79      1.0000 0.86220  0.20420  0.00000  Biso   1.000  H
  C164     1.0000 0.80086  0.23212  0.00000  Biso   1.000  C
  C165     1.0000 0.77593  0.27335  0.00000  Biso   1.000  C
  C166     1.0000 0.79931  0.30904  0.00000  Biso   1.000  C
  H80      1.0000 0.78320  0.33600  0.00000  Biso   1.000  H
  C167     1.0000 0.84461  0.31141  0.00000  Biso   1.000  C
  H81      1.0000 0.85970  0.33900  0.00000  Biso   1.000  H
  O45      1.0000 0.93556  0.23485  0.00000  Biso   1.000  O
  O46      1.0000 0.93722  0.30861  0.00000  Biso   1.000  O
  C168     1.0000 0.91917  0.72763  0.00000  Biso   1.000  C
  C169     1.0000 0.87185  0.72966  0.00000  Biso   1.000  C
  C170     1.0000 0.84644  0.76859  0.00000  Biso   1.000  C
  H82      1.0000 0.86220  0.79580  0.00000  Biso   1.000  H
  C171     1.0000 0.80086  0.76788  0.00000  Biso   1.000  C
  C172     1.0000 0.77593  0.72665  0.00000  Biso   1.000  C
  C173     1.0000 0.79931  0.69096  0.00000  Biso   1.000  C
  H83      1.0000 0.78320  0.66400  0.00000  Biso   1.000  H
  C174     1.0000 0.84461  0.68859  0.00000  Biso   1.000  C
  H84      1.0000 0.85970  0.66100  0.00000  Biso   1.000  H
  O47      1.0000 0.93556  0.76515  0.00000  Biso   1.000  O
  O48      1.0000 0.93722  0.69139  0.00000  Biso   1.000  O
  C175     1.0000 0.03488  0.40558  0.00000  Biso   1.000  C
  H85      1.0000 0.06160  0.38910  0.00000  Biso   1.000  H
  C176     1.0000 0.03460  0.45110  0.00000  Biso   1.000  C
  H86      1.0000 0.06300  0.46450  0.00000  Biso   1.000  H
  C177     1.0000 0.96512  0.59442  0.00000  Biso   1.000  C
  H87      1.0000 0.93840  0.61090  0.00000  Biso   1.000  H
  C178     1.0000 0.96540  0.54890  0.00000  Biso   1.000  C
  H88      1.0000 0.93700  0.53550  0.00000  Biso   1.000  H
  C179     1.0000 0.96512  0.40558  0.00000  Biso   1.000  C
  H89      1.0000 0.93840  0.38910  0.00000  Biso   1.000  H
  C180     1.0000 0.96540  0.45110  0.00000  Biso   1.000  C
  H90      1.0000 0.93700  0.46450  0.00000  Biso   1.000  H
  C181     1.0000 0.03488  0.59442  0.00000  Biso   1.000  C
  H91      1.0000 0.06160  0.61090  0.00000  Biso   1.000  H
  C182     1.0000 0.03460  0.54890  0.00000  Biso   1.000  C
  H92      1.0000 0.06300  0.53550  0.00000  Biso   1.000  H
  C183     1.0000 0.00000  0.03488  0.40558  Biso   1.000  C
  H93      1.0000 0.00000  0.06160  0.38910  Biso   1.000  H
  C184     1.0000 0.00000  0.03460  0.45110  Biso   1.000  C
  H94      1.0000 0.00000  0.06300  0.46450  Biso   1.000  H
  C185     1.0000 0.00000  0.96512  0.59442  Biso   1.000  C
  H95      1.0000 0.00000  0.93840  0.61090  Biso   1.000  H
  C186     1.0000 0.00000  0.96540  0.54890  Biso   1.000  C
  H96      1.0000 0.00000  0.93700  0.53550  Biso   1.000  H
  C187     1.0000 0.00000  0.96512  0.40558  Biso   1.000  C
  H97      1.0000 0.00000  0.93840  0.38910  Biso   1.000  H
  C188     1.0000 0.00000  0.96540  0.45110  Biso   1.000  C
  H98      1.0000 0.00000  0.93700  0.46450  Biso   1.000  H
  C189     1.0000 0.00000  0.03488  0.59442  Biso   1.000  C
  H99      1.0000 0.00000  0.06160  0.61090  Biso   1.000  H
  C190     1.0000 0.00000  0.03460  0.54890  Biso   1.000  C
  H100     1.0000 0.00000  0.06300  0.53550  Biso   1.000  H
  C191     1.0000 0.40558  0.00000  0.03488  Biso   1.000  C
  H101     1.0000 0.38910  0.00000  0.06160  Biso   1.000  H
  C192     1.0000 0.45110  0.00000  0.03460  Biso   1.000  C
  H102     1.0000 0.46450  0.00000  0.06300  Biso   1.000  H
  C193     1.0000 0.59442  0.00000  0.96512  Biso   1.000  C
  H103     1.0000 0.61090  0.00000  0.93840  Biso   1.000  H
  C194     1.0000 0.54890  0.00000  0.96540  Biso   1.000  C
  H104     1.0000 0.53550  0.00000  0.93700  Biso   1.000  H
  C195     1.0000 0.40558  0.00000  0.96512  Biso   1.000  C
  H105     1.0000 0.38910  0.00000  0.93840  Biso   1.000  H
  C196     1.0000 0.45110  0.00000  0.96540  Biso   1.000  C
  H106     1.0000 0.46450  0.00000  0.93700  Biso   1.000  H
  C197     1.0000 0.59442  0.00000  0.03488  Biso   1.000  C
  H107     1.0000 0.61090  0.00000  0.06160  Biso   1.000  H
  C198     1.0000 0.54890  0.00000  0.03460  Biso   1.000  C
  H108     1.0000 0.53550  0.00000  0.06300  Biso   1.000  H
  C199     1.0000 0.40558  0.03488  0.00000  Biso   1.000  C
  H109     1.0000 0.38910  0.06160  0.00000  Biso   1.000  H
  C200     1.0000 0.45110  0.03460  0.00000  Biso   1.000  C
  H110     1.0000 0.46450  0.06300  0.00000  Biso   1.000  H
  C201     1.0000 0.59442  0.96512  0.00000  Biso   1.000  C
  H111     1.0000 0.61090  0.93840  0.00000  Biso   1.000  H
  C202     1.0000 0.54890  0.96540  0.00000  Biso   1.000  C
  H112     1.0000 0.53550  0.93700  0.00000  Biso   1.000  H
  C203     1.0000 0.40558  0.96512  0.00000  Biso   1.000  C
  H113     1.0000 0.38910  0.93840  0.00000  Biso   1.000  H
  C204     1.0000 0.45110  0.96540  0.00000  Biso   1.000  C
  H114     1.0000 0.46450  0.93700  0.00000  Biso   1.000  H
  C205     1.0000 0.59442  0.03488  0.00000  Biso   1.000  C
  H115     1.0000 0.61090  0.06160  0.00000  Biso   1.000  H
  C206     1.0000 0.54890  0.03460  0.00000  Biso   1.000  C
  H116     1.0000 0.53550  0.06300  0.00000  Biso   1.000  H
  C207     1.0000 0.03488  0.00000  0.59442  Biso   1.000  C
  H117     1.0000 0.06160  0.00000  0.61090  Biso   1.000  H
  C208     1.0000 0.03460  0.00000  0.54890  Biso   1.000  C
  H118     1.0000 0.06300  0.00000  0.53550  Biso   1.000  H
  C209     1.0000 0.96512  0.00000  0.40558  Biso   1.000  C
  H119     1.0000 0.93840  0.00000  0.38910  Biso   1.000  H
  C210     1.0000 0.96540  0.00000  0.45110  Biso   1.000  C
  H120     1.0000 0.93700  0.00000  0.46450  Biso   1.000  H
  C211     1.0000 0.96512  0.00000  0.59442  Biso   1.000  C
  H121     1.0000 0.93840  0.00000  0.61090  Biso   1.000  H
  C212     1.0000 0.96540  0.00000  0.54890  Biso   1.000  C
  H122     1.0000 0.93700  0.00000  0.53550  Biso   1.000  H
  C213     1.0000 0.03488  0.00000  0.40558  Biso   1.000  C
  H123     1.0000 0.06160  0.00000  0.38910  Biso   1.000  H
  C214     1.0000 0.03460  0.00000  0.45110  Biso   1.000  C
  H124     1.0000 0.06300  0.00000  0.46450  Biso   1.000  H
  C215     1.0000 0.00000  0.40558  0.96512  Biso   1.000  C
  H125     1.0000 0.00000  0.38910  0.93840  Biso   1.000  H
  C216     1.0000 0.00000  0.45110  0.96540  Biso   1.000  C
  H126     1.0000 0.00000  0.46450  0.93700  Biso   1.000  H
  C217     1.0000 0.00000  0.59442  0.03488  Biso   1.000  C
  H127     1.0000 0.00000  0.61090  0.06160  Biso   1.000  H
  C218     1.0000 0.00000  0.54890  0.03460  Biso   1.000  C
  H128     1.0000 0.00000  0.53550  0.06300  Biso   1.000  H
  C219     1.0000 0.00000  0.40558  0.03488  Biso   1.000  C
  H129     1.0000 0.00000  0.38910  0.06160  Biso   1.000  H
  C220     1.0000 0.00000  0.45110  0.03460  Biso   1.000  C
  H130     1.0000 0.00000  0.46450  0.06300  Biso   1.000  H
  C221     1.0000 0.00000  0.59442  0.96512  Biso   1.000  C
  H131     1.0000 0.00000  0.61090  0.93840  Biso   1.000  H
  C222     1.0000 0.00000  0.54890  0.96540  Biso   1.000  C
  H132     1.0000 0.00000  0.53550  0.93700  Biso   1.000  H
  Cu13     1.0000 0.50000  0.72846  0.50000  Biso   1.000  Cu
  Cu14     1.0000 0.50000  0.81419  0.50000  Biso   1.000  Cu
  N19      1.0000 0.50000  0.88297  0.50000  Biso   1.000  N
  C223     1.0000 0.50000  0.97579  0.50000  Biso   1.000  C
  Cu15     1.0000 0.50000  0.27154  0.50000  Biso   1.000  Cu
  Cu16     1.0000 0.50000  0.18581  0.50000  Biso   1.000  Cu
  N20      1.0000 0.50000  0.11703  0.50000  Biso   1.000  N
  C224     1.0000 0.50000  0.02421  0.50000  Biso   1.000  C
  Cu17     1.0000 0.50000  0.50000  0.72846  Biso   1.000  Cu
  Cu18     1.0000 0.50000  0.50000  0.81419  Biso   1.000  Cu
  N21      1.0000 0.50000  0.50000  0.88297  Biso   1.000  N
  C225     1.0000 0.50000  0.50000  0.97579  Biso   1.000  C
  Cu19     1.0000 0.50000  0.50000  0.27154  Biso   1.000  Cu
  Cu20     1.0000 0.50000  0.50000  0.18581  Biso   1.000  Cu
  N22      1.0000 0.50000  0.50000  0.11703  Biso   1.000  N
  C226     1.0000 0.50000  0.50000  0.02421  Biso   1.000  C
  Cu21     1.0000 0.72846  0.50000  0.50000  Biso   1.000  Cu
  Cu22     1.0000 0.81419  0.50000  0.50000  Biso   1.000  Cu
  N23      1.0000 0.88297  0.50000  0.50000  Biso   1.000  N
  C227     1.0000 0.97579  0.50000  0.50000  Biso   1.000  C
  Cu23     1.0000 0.27154  0.50000  0.50000  Biso   1.000  Cu
  Cu24     1.0000 0.18581  0.50000  0.50000  Biso   1.000  Cu
  N24      1.0000 0.11703  0.50000  0.50000  Biso   1.000  N
  C228     1.0000 0.02421  0.50000  0.50000  Biso   1.000  C
  N25      1.0000 0.50000  0.76545  0.76545  Biso   1.000  N
  H133     1.0000 0.50000  0.78630  0.78630  Biso   1.000  H
  N26      1.0000 0.50000  0.23455  0.76545  Biso   1.000  N
  H134     1.0000 0.50000  0.21370  0.78630  Biso   1.000  H
  N27      1.0000 0.50000  0.76545  0.23455  Biso   1.000  N
  H135     1.0000 0.50000  0.78630  0.21370  Biso   1.000  H
  N28      1.0000 0.50000  0.23455  0.23455  Biso   1.000  N
  H136     1.0000 0.50000  0.21370  0.21370  Biso   1.000  H
  N29      1.0000 0.76545  0.50000  0.76545  Biso   1.000  N
  H137     1.0000 0.78630  0.50000  0.78630  Biso   1.000  H
  N30      1.0000 0.76545  0.50000  0.23455  Biso   1.000  N
  H138     1.0000 0.78630  0.50000  0.21370  Biso   1.000  H
  N31      1.0000 0.23455  0.50000  0.76545  Biso   1.000  N
  H139     1.0000 0.21370  0.50000  0.78630  Biso   1.000  H
  N32      1.0000 0.23455  0.50000  0.23455  Biso   1.000  N
  H140     1.0000 0.21370  0.50000  0.21370  Biso   1.000  H
  N33      1.0000 0.76545  0.76545  0.50000  Biso   1.000  N
  H141     1.0000 0.78630  0.78630  0.50000  Biso   1.000  H
  N34      1.0000 0.23455  0.76545  0.50000  Biso   1.000  N
  H142     1.0000 0.21370  0.78630  0.50000  Biso   1.000  H
  N35      1.0000 0.76545  0.23455  0.50000  Biso   1.000  N
  H143     1.0000 0.78630  0.21370  0.50000  Biso   1.000  H
  N36      1.0000 0.23455  0.23455  0.50000  Biso   1.000  N
  H144     1.0000 0.21370  0.21370  0.50000  Biso   1.000  H
  C229     1.0000 0.50000  0.77237  0.58083  Biso   1.000  C
  C230     1.0000 0.50000  0.77034  0.62815  Biso   1.000  C
  C231     1.0000 0.50000  0.73141  0.65356  Biso   1.000  C
  H145     1.0000 0.50000  0.70420  0.63780  Biso   1.000  H
  C232     1.0000 0.50000  0.73212  0.69914  Biso   1.000  C
  C233     1.0000 0.50000  0.77335  0.72407  Biso   1.000  C
  C234     1.0000 0.50000  0.80904  0.70069  Biso   1.000  C
  H146     1.0000 0.50000  0.83600  0.71680  Biso   1.000  H
  C235     1.0000 0.50000  0.81141  0.65539  Biso   1.000  C
  H147     1.0000 0.50000  0.83900  0.64030  Biso   1.000  H
  O49      1.0000 0.50000  0.73485  0.56444  Biso   1.000  O
  O50      1.0000 0.50000  0.80861  0.56278  Biso   1.000  O
  C236     1.0000 0.50000  0.22763  0.58083  Biso   1.000  C
  C237     1.0000 0.50000  0.22966  0.62815  Biso   1.000  C
  C238     1.0000 0.50000  0.26859  0.65356  Biso   1.000  C
  H148     1.0000 0.50000  0.29580  0.63780  Biso   1.000  H
  C239     1.0000 0.50000  0.26788  0.69914  Biso   1.000  C
  C240     1.0000 0.50000  0.22665  0.72407  Biso   1.000  C
  C241     1.0000 0.50000  0.19096  0.70069  Biso   1.000  C
  H149     1.0000 0.50000  0.16400  0.71680  Biso   1.000  H
  C242     1.0000 0.50000  0.18859  0.65539  Biso   1.000  C
  H150     1.0000 0.50000  0.16100  0.64030  Biso   1.000  H
  O51      1.0000 0.50000  0.26515  0.56444  Biso   1.000  O
  O52      1.0000 0.50000  0.19139  0.56278  Biso   1.000  O
  C243     1.0000 0.50000  0.77237  0.41917  Biso   1.000  C
  C244     1.0000 0.50000  0.77034  0.37185  Biso   1.000  C
  C245     1.0000 0.50000  0.73141  0.34644  Biso   1.000  C
  H151     1.0000 0.50000  0.70420  0.36220  Biso   1.000  H
  C246     1.0000 0.50000  0.73212  0.30086  Biso   1.000  C
  C247     1.0000 0.50000  0.77335  0.27593  Biso   1.000  C
  C248     1.0000 0.50000  0.80904  0.29931  Biso   1.000  C
  H152     1.0000 0.50000  0.83600  0.28320  Biso   1.000  H
  C249     1.0000 0.50000  0.81141  0.34461  Biso   1.000  C
  H153     1.0000 0.50000  0.83900  0.35970  Biso   1.000  H
  O53      1.0000 0.50000  0.73485  0.43556  Biso   1.000  O
  O54      1.0000 0.50000  0.80861  0.43722  Biso   1.000  O
  C250     1.0000 0.50000  0.22763  0.41917  Biso   1.000  C
  C251     1.0000 0.50000  0.22966  0.37185  Biso   1.000  C
  C252     1.0000 0.50000  0.26859  0.34644  Biso   1.000  C
  H154     1.0000 0.50000  0.29580  0.36220  Biso   1.000  H
  C253     1.0000 0.50000  0.26788  0.30086  Biso   1.000  C
  C254     1.0000 0.50000  0.22665  0.27593  Biso   1.000  C
  C255     1.0000 0.50000  0.19096  0.29931  Biso   1.000  C
  H155     1.0000 0.50000  0.16400  0.28320  Biso   1.000  H
  C256     1.0000 0.50000  0.18859  0.34461  Biso   1.000  C
  H156     1.0000 0.50000  0.16100  0.35970  Biso   1.000  H
  O55      1.0000 0.50000  0.26515  0.43556  Biso   1.000  O
  O56      1.0000 0.50000  0.19139  0.43722  Biso   1.000  O
  C257     1.0000 0.58083  0.50000  0.77237  Biso   1.000  C
  C258     1.0000 0.62815  0.50000  0.77034  Biso   1.000  C
  C259     1.0000 0.65356  0.50000  0.73141  Biso   1.000  C
  H157     1.0000 0.63780  0.50000  0.70420  Biso   1.000  H
  C260     1.0000 0.69914  0.50000  0.73212  Biso   1.000  C
  C261     1.0000 0.72407  0.50000  0.77335  Biso   1.000  C
  C262     1.0000 0.70069  0.50000  0.80904  Biso   1.000  C
  H158     1.0000 0.71680  0.50000  0.83600  Biso   1.000  H
  C263     1.0000 0.65539  0.50000  0.81141  Biso   1.000  C
  H159     1.0000 0.64030  0.50000  0.83900  Biso   1.000  H
  O57      1.0000 0.56444  0.50000  0.73485  Biso   1.000  O
  O58      1.0000 0.56278  0.50000  0.80861  Biso   1.000  O
  C264     1.0000 0.58083  0.50000  0.22763  Biso   1.000  C
  C265     1.0000 0.62815  0.50000  0.22966  Biso   1.000  C
  C266     1.0000 0.65356  0.50000  0.26859  Biso   1.000  C
  H160     1.0000 0.63780  0.50000  0.29580  Biso   1.000  H
  C267     1.0000 0.69914  0.50000  0.26788  Biso   1.000  C
  C268     1.0000 0.72407  0.50000  0.22665  Biso   1.000  C
  C269     1.0000 0.70069  0.50000  0.19096  Biso   1.000  C
  H161     1.0000 0.71680  0.50000  0.16400  Biso   1.000  H
  C270     1.0000 0.65539  0.50000  0.18859  Biso   1.000  C
  H162     1.0000 0.64030  0.50000  0.16100  Biso   1.000  H
  O59      1.0000 0.56444  0.50000  0.26515  Biso   1.000  O
  O60      1.0000 0.56278  0.50000  0.19139  Biso   1.000  O
  C271     1.0000 0.41917  0.50000  0.77237  Biso   1.000  C
  C272     1.0000 0.37185  0.50000  0.77034  Biso   1.000  C
  C273     1.0000 0.34644  0.50000  0.73141  Biso   1.000  C
  H163     1.0000 0.36220  0.50000  0.70420  Biso   1.000  H
  C274     1.0000 0.30086  0.50000  0.73212  Biso   1.000  C
  C275     1.0000 0.27593  0.50000  0.77335  Biso   1.000  C
  C276     1.0000 0.29931  0.50000  0.80904  Biso   1.000  C
  H164     1.0000 0.28320  0.50000  0.83600  Biso   1.000  H
  C277     1.0000 0.34461  0.50000  0.81141  Biso   1.000  C
  H165     1.0000 0.35970  0.50000  0.83900  Biso   1.000  H
  O61      1.0000 0.43556  0.50000  0.73485  Biso   1.000  O
  O62      1.0000 0.43722  0.50000  0.80861  Biso   1.000  O
  C278     1.0000 0.41917  0.50000  0.22763  Biso   1.000  C
  C279     1.0000 0.37185  0.50000  0.22966  Biso   1.000  C
  C280     1.0000 0.34644  0.50000  0.26859  Biso   1.000  C
  H166     1.0000 0.36220  0.50000  0.29580  Biso   1.000  H
  C281     1.0000 0.30086  0.50000  0.26788  Biso   1.000  C
  C282     1.0000 0.27593  0.50000  0.22665  Biso   1.000  C
  C283     1.0000 0.29931  0.50000  0.19096  Biso   1.000  C
  H167     1.0000 0.28320  0.50000  0.16400  Biso   1.000  H
  C284     1.0000 0.34461  0.50000  0.18859  Biso   1.000  C
  H168     1.0000 0.35970  0.50000  0.16100  Biso   1.000  H
  O63      1.0000 0.43556  0.50000  0.26515  Biso   1.000  O
  O64      1.0000 0.43722  0.50000  0.19139  Biso   1.000  O
  C285     1.0000 0.77237  0.58083  0.50000  Biso   1.000  C
  C286     1.0000 0.77034  0.62815  0.50000  Biso   1.000  C
  C287     1.0000 0.73141  0.65356  0.50000  Biso   1.000  C
  H169     1.0000 0.70420  0.63780  0.50000  Biso   1.000  H
  C288     1.0000 0.73212  0.69914  0.50000  Biso   1.000  C
  C289     1.0000 0.77335  0.72407  0.50000  Biso   1.000  C
  C290     1.0000 0.80904  0.70069  0.50000  Biso   1.000  C
  H170     1.0000 0.83600  0.71680  0.50000  Biso   1.000  H
  C291     1.0000 0.81141  0.65539  0.50000  Biso   1.000  C
  H171     1.0000 0.83900  0.64030  0.50000  Biso   1.000  H
  O65      1.0000 0.73485  0.56444  0.50000  Biso   1.000  O
  O66      1.0000 0.80861  0.56278  0.50000  Biso   1.000  O
  C292     1.0000 0.22763  0.58083  0.50000  Biso   1.000  C
  C293     1.0000 0.22966  0.62815  0.50000  Biso   1.000  C
  C294     1.0000 0.26859  0.65356  0.50000  Biso   1.000  C
  H172     1.0000 0.29580  0.63780  0.50000  Biso   1.000  H
  C295     1.0000 0.26788  0.69914  0.50000  Biso   1.000  C
  C296     1.0000 0.22665  0.72407  0.50000  Biso   1.000  C
  C297     1.0000 0.19096  0.70069  0.50000  Biso   1.000  C
  H173     1.0000 0.16400  0.71680  0.50000  Biso   1.000  H
  C298     1.0000 0.18859  0.65539  0.50000  Biso   1.000  C
  H174     1.0000 0.16100  0.64030  0.50000  Biso   1.000  H
  O67      1.0000 0.26515  0.56444  0.50000  Biso   1.000  O
  O68      1.0000 0.19139  0.56278  0.50000  Biso   1.000  O
  C299     1.0000 0.77237  0.41917  0.50000  Biso   1.000  C
  C300     1.0000 0.77034  0.37185  0.50000  Biso   1.000  C
  C301     1.0000 0.73141  0.34644  0.50000  Biso   1.000  C
  H175     1.0000 0.70420  0.36220  0.50000  Biso   1.000  H
  C302     1.0000 0.73212  0.30086  0.50000  Biso   1.000  C
  C303     1.0000 0.77335  0.27593  0.50000  Biso   1.000  C
  C304     1.0000 0.80904  0.29931  0.50000  Biso   1.000  C
  H176     1.0000 0.83600  0.28320  0.50000  Biso   1.000  H
  C305     1.0000 0.81141  0.34461  0.50000  Biso   1.000  C
  H177     1.0000 0.83900  0.35970  0.50000  Biso   1.000  H
  O69      1.0000 0.73485  0.43556  0.50000  Biso   1.000  O
  O70      1.0000 0.80861  0.43722  0.50000  Biso   1.000  O
  C306     1.0000 0.22763  0.41917  0.50000  Biso   1.000  C
  C307     1.0000 0.22966  0.37185  0.50000  Biso   1.000  C
  C308     1.0000 0.26859  0.34644  0.50000  Biso   1.000  C
  H178     1.0000 0.29580  0.36220  0.50000  Biso   1.000  H
  C309     1.0000 0.26788  0.30086  0.50000  Biso   1.000  C
  C310     1.0000 0.22665  0.27593  0.50000  Biso   1.000  C
  C311     1.0000 0.19096  0.29931  0.50000  Biso   1.000  C
  H179     1.0000 0.16400  0.28320  0.50000  Biso   1.000  H
  C312     1.0000 0.18859  0.34461  0.50000  Biso   1.000  C
  H180     1.0000 0.16100  0.35970  0.50000  Biso   1.000  H
  O71      1.0000 0.26515  0.43556  0.50000  Biso   1.000  O
  O72      1.0000 0.19139  0.43722  0.50000  Biso   1.000  O
  C313     1.0000 0.77237  0.50000  0.41917  Biso   1.000  C
  C314     1.0000 0.77034  0.50000  0.37185  Biso   1.000  C
  C315     1.0000 0.73141  0.50000  0.34644  Biso   1.000  C
  H181     1.0000 0.70420  0.50000  0.36220  Biso   1.000  H
  C316     1.0000 0.73212  0.50000  0.30086  Biso   1.000  C
  C317     1.0000 0.77335  0.50000  0.27593  Biso   1.000  C
  C318     1.0000 0.80904  0.50000  0.29931  Biso   1.000  C
  H182     1.0000 0.83600  0.50000  0.28320  Biso   1.000  H
  C319     1.0000 0.81141  0.50000  0.34461  Biso   1.000  C
  H183     1.0000 0.83900  0.50000  0.35970  Biso   1.000  H
  O73      1.0000 0.73485  0.50000  0.43556  Biso   1.000  O
  O74      1.0000 0.80861  0.50000  0.43722  Biso   1.000  O
  C320     1.0000 0.22763  0.50000  0.41917  Biso   1.000  C
  C321     1.0000 0.22966  0.50000  0.37185  Biso   1.000  C
  C322     1.0000 0.26859  0.50000  0.34644  Biso   1.000  C
  H184     1.0000 0.29580  0.50000  0.36220  Biso   1.000  H
  C323     1.0000 0.26788  0.50000  0.30086  Biso   1.000  C
  C324     1.0000 0.22665  0.50000  0.27593  Biso   1.000  C
  C325     1.0000 0.19096  0.50000  0.29931  Biso   1.000  C
  H185     1.0000 0.16400  0.50000  0.28320  Biso   1.000  H
  C326     1.0000 0.18859  0.50000  0.34461  Biso   1.000  C
  H186     1.0000 0.16100  0.50000  0.35970  Biso   1.000  H
  O75      1.0000 0.26515  0.50000  0.43556  Biso   1.000  O
  O76      1.0000 0.19139  0.50000  0.43722  Biso   1.000  O
  C327     1.0000 0.77237  0.50000  0.58083  Biso   1.000  C
  C328     1.0000 0.77034  0.50000  0.62815  Biso   1.000  C
  C329     1.0000 0.73141  0.50000  0.65356  Biso   1.000  C
  H187     1.0000 0.70420  0.50000  0.63780  Biso   1.000  H
  C330     1.0000 0.73212  0.50000  0.69914  Biso   1.000  C
  C331     1.0000 0.77335  0.50000  0.72407  Biso   1.000  C
  C332     1.0000 0.80904  0.50000  0.70069  Biso   1.000  C
  H188     1.0000 0.83600  0.50000  0.71680  Biso   1.000  H
  C333     1.0000 0.81141  0.50000  0.65539  Biso   1.000  C
  H189     1.0000 0.83900  0.50000  0.64030  Biso   1.000  H
  O77      1.0000 0.73485  0.50000  0.56444  Biso   1.000  O
  O78      1.0000 0.80861  0.50000  0.56278  Biso   1.000  O
  C334     1.0000 0.22763  0.50000  0.58083  Biso   1.000  C
  C335     1.0000 0.22966  0.50000  0.62815  Biso   1.000  C
  C336     1.0000 0.26859  0.50000  0.65356  Biso   1.000  C
  H190     1.0000 0.29580  0.50000  0.63780  Biso   1.000  H
  C337     1.0000 0.26788  0.50000  0.69914  Biso   1.000  C
  C338     1.0000 0.22665  0.50000  0.72407  Biso   1.000  C
  C339     1.0000 0.19096  0.50000  0.70069  Biso   1.000  C
  H191     1.0000 0.16400  0.50000  0.71680  Biso   1.000  H
  C340     1.0000 0.18859  0.50000  0.65539  Biso   1.000  C
  H192     1.0000 0.16100  0.50000  0.64030  Biso   1.000  H
  O79      1.0000 0.26515  0.50000  0.56444  Biso   1.000  O
  O80      1.0000 0.19139  0.50000  0.56278  Biso   1.000  O
  C341     1.0000 0.50000  0.58083  0.22763  Biso   1.000  C
  C342     1.0000 0.50000  0.62815  0.22966  Biso   1.000  C
  C343     1.0000 0.50000  0.65356  0.26859  Biso   1.000  C
  H193     1.0000 0.50000  0.63780  0.29580  Biso   1.000  H
  C344     1.0000 0.50000  0.69914  0.26788  Biso   1.000  C
  C345     1.0000 0.50000  0.72407  0.22665  Biso   1.000  C
  C346     1.0000 0.50000  0.70069  0.19096  Biso   1.000  C
  H194     1.0000 0.50000  0.71680  0.16400  Biso   1.000  H
  C347     1.0000 0.50000  0.65539  0.18859  Biso   1.000  C
  H195     1.0000 0.50000  0.64030  0.16100  Biso   1.000  H
  O81      1.0000 0.50000  0.56444  0.26515  Biso   1.000  O
  O82      1.0000 0.50000  0.56278  0.19139  Biso   1.000  O
  C348     1.0000 0.50000  0.58083  0.77237  Biso   1.000  C
  C349     1.0000 0.50000  0.62815  0.77034  Biso   1.000  C
  C350     1.0000 0.50000  0.65356  0.73141  Biso   1.000  C
  H196     1.0000 0.50000  0.63780  0.70420  Biso   1.000  H
  C351     1.0000 0.50000  0.69914  0.73212  Biso   1.000  C
  C352     1.0000 0.50000  0.72407  0.77335  Biso   1.000  C
  C353     1.0000 0.50000  0.70069  0.80904  Biso   1.000  C
  H197     1.0000 0.50000  0.71680  0.83600  Biso   1.000  H
  C354     1.0000 0.50000  0.65539  0.81141  Biso   1.000  C
  H198     1.0000 0.50000  0.64030  0.83900  Biso   1.000  H
  O83      1.0000 0.50000  0.56444  0.73485  Biso   1.000  O
  O84      1.0000 0.50000  0.56278  0.80861  Biso   1.000  O
  C355     1.0000 0.50000  0.41917  0.22763  Biso   1.000  C
  C356     1.0000 0.50000  0.37185  0.22966  Biso   1.000  C
  C357     1.0000 0.50000  0.34644  0.26859  Biso   1.000  C
  H199     1.0000 0.50000  0.36220  0.29580  Biso   1.000  H
  C358     1.0000 0.50000  0.30086  0.26788  Biso   1.000  C
  C359     1.0000 0.50000  0.27593  0.22665  Biso   1.000  C
  C360     1.0000 0.50000  0.29931  0.19096  Biso   1.000  C
  H200     1.0000 0.50000  0.28320  0.16400  Biso   1.000  H
  C361     1.0000 0.50000  0.34461  0.18859  Biso   1.000  C
  H201     1.0000 0.50000  0.35970  0.16100  Biso   1.000  H
  O85      1.0000 0.50000  0.43556  0.26515  Biso   1.000  O
  O86      1.0000 0.50000  0.43722  0.19139  Biso   1.000  O
  C362     1.0000 0.50000  0.41917  0.77237  Biso   1.000  C
  C363     1.0000 0.50000  0.37185  0.77034  Biso   1.000  C
  C364     1.0000 0.50000  0.34644  0.73141  Biso   1.000  C
  H202     1.0000 0.50000  0.36220  0.70420  Biso   1.000  H
  C365     1.0000 0.50000  0.30086  0.73212  Biso   1.000  C
  C366     1.0000 0.50000  0.27593  0.77335  Biso   1.000  C
  C367     1.0000 0.50000  0.29931  0.80904  Biso   1.000  C
  H203     1.0000 0.50000  0.28320  0.83600  Biso   1.000  H
  C368     1.0000 0.50000  0.34461  0.81141  Biso   1.000  C
  H204     1.0000 0.50000  0.35970  0.83900  Biso   1.000  H
  O87      1.0000 0.50000  0.43556  0.73485  Biso   1.000  O
  O88      1.0000 0.50000  0.43722  0.80861  Biso   1.000  O
  C369     1.0000 0.58083  0.77237  0.50000  Biso   1.000  C
  C370     1.0000 0.62815  0.77034  0.50000  Biso   1.000  C
  C371     1.0000 0.65356  0.73141  0.50000  Biso   1.000  C
  H205     1.0000 0.63780  0.70420  0.50000  Biso   1.000  H
  C372     1.0000 0.69914  0.73212  0.50000  Biso   1.000  C
  C373     1.0000 0.72407  0.77335  0.50000  Biso   1.000  C
  C374     1.0000 0.70069  0.80904  0.50000  Biso   1.000  C
  H206     1.0000 0.71680  0.83600  0.50000  Biso   1.000  H
  C375     1.0000 0.65539  0.81141  0.50000  Biso   1.000  C
  H207     1.0000 0.64030  0.83900  0.50000  Biso   1.000  H
  O89      1.0000 0.56444  0.73485  0.50000  Biso   1.000  O
  O90      1.0000 0.56278  0.80861  0.50000  Biso   1.000  O
  C376     1.0000 0.58083  0.22763  0.50000  Biso   1.000  C
  C377     1.0000 0.62815  0.22966  0.50000  Biso   1.000  C
  C378     1.0000 0.65356  0.26859  0.50000  Biso   1.000  C
  H208     1.0000 0.63780  0.29580  0.50000  Biso   1.000  H
  C379     1.0000 0.69914  0.26788  0.50000  Biso   1.000  C
  C380     1.0000 0.72407  0.22665  0.50000  Biso   1.000  C
  C381     1.0000 0.70069  0.19096  0.50000  Biso   1.000  C
  H209     1.0000 0.71680  0.16400  0.50000  Biso   1.000  H
  C382     1.0000 0.65539  0.18859  0.50000  Biso   1.000  C
  H210     1.0000 0.64030  0.16100  0.50000  Biso   1.000  H
  O91      1.0000 0.56444  0.26515  0.50000  Biso   1.000  O
  O92      1.0000 0.56278  0.19139  0.50000  Biso   1.000  O
  C383     1.0000 0.41917  0.77237  0.50000  Biso   1.000  C
  C384     1.0000 0.37185  0.77034  0.50000  Biso   1.000  C
  C385     1.0000 0.34644  0.73141  0.50000  Biso   1.000  C
  H211     1.0000 0.36220  0.70420  0.50000  Biso   1.000  H
  C386     1.0000 0.30086  0.73212  0.50000  Biso   1.000  C
  C387     1.0000 0.27593  0.77335  0.50000  Biso   1.000  C
  C388     1.0000 0.29931  0.80904  0.50000  Biso   1.000  C
  H212     1.0000 0.28320  0.83600  0.50000  Biso   1.000  H
  C389     1.0000 0.34461  0.81141  0.50000  Biso   1.000  C
  H213     1.0000 0.35970  0.83900  0.50000  Biso   1.000  H
  O93      1.0000 0.43556  0.73485  0.50000  Biso   1.000  O
  O94      1.0000 0.43722  0.80861  0.50000  Biso   1.000  O
  C390     1.0000 0.41917  0.22763  0.50000  Biso   1.000  C
  C391     1.0000 0.37185  0.22966  0.50000  Biso   1.000  C
  C392     1.0000 0.34644  0.26859  0.50000  Biso   1.000  C
  H214     1.0000 0.36220  0.29580  0.50000  Biso   1.000  H
  C393     1.0000 0.30086  0.26788  0.50000  Biso   1.000  C
  C394     1.0000 0.27593  0.22665  0.50000  Biso   1.000  C
  C395     1.0000 0.29931  0.19096  0.50000  Biso   1.000  C
  H215     1.0000 0.28320  0.16400  0.50000  Biso   1.000  H
  C396     1.0000 0.34461  0.18859  0.50000  Biso   1.000  C
  H216     1.0000 0.35970  0.16100  0.50000  Biso   1.000  H
  O95      1.0000 0.43556  0.26515  0.50000  Biso   1.000  O
  O96      1.0000 0.43722  0.19139  0.50000  Biso   1.000  O
  C397     1.0000 0.53488  0.90558  0.50000  Biso   1.000  C
  H217     1.0000 0.56160  0.88910  0.50000  Biso   1.000  H
  C398     1.0000 0.53460  0.95110  0.50000  Biso   1.000  C
  H218     1.0000 0.56300  0.96450  0.50000  Biso   1.000  H
  C399     1.0000 0.46512  0.09442  0.50000  Biso   1.000  C
  H219     1.0000 0.43840  0.11090  0.50000  Biso   1.000  H
  C400     1.0000 0.46540  0.04890  0.50000  Biso   1.000  C
  H220     1.0000 0.43700  0.03550  0.50000  Biso   1.000  H
  C401     1.0000 0.46512  0.90558  0.50000  Biso   1.000  C
  H221     1.0000 0.43840  0.88910  0.50000  Biso   1.000  H
  C402     1.0000 0.46540  0.95110  0.50000  Biso   1.000  C
  H222     1.0000 0.43700  0.96450  0.50000  Biso   1.000  H
  C403     1.0000 0.53488  0.09442  0.50000  Biso   1.000  C
  H223     1.0000 0.56160  0.11090  0.50000  Biso   1.000  H
  C404     1.0000 0.53460  0.04890  0.50000  Biso   1.000  C
  H224     1.0000 0.56300  0.03550  0.50000  Biso   1.000  H
  C405     1.0000 0.50000  0.53488  0.90558  Biso   1.000  C
  H225     1.0000 0.50000  0.56160  0.88910  Biso   1.000  H
  C406     1.0000 0.50000  0.53460  0.95110  Biso   1.000  C
  H226     1.0000 0.50000  0.56300  0.96450  Biso   1.000  H
  C407     1.0000 0.50000  0.46512  0.09442  Biso   1.000  C
  H227     1.0000 0.50000  0.43840  0.11090  Biso   1.000  H
  C408     1.0000 0.50000  0.46540  0.04890  Biso   1.000  C
  H228     1.0000 0.50000  0.43700  0.03550  Biso   1.000  H
  C409     1.0000 0.50000  0.46512  0.90558  Biso   1.000  C
  H229     1.0000 0.50000  0.43840  0.88910  Biso   1.000  H
  C410     1.0000 0.50000  0.46540  0.95110  Biso   1.000  C
  H230     1.0000 0.50000  0.43700  0.96450  Biso   1.000  H
  C411     1.0000 0.50000  0.53488  0.09442  Biso   1.000  C
  H231     1.0000 0.50000  0.56160  0.11090  Biso   1.000  H
  C412     1.0000 0.50000  0.53460  0.04890  Biso   1.000  C
  H232     1.0000 0.50000  0.56300  0.03550  Biso   1.000  H
  C413     1.0000 0.90558  0.50000  0.53488  Biso   1.000  C
  H233     1.0000 0.88910  0.50000  0.56160  Biso   1.000  H
  C414     1.0000 0.95110  0.50000  0.53460  Biso   1.000  C
  H234     1.0000 0.96450  0.50000  0.56300  Biso   1.000  H
  C415     1.0000 0.09442  0.50000  0.46512  Biso   1.000  C
  H235     1.0000 0.11090  0.50000  0.43840  Biso   1.000  H
  C416     1.0000 0.04890  0.50000  0.46540  Biso   1.000  C
  H236     1.0000 0.03550  0.50000  0.43700  Biso   1.000  H
  C417     1.0000 0.90558  0.50000  0.46512  Biso   1.000  C
  H237     1.0000 0.88910  0.50000  0.43840  Biso   1.000  H
  C418     1.0000 0.95110  0.50000  0.46540  Biso   1.000  C
  H238     1.0000 0.96450  0.50000  0.43700  Biso   1.000  H
  C419     1.0000 0.09442  0.50000  0.53488  Biso   1.000  C
  H239     1.0000 0.11090  0.50000  0.56160  Biso   1.000  H
  C420     1.0000 0.04890  0.50000  0.53460  Biso   1.000  C
  H240     1.0000 0.03550  0.50000  0.56300  Biso   1.000  H
  C421     1.0000 0.90558  0.53488  0.50000  Biso   1.000  C
  H241     1.0000 0.88910  0.56160  0.50000  Biso   1.000  H
  C422     1.0000 0.95110  0.53460  0.50000  Biso   1.000  C
  H242     1.0000 0.96450  0.56300  0.50000  Biso   1.000  H
  C423     1.0000 0.09442  0.46512  0.50000  Biso   1.000  C
  H243     1.0000 0.11090  0.43840  0.50000  Biso   1.000  H
  C424     1.0000 0.04890  0.46540  0.50000  Biso   1.000  C
  H244     1.0000 0.03550  0.43700  0.50000  Biso   1.000  H
  C425     1.0000 0.90558  0.46512  0.50000  Biso   1.000  C
  H245     1.0000 0.88910  0.43840  0.50000  Biso   1.000  H
  C426     1.0000 0.95110  0.46540  0.50000  Biso   1.000  C
  H246     1.0000 0.96450  0.43700  0.50000  Biso   1.000  H
  C427     1.0000 0.09442  0.53488  0.50000  Biso   1.000  C
  H247     1.0000 0.11090  0.56160  0.50000  Biso   1.000  H
  C428     1.0000 0.04890  0.53460  0.50000  Biso   1.000  C
  H248     1.0000 0.03550  0.56300  0.50000  Biso   1.000  H
  C429     1.0000 0.53488  0.50000  0.09442  Biso   1.000  C
  H249     1.0000 0.56160  0.50000  0.11090  Biso   1.000  H
  C430     1.0000 0.53460  0.50000  0.04890  Biso   1.000  C
  H250     1.0000 0.56300  0.50000  0.03550  Biso   1.000  H
  C431     1.0000 0.46512  0.50000  0.90558  Biso   1.000  C
  H251     1.0000 0.43840  0.50000  0.88910  Biso   1.000  H
  C432     1.0000 0.46540  0.50000  0.95110  Biso   1.000  C
  H252     1.0000 0.43700  0.50000  0.96450  Biso   1.000  H
  C433     1.0000 0.46512  0.50000  0.09442  Biso   1.000  C
  H253     1.0000 0.43840  0.50000  0.11090  Biso   1.000  H
  C434     1.0000 0.46540  0.50000  0.04890  Biso   1.000  C
  H254     1.0000 0.43700  0.50000  0.03550  Biso   1.000  H
  C435     1.0000 0.53488  0.50000  0.90558  Biso   1.000  C
  H255     1.0000 0.56160  0.50000  0.88910  Biso   1.000  H
  C436     1.0000 0.53460  0.50000  0.95110  Biso   1.000  C
  H256     1.0000 0.56300  0.50000  0.96450  Biso   1.000  H
  C437     1.0000 0.50000  0.90558  0.46512  Biso   1.000  C
  H257     1.0000 0.50000  0.88910  0.43840  Biso   1.000  H
  C438     1.0000 0.50000  0.95110  0.46540  Biso   1.000  C
  H258     1.0000 0.50000  0.96450  0.43700  Biso   1.000  H
  C439     1.0000 0.50000  0.09442  0.53488  Biso   1.000  C
  H259     1.0000 0.50000  0.11090  0.56160  Biso   1.000  H
  C440     1.0000 0.50000  0.04890  0.53460  Biso   1.000  C
  H260     1.0000 0.50000  0.03550  0.56300  Biso   1.000  H
  C441     1.0000 0.50000  0.90558  0.53488  Biso   1.000  C
  H261     1.0000 0.50000  0.88910  0.56160  Biso   1.000  H
  C442     1.0000 0.50000  0.95110  0.53460  Biso   1.000  C
  H262     1.0000 0.50000  0.96450  0.56300  Biso   1.000  H
  C443     1.0000 0.50000  0.09442  0.46512  Biso   1.000  C
  H263     1.0000 0.50000  0.11090  0.43840  Biso   1.000  H
  C444     1.0000 0.50000  0.04890  0.46540  Biso   1.000  C
  H264     1.0000 0.50000  0.03550  0.43700  Biso   1.000  H
