data_image0
_cell_length_a       35.1105
_cell_length_b       14.808
_cell_length_c       31.4241
_cell_angle_alpha    90
_cell_angle_beta     102.544
_cell_angle_gamma    90

_symmetry_space_group_name_H-M    "P 1"
_symmetry_int_tables_number       1

loop_
  _symmetry_equiv_pos_as_xyz
  'x, y, z'

loop_
  _atom_site_label
  _atom_site_occupancy
  _atom_site_fract_x
  _atom_site_fract_y
  _atom_site_fract_z
  _atom_site_thermal_displace_type
  _atom_site_B_iso_or_equiv
  _atom_site_type_symbol
  O1       1.0000 0.61010  0.35020  0.62930  Biso   1.000  O
  C1       1.0000 0.64670  0.30900  0.63400  Biso   1.000  C
  H1       1.0000 0.65540  0.31090  0.60610  Biso   1.000  H
  H2       1.0000 0.64530  0.24500  0.64270  Biso   1.000  H
  C2       1.0000 0.67460  0.36000  0.66840  Biso   1.000  C
  C3       1.0000 0.65100  0.43650  0.68270  Biso   1.000  C
  H3       1.0000 0.64100  0.41500  0.70840  Biso   1.000  H
  C4       1.0000 0.67280  0.52700  0.69530  Biso   1.000  C
  H4       1.0000 0.69770  0.51740  0.71670  Biso   1.000  H
  H5       1.0000 0.65650  0.57000  0.70770  Biso   1.000  H
  C5       1.0000 0.68110  0.56660  0.64660  Biso   1.000  C
  C6       1.0000 0.65450  0.54900  0.60960  Biso   1.000  C
  H6       1.0000 0.65840  0.57730  0.58390  Biso   1.000  H
  C7       1.0000 0.62460  0.49700  0.60530  Biso   1.000  C
  H7       1.0000 0.60750  0.49210  0.57750  Biso   1.000  H
  C8       1.0000 0.61580  0.44400  0.64320  Biso   1.000  C
  O2       1.0000 0.70760  0.62100  0.65270  Biso   1.000  O
  C9       1.0000 0.58090  0.48300  0.65500  Biso   1.000  C
  S1       1.0000 0.54410  0.41260  0.66210  Biso   1.000  S
  C10      1.0000 0.51620  0.49500  0.67120  Biso   1.000  C
  H8       1.0000 0.49020  0.48680  0.67480  Biso   1.000  H
  C11      1.0000 0.53700  0.58700  0.67340  Biso   1.000  C
  H9       1.0000 0.52770  0.64330  0.68140  Biso   1.000  H
  C12      1.0000 0.57230  0.57000  0.66110  Biso   1.000  C
  H10      1.0000 0.58940  0.61770  0.65730  Biso   1.000  H
  C13      1.0000 0.71100  0.34100  0.68140  Biso   1.000  C
  H11      1.0000 0.72570  0.38230  0.70160  Biso   1.000  H
  C14      1.0000 0.73310  0.26400  0.66940  Biso   1.000  C
  O3       1.0000 0.71590  0.20350  0.64530  Biso   1.000  O
  O4       1.0000 0.77030  0.26700  0.67880  Biso   1.000  O
  C15      1.0000 0.79600  0.20500  0.66900  Biso   1.000  C
  H12      1.0000 0.82030  0.20400  0.69260  Biso   1.000  H
  H13      1.0000 0.80410  0.22260  0.64160  Biso   1.000  H
  C16      1.0000 0.77900  0.11300  0.66400  Biso   1.000  C
  H14      1.0000 0.79770  0.07000  0.65690  Biso   1.000  H
  H15      1.0000 0.77160  0.09540  0.69110  Biso   1.000  H
  H16      1.0000 0.75540  0.11390  0.64020  Biso   1.000  H
  O5       1.0000 0.24740  0.49200  0.20170  Biso   1.000  O
  C17      1.0000 0.22850  0.41100  0.19800  Biso   1.000  C
  H17      1.0000 0.21770  0.39910  0.22370  Biso   1.000  H
  H18      1.0000 0.24680  0.36150  0.19480  Biso   1.000  H
  C18      1.0000 0.19570  0.41500  0.15700  Biso   1.000  C
  C19      1.0000 0.19870  0.51700  0.15200  Biso   1.000  C
  H19      1.0000 0.21490  0.52320  0.12930  Biso   1.000  H
  C20      1.0000 0.15990  0.56700  0.13000  Biso   1.000  C
  H20      1.0000 0.16600  0.61650  0.11110  Biso   1.000  H
  H21      1.0000 0.14230  0.52410  0.11100  Biso   1.000  H
  C21      1.0000 0.14000  0.60400  0.16100  Biso   1.000  C
  C22      1.0000 0.16370  0.59900  0.20500  Biso   1.000  C
  H22      1.0000 0.14920  0.61710  0.22600  Biso   1.000  H
  C23      1.0000 0.19590  0.57700  0.22300  Biso   1.000  C
  H23      1.0000 0.20620  0.56970  0.25280  Biso   1.000  H
  C24      1.0000 0.21810  0.56400  0.18400  Biso   1.000  C
  O6       1.0000 0.10330  0.61000  0.15500  Biso   1.000  O
  C25      1.0000 0.24110  0.64500  0.18000  Biso   1.000  C
  S2       1.0000 0.28810  0.63800  0.17290  Biso   1.000  S
  C26      1.0000 0.29060  0.74800  0.16460  Biso   1.000  C
  H24      1.0000 0.31150  0.77780  0.15570  Biso   1.000  H
  C27      1.0000 0.25730  0.79000  0.17270  Biso   1.000  C
  H25      1.0000 0.25460  0.85420  0.17190  Biso   1.000  H
  C28      1.0000 0.22790  0.73400  0.18200  Biso   1.000  C
  H26      1.0000 0.20380  0.75250  0.18840  Biso   1.000  H
  C29      1.0000 0.17000  0.34500  0.15200  Biso   1.000  C
  H27      1.0000 0.14510  0.35020  0.15910  Biso   1.000  H
  C30      1.0000 0.18270  0.26700  0.13550  Biso   1.000  C
  O7       1.0000 0.15950  0.20600  0.11400  Biso   1.000  O
  O8       1.0000 0.20470  0.23300  0.17310  Biso   1.000  O
  C31      1.0000 0.21600  0.14200  0.16600  Biso   1.000  C
  H28      1.0000 0.19210  0.10740  0.16860  Biso   1.000  H
  H29      1.0000 0.21610  0.14120  0.13490  Biso   1.000  H
  C32      1.0000 0.24140  0.09000  0.18100  Biso   1.000  C
  H30      1.0000 0.23670  0.03230  0.16570  Biso   1.000  H
  H31      1.0000 0.26640  0.11490  0.17800  Biso   1.000  H
  H32      1.0000 0.24200  0.08040  0.21220  Biso   1.000  H
  C33      1.0000 0.02320  0.47600  0.15500  Biso   1.000  C
  H33      1.0000 0.03600  0.51830  0.13870  Biso   1.000  H
  H34      1.0000 0.00630  0.50980  0.17110  Biso   1.000  H
  C34      1.0000 0.05310  0.41900  0.18660  Biso   1.000  C
  H35      1.0000 0.03920  0.37700  0.20230  Biso   1.000  H
  H36      1.0000 0.06910  0.45980  0.20840  Biso   1.000  H
  C35      1.0000 0.08030  0.36500  0.16400  Biso   1.000  C
  H37      1.0000 0.09530  0.40720  0.14950  Biso   1.000  H
  H38      1.0000 0.09910  0.33090  0.18630  Biso   1.000  H
  C36      1.0000 0.05810  0.29900  0.13000  Biso   1.000  C
  H39      1.0000 0.04690  0.25020  0.14510  Biso   1.000  H
  H40      1.0000 0.07600  0.27250  0.11350  Biso   1.000  H
  C37      1.0000 0.02540  0.35200  0.09980  Biso   1.000  C
  H41      1.0000 0.03700  0.39510  0.08240  Biso   1.000  H
  H42      1.0000 0.00910  0.30880  0.07950  Biso   1.000  H
  C38      1.0000 0.99960  0.40300  0.12500  Biso   1.000  C
  H43      1.0000 0.98820  0.35960  0.14300  Biso   1.000  H
  H44      1.0000 0.97790  0.43210  0.10440  Biso   1.000  H
  O9       1.0000 0.93380  0.66500  0.95870  Biso   1.000  O
  C39      1.0000 0.92370  0.57300  0.95900  Biso   1.000  C
  H45      1.0000 0.92110  0.54580  0.93000  Biso   1.000  H
  H46      1.0000 0.89890  0.56540  0.96890  Biso   1.000  H
  C40      1.0000 0.95710  0.53400  0.99110  Biso   1.000  C
  C41      1.0000 0.98690  0.60200  0.00760  Biso   1.000  C
  H47      1.0000 0.98050  0.62850  0.03450  Biso   1.000  H
  C42      1.0000 0.02810  0.58100  0.01780  Biso   1.000  C
  H48      1.0000 0.03230  0.52800  0.03720  Biso   1.000  H
  H49      1.0000 0.04230  0.63280  0.03410  Biso   1.000  H
  C43      1.0000 0.04550  0.56200  0.97820  Biso   1.000  C
  C44      1.0000 0.02810  0.60100  0.94050  Biso   1.000  C
  H50      1.0000 0.03780  0.58900  0.91520  Biso   1.000  H
  C45      1.0000 0.99690  0.65800  0.93710  Biso   1.000  C
  H51      1.0000 0.98910  0.68890  0.91000  Biso   1.000  H
  C46      1.0000 0.97450  0.67700  0.96910  Biso   1.000  C
  O10      1.0000 0.07290  0.50700  0.97670  Biso   1.000  O
  C47      1.0000 0.98440  0.77200  0.98700  Biso   1.000  C
  S3       1.0000 0.95880  0.82190  0.02140  Biso   1.000  S
  C48      1.0000 0.98500  0.92200  0.02190  Biso   1.000  C
  H52      1.0000 0.98320  0.96980  0.04150  Biso   1.000  H
  C49      1.0000 0.00800  0.92600  0.99090  Biso   1.000  C
  H53      1.0000 0.02130  0.97840  0.98360  Biso   1.000  H
  C50      1.0000 0.00860  0.83600  0.97190  Biso   1.000  C
  H54      1.0000 0.02390  0.82080  0.95130  Biso   1.000  H
  C51      1.0000 0.95830  0.44600  0.00400  Biso   1.000  C
  H55      1.0000 0.98000  0.42740  0.02560  Biso   1.000  H
  C52      1.0000 0.92950  0.37900  0.98680  Biso   1.000  C
  O11      1.0000 0.89720  0.39300  0.96090  Biso   1.000  O
  O12      1.0000 0.94040  0.29000  0.00300  Biso   1.000  O
  C53      1.0000 0.91500  0.22200  0.98800  Biso   1.000  C
  H56      1.0000 0.90430  0.23980  0.95790  Biso   1.000  H
  H57      1.0000 0.89390  0.23330  0.00390  Biso   1.000  H
  C54      1.0000 0.91500  0.11900  0.98500  Biso   1.000  C
  H58      1.0000 0.88910  0.09750  0.97180  Biso   1.000  H
  H59      1.0000 0.93380  0.09980  0.96790  Biso   1.000  H
  H60      1.0000 0.92320  0.09320  0.01480  Biso   1.000  H
  C55      1.0000 0.94420  0.15600  0.98200  Biso   1.000  C
  H61      1.0000 0.96650  0.11870  0.97760  Biso   1.000  H
  H62      1.0000 0.93770  0.13930  0.00970  Biso   1.000  H
  C56      1.0000 0.95400  0.25800  0.98100  Biso   1.000  C
  H63      1.0000 0.95270  0.28550  0.00930  Biso   1.000  H
  H64      1.0000 0.98150  0.26490  0.97730  Biso   1.000  H
  C57      1.0000 0.92620  0.30500  0.94400  Biso   1.000  C
  H65      1.0000 0.92770  0.27740  0.91570  Biso   1.000  H
  H66      1.0000 0.93340  0.36980  0.94300  Biso   1.000  H
  C58      1.0000 0.88440  0.29700  0.95100  Biso   1.000  C
  H67      1.0000 0.86600  0.33040  0.92790  Biso   1.000  H
  H68      1.0000 0.88280  0.32350  0.97960  Biso   1.000  H
  C59      1.0000 0.87340  0.19500  0.95000  Biso   1.000  C
  H69      1.0000 0.86580  0.17800  0.97710  Biso   1.000  H
  H70      1.0000 0.85120  0.18360  0.92500  Biso   1.000  H
  C60      1.0000 0.90910  0.14100  0.94400  Biso   1.000  C
  H71      1.0000 0.90240  0.07570  0.94240  Biso   1.000  H
  H72      1.0000 0.91620  0.15810  0.91640  Biso   1.000  H
  C61      1.0000 0.80100  0.17700  0.70800  Biso   1.000  C
  H73      1.0000 0.81620  0.19870  0.68720  Biso   1.000  H
  H74      1.0000 0.78540  0.12390  0.69520  Biso   1.000  H
  C62      1.0000 0.82900  0.14800  0.75100  Biso   1.000  C
  H75      1.0000 0.83600  0.08310  0.74900  Biso   1.000  H
  H76      1.0000 0.85360  0.18320  0.75470  Biso   1.000  H
  C63      1.0000 0.81100  0.16200  0.79100  Biso   1.000  C
  H77      1.0000 0.82830  0.13490  0.81680  Biso   1.000  H
  H78      1.0000 0.78550  0.13170  0.78590  Biso   1.000  H
  C64      1.0000 0.80600  0.26400  0.79900  Biso   1.000  C
  H79      1.0000 0.78510  0.27290  0.81450  Biso   1.000  H
  H80      1.0000 0.83060  0.28860  0.81640  Biso   1.000  H
  C65      1.0000 0.79600  0.31200  0.75400  Biso   1.000  C
  H81      1.0000 0.77980  0.36600  0.75690  Biso   1.000  H
  H82      1.0000 0.82030  0.33370  0.74660  Biso   1.000  H
  C66      1.0000 0.77400  0.25100  0.71800  Biso   1.000  C
  H83      1.0000 0.75100  0.22410  0.72670  Biso   1.000  H
  H84      1.0000 0.76430  0.28750  0.69110  Biso   1.000  H
  C67      1.0000 0.54900  0.34900  0.64900  Biso   1.000  C
  H85      1.0000 0.53770  0.33690  0.67530  Biso   1.000  H
  H86      1.0000 0.55810  0.29050  0.64010  Biso   1.000  H
  C68      1.0000 0.51700  0.38700  0.61200  Biso   1.000  C
  H87      1.0000 0.52700  0.39610  0.58590  Biso   1.000  H
  C69      1.0000 0.50200  0.47700  0.62700  Biso   1.000  C
  H88      1.0000 0.49140  0.46750  0.65350  Biso   1.000  H
  H89      1.0000 0.48150  0.50240  0.60400  Biso   1.000  H
  C70      1.0000 0.53700  0.54300  0.63800  Biso   1.000  C
  H90      1.0000 0.54770  0.55290  0.61170  Biso   1.000  H
  H91      1.0000 0.52790  0.60240  0.64670  Biso   1.000  H
  C71      1.0000 0.56900  0.50600  0.67500  Biso   1.000  C
  H92      1.0000 0.59100  0.54860  0.68160  Biso   1.000  H
  H93      1.0000 0.55850  0.49840  0.70160  Biso   1.000  H
  C72      1.0000 0.58300  0.41400  0.66200  Biso   1.000  C
  H94      1.0000 0.60290  0.38890  0.68670  Biso   1.000  H
  H95      1.0000 0.59600  0.42210  0.63700  Biso   1.000  H
  C73      1.0000 0.76300  0.55200  0.77800  Biso   1.000  C
  H96      1.0000 0.76980  0.57030  0.80900  Biso   1.000  H
  H97      1.0000 0.77450  0.49240  0.77500  Biso   1.000  H
  C74      1.0000 0.77700  0.62300  0.74900  Biso   1.000  C
  H98      1.0000 0.80380  0.60730  0.74600  Biso   1.000  H
  H99      1.0000 0.77770  0.68330  0.76250  Biso   1.000  H
  C75      1.0000 0.74800  0.62200  0.70400  Biso   1.000  C
  H100     1.0000 0.72480  0.65700  0.70530  Biso   1.000  H
  H101     1.0000 0.76100  0.64890  0.68180  Biso   1.000  H
  C76      1.0000 0.73700  0.52200  0.69200  Biso   1.000  C
  H102     1.0000 0.72510  0.51750  0.66030  Biso   1.000  H
  H103     1.0000 0.76070  0.48330  0.69820  Biso   1.000  H
  C77      1.0000 0.70800  0.49400  0.71900  Biso   1.000  C
  H104     1.0000 0.68090  0.50710  0.70370  Biso   1.000  H
  H105     1.0000 0.71000  0.42780  0.72530  Biso   1.000  H
  C78      1.0000 0.71800  0.54600  0.76300  Biso   1.000  C
  H106     1.0000 0.70630  0.51500  0.78490  Biso   1.000  H
  H107     1.0000 0.70630  0.60770  0.75840  Biso   1.000  H
  C79      1.0000 0.14600  0.52700  0.16100  Biso   1.000  C
  H108     1.0000 0.14690  0.57060  0.18520  Biso   1.000  H
  H109     1.0000 0.16990  0.48800  0.16900  Biso   1.000  H
  C80      1.0000 0.10900  0.46800  0.15400  Biso   1.000  C
  H110     1.0000 0.10700  0.42950  0.12830  Biso   1.000  H
  H111     1.0000 0.10970  0.42890  0.18000  Biso   1.000  H
  C81      1.0000 0.07300  0.53200  0.14800  Biso   1.000  C
  H112     1.0000 0.07650  0.57560  0.17270  Biso   1.000  H
  H113     1.0000 0.04910  0.49750  0.14680  Biso   1.000  H
  C82      1.0000 0.07100  0.58400  0.10500  Biso   1.000  C
  H114     1.0000 0.06740  0.54000  0.08030  Biso   1.000  H
  H115     1.0000 0.04910  0.62600  0.09960  Biso   1.000  H
  C83      1.0000 0.10900  0.63600  0.10700  Biso   1.000  C
  H116     1.0000 0.10850  0.66500  0.07800  Biso   1.000  H
  H117     1.0000 0.11150  0.68460  0.12870  Biso   1.000  H
  C84      1.0000 0.14600  0.57700  0.11800  Biso   1.000  C
  H118     1.0000 0.16940  0.61430  0.12100  Biso   1.000  H
  H119     1.0000 0.14550  0.53220  0.09450  Biso   1.000  H
  C85      1.0000 0.22890  0.83000  0.14330  Biso   1.000  C
  H120     1.0000 0.21860  0.87400  0.12000  Biso   1.000  H
  H121     1.0000 0.21270  0.77460  0.13790  Biso   1.000  H
  C86      1.0000 0.27170  0.80700  0.14300  Biso   1.000  C
  H122     1.0000 0.27560  0.74110  0.14760  Biso   1.000  H
  H123     1.0000 0.27670  0.82190  0.11420  Biso   1.000  H
  C87      1.0000 0.30150  0.85700  0.17800  Biso   1.000  C
  H124     1.0000 0.32710  0.85630  0.16960  Biso   1.000  H
  H125     1.0000 0.30450  0.82400  0.20600  Biso   1.000  H
  C88      1.0000 0.28900  0.95400  0.18400  Biso   1.000  C
  H126     1.0000 0.28970  0.98890  0.15710  Biso   1.000  H
  H127     1.0000 0.30860  0.98220  0.20810  Biso   1.000  H
  C89      1.0000 0.24900  0.96100  0.19400  Biso   1.000  C
  H128     1.0000 0.25090  0.98180  0.22440  Biso   1.000  H
  H129     1.0000 0.23290  0.00620  0.17450  Biso   1.000  H
  C90      1.0000 0.22700  0.87000  0.18800  Biso   1.000  C
  H130     1.0000 0.20000  0.87810  0.19020  Biso   1.000  H
  H131     1.0000 0.24010  0.82790  0.21140  Biso   1.000  H
  H132     1.0000 0.49450  0.34360  0.60530  Biso   1.000  H
  O13      1.0000 0.38990  0.35020  0.37070  Biso   1.000  O
  C91      1.0000 0.35330  0.30900  0.36600  Biso   1.000  C
  H133     1.0000 0.34460  0.31090  0.39390  Biso   1.000  H
  H134     1.0000 0.35470  0.24500  0.35730  Biso   1.000  H
  C92      1.0000 0.32540  0.36000  0.33160  Biso   1.000  C
  C93      1.0000 0.34900  0.43650  0.31730  Biso   1.000  C
  H135     1.0000 0.35900  0.41500  0.29160  Biso   1.000  H
  C94      1.0000 0.32720  0.52700  0.30470  Biso   1.000  C
  H136     1.0000 0.30230  0.51740  0.28330  Biso   1.000  H
  H137     1.0000 0.34350  0.57000  0.29230  Biso   1.000  H
  C95      1.0000 0.31890  0.56660  0.35340  Biso   1.000  C
  C96      1.0000 0.34550  0.54900  0.39040  Biso   1.000  C
  H138     1.0000 0.34160  0.57730  0.41610  Biso   1.000  H
  C97      1.0000 0.37540  0.49700  0.39470  Biso   1.000  C
  H139     1.0000 0.39250  0.49210  0.42250  Biso   1.000  H
  C98      1.0000 0.38420  0.44400  0.35680  Biso   1.000  C
  O14      1.0000 0.29240  0.62100  0.34730  Biso   1.000  O
  C99      1.0000 0.41910  0.48300  0.34500  Biso   1.000  C
  S4       1.0000 0.45590  0.41260  0.33790  Biso   1.000  S
  C100     1.0000 0.48380  0.49500  0.32880  Biso   1.000  C
  H140     1.0000 0.50980  0.48680  0.32520  Biso   1.000  H
  C101     1.0000 0.46300  0.58700  0.32660  Biso   1.000  C
  H141     1.0000 0.47230  0.64330  0.31860  Biso   1.000  H
  C102     1.0000 0.42770  0.57000  0.33890  Biso   1.000  C
  H142     1.0000 0.41060  0.61770  0.34270  Biso   1.000  H
  C103     1.0000 0.28900  0.34100  0.31860  Biso   1.000  C
  H143     1.0000 0.27430  0.38230  0.29840  Biso   1.000  H
  C104     1.0000 0.26690  0.26400  0.33060  Biso   1.000  C
  O15      1.0000 0.28410  0.20350  0.35470  Biso   1.000  O
  O16      1.0000 0.22970  0.26700  0.32120  Biso   1.000  O
  C105     1.0000 0.20400  0.20500  0.33100  Biso   1.000  C
  H144     1.0000 0.17970  0.20400  0.30740  Biso   1.000  H
  H145     1.0000 0.19590  0.22260  0.35840  Biso   1.000  H
  C106     1.0000 0.22100  0.11300  0.33600  Biso   1.000  C
  H146     1.0000 0.20230  0.07000  0.34310  Biso   1.000  H
  H147     1.0000 0.22840  0.09540  0.30890  Biso   1.000  H
  H148     1.0000 0.24460  0.11390  0.35980  Biso   1.000  H
  O17      1.0000 0.75260  0.49200  0.79830  Biso   1.000  O
  C107     1.0000 0.77150  0.41100  0.80200  Biso   1.000  C
  H149     1.0000 0.78230  0.39910  0.77630  Biso   1.000  H
  H150     1.0000 0.75320  0.36150  0.80520  Biso   1.000  H
  C108     1.0000 0.80430  0.41500  0.84300  Biso   1.000  C
  C109     1.0000 0.80130  0.51700  0.84800  Biso   1.000  C
  H151     1.0000 0.78510  0.52320  0.87070  Biso   1.000  H
  C110     1.0000 0.84010  0.56700  0.87000  Biso   1.000  C
  H152     1.0000 0.83400  0.61650  0.88890  Biso   1.000  H
  H153     1.0000 0.85770  0.52410  0.88900  Biso   1.000  H
  C111     1.0000 0.86000  0.60400  0.83900  Biso   1.000  C
  C112     1.0000 0.83630  0.59900  0.79500  Biso   1.000  C
  H154     1.0000 0.85080  0.61710  0.77400  Biso   1.000  H
  C113     1.0000 0.80410  0.57700  0.77700  Biso   1.000  C
  H155     1.0000 0.79380  0.56970  0.74720  Biso   1.000  H
  C114     1.0000 0.78190  0.56400  0.81600  Biso   1.000  C
  O18      1.0000 0.89670  0.61000  0.84500  Biso   1.000  O
  C115     1.0000 0.75890  0.64500  0.82000  Biso   1.000  C
  S5       1.0000 0.71190  0.63800  0.82710  Biso   1.000  S
  C116     1.0000 0.70940  0.74800  0.83540  Biso   1.000  C
  H156     1.0000 0.68850  0.77780  0.84430  Biso   1.000  H
  C117     1.0000 0.74270  0.79000  0.82730  Biso   1.000  C
  H157     1.0000 0.74540  0.85420  0.82810  Biso   1.000  H
  C118     1.0000 0.77210  0.73400  0.81800  Biso   1.000  C
  H158     1.0000 0.79620  0.75250  0.81160  Biso   1.000  H
  C119     1.0000 0.83000  0.34500  0.84800  Biso   1.000  C
  H159     1.0000 0.85490  0.35020  0.84090  Biso   1.000  H
  C120     1.0000 0.81730  0.26700  0.86450  Biso   1.000  C
  O19      1.0000 0.84050  0.20600  0.88600  Biso   1.000  O
  O20      1.0000 0.79530  0.23300  0.82690  Biso   1.000  O
  C121     1.0000 0.78400  0.14200  0.83400  Biso   1.000  C
  H160     1.0000 0.80790  0.10740  0.83140  Biso   1.000  H
  H161     1.0000 0.78390  0.14120  0.86510  Biso   1.000  H
  C122     1.0000 0.75860  0.09000  0.81900  Biso   1.000  C
  H162     1.0000 0.76330  0.03230  0.83430  Biso   1.000  H
  H163     1.0000 0.73360  0.11490  0.82200  Biso   1.000  H
  H164     1.0000 0.75800  0.08040  0.78780  Biso   1.000  H
  C123     1.0000 0.97680  0.47600  0.84500  Biso   1.000  C
  H165     1.0000 0.96400  0.51830  0.86130  Biso   1.000  H
  H166     1.0000 0.99370  0.50980  0.82890  Biso   1.000  H
  C124     1.0000 0.94690  0.41900  0.81340  Biso   1.000  C
  H167     1.0000 0.96080  0.37700  0.79770  Biso   1.000  H
  H168     1.0000 0.93090  0.45980  0.79160  Biso   1.000  H
  C125     1.0000 0.91970  0.36500  0.83600  Biso   1.000  C
  H169     1.0000 0.90470  0.40720  0.85050  Biso   1.000  H
  H170     1.0000 0.90090  0.33090  0.81370  Biso   1.000  H
  C126     1.0000 0.94190  0.29900  0.87000  Biso   1.000  C
  H171     1.0000 0.95310  0.25020  0.85490  Biso   1.000  H
  H172     1.0000 0.92400  0.27250  0.88650  Biso   1.000  H
  C127     1.0000 0.97460  0.35200  0.90020  Biso   1.000  C
  H173     1.0000 0.96300  0.39510  0.91760  Biso   1.000  H
  H174     1.0000 0.99090  0.30880  0.92050  Biso   1.000  H
  C128     1.0000 0.00040  0.40300  0.87500  Biso   1.000  C
  H175     1.0000 0.01180  0.35960  0.85700  Biso   1.000  H
  H176     1.0000 0.02210  0.43210  0.89560  Biso   1.000  H
  O21      1.0000 0.06620  0.66500  0.04130  Biso   1.000  O
  C129     1.0000 0.07630  0.57300  0.04100  Biso   1.000  C
  H177     1.0000 0.07890  0.54580  0.07000  Biso   1.000  H
  H178     1.0000 0.10110  0.56540  0.03110  Biso   1.000  H
  C130     1.0000 0.04290  0.53400  0.00890  Biso   1.000  C
  C131     1.0000 0.01310  0.60200  0.99240  Biso   1.000  C
  H179     1.0000 0.01950  0.62850  0.96550  Biso   1.000  H
  C132     1.0000 0.97190  0.58100  0.98220  Biso   1.000  C
  H180     1.0000 0.96770  0.52800  0.96280  Biso   1.000  H
  H181     1.0000 0.95770  0.63280  0.96590  Biso   1.000  H
  C133     1.0000 0.95450  0.56200  0.02180  Biso   1.000  C
  C134     1.0000 0.97190  0.60100  0.05950  Biso   1.000  C
  H182     1.0000 0.96220  0.58900  0.08480  Biso   1.000  H
  C135     1.0000 0.00310  0.65800  0.06290  Biso   1.000  C
  H183     1.0000 0.01090  0.68890  0.09000  Biso   1.000  H
  C136     1.0000 0.02550  0.67700  0.03090  Biso   1.000  C
  O22      1.0000 0.92710  0.50700  0.02330  Biso   1.000  O
  C137     1.0000 0.01560  0.77200  0.01300  Biso   1.000  C
  S6       1.0000 0.04120  0.82190  0.97860  Biso   1.000  S
  C138     1.0000 0.01500  0.92200  0.97810  Biso   1.000  C
  H184     1.0000 0.01680  0.96980  0.95850  Biso   1.000  H
  C139     1.0000 0.99200  0.92600  0.00910  Biso   1.000  C
  H185     1.0000 0.97870  0.97840  0.01640  Biso   1.000  H
  C140     1.0000 0.99140  0.83600  0.02810  Biso   1.000  C
  H186     1.0000 0.97610  0.82080  0.04870  Biso   1.000  H
  C141     1.0000 0.04170  0.44600  0.99600  Biso   1.000  C
  H187     1.0000 0.02000  0.42740  0.97440  Biso   1.000  H
  C142     1.0000 0.07050  0.37900  0.01320  Biso   1.000  C
  O23      1.0000 0.10280  0.39300  0.03910  Biso   1.000  O
  O24      1.0000 0.05960  0.29000  0.99700  Biso   1.000  O
  C143     1.0000 0.08500  0.22200  0.01200  Biso   1.000  C
  H188     1.0000 0.09570  0.23980  0.04210  Biso   1.000  H
  H189     1.0000 0.10610  0.23330  0.99610  Biso   1.000  H
  C144     1.0000 0.08500  0.11900  0.01500  Biso   1.000  C
  H190     1.0000 0.11090  0.09750  0.02820  Biso   1.000  H
  H191     1.0000 0.06620  0.09980  0.03210  Biso   1.000  H
  H192     1.0000 0.07680  0.09320  0.98520  Biso   1.000  H
  C145     1.0000 0.05580  0.15600  0.01800  Biso   1.000  C
  H193     1.0000 0.03350  0.11870  0.02240  Biso   1.000  H
  H194     1.0000 0.06230  0.13930  0.99030  Biso   1.000  H
  C146     1.0000 0.04600  0.25800  0.01900  Biso   1.000  C
  H195     1.0000 0.04730  0.28550  0.99070  Biso   1.000  H
  H196     1.0000 0.01850  0.26490  0.02270  Biso   1.000  H
  C147     1.0000 0.07380  0.30500  0.05600  Biso   1.000  C
  H197     1.0000 0.07230  0.27740  0.08430  Biso   1.000  H
  H198     1.0000 0.06660  0.36980  0.05700  Biso   1.000  H
  C148     1.0000 0.11560  0.29700  0.04900  Biso   1.000  C
  H199     1.0000 0.13400  0.33040  0.07210  Biso   1.000  H
  H200     1.0000 0.11720  0.32350  0.02040  Biso   1.000  H
  C149     1.0000 0.12660  0.19500  0.05000  Biso   1.000  C
  H201     1.0000 0.13420  0.17800  0.02290  Biso   1.000  H
  H202     1.0000 0.14880  0.18360  0.07500  Biso   1.000  H
  C150     1.0000 0.09090  0.14100  0.05600  Biso   1.000  C
  H203     1.0000 0.09760  0.07570  0.05760  Biso   1.000  H
  H204     1.0000 0.08380  0.15810  0.08360  Biso   1.000  H
  C151     1.0000 0.19900  0.17700  0.29200  Biso   1.000  C
  H205     1.0000 0.18380  0.19870  0.31280  Biso   1.000  H
  H206     1.0000 0.21460  0.12390  0.30480  Biso   1.000  H
  C152     1.0000 0.17100  0.14800  0.24900  Biso   1.000  C
  H207     1.0000 0.16400  0.08310  0.25100  Biso   1.000  H
  H208     1.0000 0.14640  0.18320  0.24530  Biso   1.000  H
  C153     1.0000 0.18900  0.16200  0.20900  Biso   1.000  C
  H209     1.0000 0.17170  0.13490  0.18320  Biso   1.000  H
  H210     1.0000 0.21450  0.13170  0.21410  Biso   1.000  H
  C154     1.0000 0.19400  0.26400  0.20100  Biso   1.000  C
  H211     1.0000 0.21490  0.27290  0.18550  Biso   1.000  H
  H212     1.0000 0.16940  0.28860  0.18360  Biso   1.000  H
  C155     1.0000 0.20400  0.31200  0.24600  Biso   1.000  C
  H213     1.0000 0.22020  0.36600  0.24310  Biso   1.000  H
  H214     1.0000 0.17970  0.33370  0.25340  Biso   1.000  H
  C156     1.0000 0.22600  0.25100  0.28200  Biso   1.000  C
  H215     1.0000 0.24900  0.22410  0.27330  Biso   1.000  H
  H216     1.0000 0.23570  0.28750  0.30890  Biso   1.000  H
  C157     1.0000 0.45100  0.34900  0.35100  Biso   1.000  C
  H217     1.0000 0.46230  0.33690  0.32470  Biso   1.000  H
  H218     1.0000 0.44190  0.29050  0.35990  Biso   1.000  H
  C158     1.0000 0.48300  0.38700  0.38800  Biso   1.000  C
  H219     1.0000 0.47300  0.39610  0.41410  Biso   1.000  H
  C159     1.0000 0.49800  0.47700  0.37300  Biso   1.000  C
  H220     1.0000 0.50860  0.46750  0.34650  Biso   1.000  H
  H221     1.0000 0.51850  0.50240  0.39600  Biso   1.000  H
  C160     1.0000 0.46300  0.54300  0.36200  Biso   1.000  C
  H222     1.0000 0.45230  0.55290  0.38830  Biso   1.000  H
  H223     1.0000 0.47210  0.60240  0.35330  Biso   1.000  H
  C161     1.0000 0.43100  0.50600  0.32500  Biso   1.000  C
  H224     1.0000 0.40900  0.54860  0.31840  Biso   1.000  H
  H225     1.0000 0.44150  0.49840  0.29840  Biso   1.000  H
  C162     1.0000 0.41700  0.41400  0.33800  Biso   1.000  C
  H226     1.0000 0.39710  0.38890  0.31330  Biso   1.000  H
  H227     1.0000 0.40400  0.42210  0.36300  Biso   1.000  H
  C163     1.0000 0.23700  0.55200  0.22200  Biso   1.000  C
  H228     1.0000 0.23020  0.57030  0.19100  Biso   1.000  H
  H229     1.0000 0.22550  0.49240  0.22500  Biso   1.000  H
  C164     1.0000 0.22300  0.62300  0.25100  Biso   1.000  C
  H230     1.0000 0.19620  0.60730  0.25400  Biso   1.000  H
  H231     1.0000 0.22230  0.68330  0.23750  Biso   1.000  H
  C165     1.0000 0.25200  0.62200  0.29600  Biso   1.000  C
  H232     1.0000 0.27520  0.65700  0.29470  Biso   1.000  H
  H233     1.0000 0.23900  0.64890  0.31820  Biso   1.000  H
  C166     1.0000 0.26300  0.52200  0.30800  Biso   1.000  C
  H234     1.0000 0.27490  0.51750  0.33970  Biso   1.000  H
  H235     1.0000 0.23930  0.48330  0.30180  Biso   1.000  H
  C167     1.0000 0.29200  0.49400  0.28100  Biso   1.000  C
  H236     1.0000 0.31910  0.50710  0.29630  Biso   1.000  H
  H237     1.0000 0.29000  0.42780  0.27470  Biso   1.000  H
  C168     1.0000 0.28200  0.54600  0.23700  Biso   1.000  C
  H238     1.0000 0.29370  0.51500  0.21510  Biso   1.000  H
  H239     1.0000 0.29370  0.60770  0.24160  Biso   1.000  H
  C169     1.0000 0.85400  0.52700  0.83900  Biso   1.000  C
  H240     1.0000 0.85310  0.57060  0.81480  Biso   1.000  H
  H241     1.0000 0.83010  0.48800  0.83100  Biso   1.000  H
  C170     1.0000 0.89100  0.46800  0.84600  Biso   1.000  C
  H242     1.0000 0.89300  0.42950  0.87170  Biso   1.000  H
  H243     1.0000 0.89030  0.42890  0.82000  Biso   1.000  H
  C171     1.0000 0.92700  0.53200  0.85200  Biso   1.000  C
  H244     1.0000 0.92350  0.57560  0.82730  Biso   1.000  H
  H245     1.0000 0.95090  0.49750  0.85320  Biso   1.000  H
  C172     1.0000 0.92900  0.58400  0.89500  Biso   1.000  C
  H246     1.0000 0.93260  0.54000  0.91970  Biso   1.000  H
  H247     1.0000 0.95090  0.62600  0.90040  Biso   1.000  H
  C173     1.0000 0.89100  0.63600  0.89300  Biso   1.000  C
  H248     1.0000 0.89150  0.66500  0.92200  Biso   1.000  H
  H249     1.0000 0.88850  0.68460  0.87130  Biso   1.000  H
  C174     1.0000 0.85400  0.57700  0.88200  Biso   1.000  C
  H250     1.0000 0.83060  0.61430  0.87900  Biso   1.000  H
  H251     1.0000 0.85450  0.53220  0.90550  Biso   1.000  H
  C175     1.0000 0.77110  0.83000  0.85670  Biso   1.000  C
  H252     1.0000 0.78140  0.87400  0.88000  Biso   1.000  H
  H253     1.0000 0.78730  0.77460  0.86210  Biso   1.000  H
  C176     1.0000 0.72830  0.80700  0.85700  Biso   1.000  C
  H254     1.0000 0.72440  0.74110  0.85240  Biso   1.000  H
  H255     1.0000 0.72330  0.82190  0.88580  Biso   1.000  H
  C177     1.0000 0.69850  0.85700  0.82200  Biso   1.000  C
  H256     1.0000 0.67290  0.85630  0.83040  Biso   1.000  H
  H257     1.0000 0.69550  0.82400  0.79400  Biso   1.000  H
  C178     1.0000 0.71100  0.95400  0.81600  Biso   1.000  C
  H258     1.0000 0.71030  0.98890  0.84290  Biso   1.000  H
  H259     1.0000 0.69140  0.98220  0.79190  Biso   1.000  H
  C179     1.0000 0.75100  0.96100  0.80600  Biso   1.000  C
  H260     1.0000 0.74910  0.98180  0.77560  Biso   1.000  H
  H261     1.0000 0.76710  0.00620  0.82550  Biso   1.000  H
  C180     1.0000 0.77300  0.87000  0.81200  Biso   1.000  C
  H262     1.0000 0.80000  0.87810  0.80980  Biso   1.000  H
  H263     1.0000 0.75990  0.82790  0.78860  Biso   1.000  H
  H264     1.0000 0.50550  0.34360  0.39470  Biso   1.000  H
  O25      1.0000 0.11010  0.85020  0.62930  Biso   1.000  O
  C181     1.0000 0.14670  0.80900  0.63400  Biso   1.000  C
  H265     1.0000 0.15540  0.81090  0.60610  Biso   1.000  H
  H266     1.0000 0.14530  0.74500  0.64270  Biso   1.000  H
  C182     1.0000 0.17460  0.86000  0.66840  Biso   1.000  C
  C183     1.0000 0.15100  0.93650  0.68270  Biso   1.000  C
  H267     1.0000 0.14100  0.91500  0.70840  Biso   1.000  H
  C184     1.0000 0.17280  0.02700  0.69530  Biso   1.000  C
  H268     1.0000 0.19770  0.01740  0.71670  Biso   1.000  H
  H269     1.0000 0.15650  0.07000  0.70770  Biso   1.000  H
  C185     1.0000 0.18110  0.06660  0.64660  Biso   1.000  C
  C186     1.0000 0.15450  0.04900  0.60960  Biso   1.000  C
  H270     1.0000 0.15840  0.07730  0.58390  Biso   1.000  H
  C187     1.0000 0.12460  0.99700  0.60530  Biso   1.000  C
  H271     1.0000 0.10750  0.99210  0.57750  Biso   1.000  H
  C188     1.0000 0.11580  0.94400  0.64320  Biso   1.000  C
  O26      1.0000 0.20760  0.12100  0.65270  Biso   1.000  O
  C189     1.0000 0.08090  0.98300  0.65500  Biso   1.000  C
  S7       1.0000 0.04410  0.91260  0.66210  Biso   1.000  S
  C190     1.0000 0.01620  0.99500  0.67120  Biso   1.000  C
  H272     1.0000 0.99020  0.98680  0.67480  Biso   1.000  H
  C191     1.0000 0.03700  0.08700  0.67340  Biso   1.000  C
  H273     1.0000 0.02770  0.14330  0.68140  Biso   1.000  H
  C192     1.0000 0.07230  0.07000  0.66110  Biso   1.000  C
  H274     1.0000 0.08940  0.11770  0.65730  Biso   1.000  H
  C193     1.0000 0.21100  0.84100  0.68140  Biso   1.000  C
  H275     1.0000 0.22570  0.88230  0.70160  Biso   1.000  H
  C194     1.0000 0.23310  0.76400  0.66940  Biso   1.000  C
  O27      1.0000 0.21590  0.70350  0.64530  Biso   1.000  O
  O28      1.0000 0.27030  0.76700  0.67880  Biso   1.000  O
  C195     1.0000 0.29600  0.70500  0.66900  Biso   1.000  C
  H276     1.0000 0.32030  0.70400  0.69260  Biso   1.000  H
  H277     1.0000 0.30410  0.72260  0.64160  Biso   1.000  H
  C196     1.0000 0.27900  0.61300  0.66400  Biso   1.000  C
  H278     1.0000 0.29770  0.57000  0.65690  Biso   1.000  H
  H279     1.0000 0.27160  0.59540  0.69110  Biso   1.000  H
  H280     1.0000 0.25540  0.61390  0.64020  Biso   1.000  H
  O29      1.0000 0.74740  0.99200  0.20170  Biso   1.000  O
  C197     1.0000 0.72850  0.91100  0.19800  Biso   1.000  C
  H281     1.0000 0.71770  0.89910  0.22370  Biso   1.000  H
  H282     1.0000 0.74680  0.86150  0.19480  Biso   1.000  H
  C198     1.0000 0.69570  0.91500  0.15700  Biso   1.000  C
  C199     1.0000 0.69870  0.01700  0.15200  Biso   1.000  C
  H283     1.0000 0.71490  0.02320  0.12930  Biso   1.000  H
  C200     1.0000 0.65990  0.06700  0.13000  Biso   1.000  C
  H284     1.0000 0.66600  0.11650  0.11110  Biso   1.000  H
  H285     1.0000 0.64230  0.02410  0.11100  Biso   1.000  H
  C201     1.0000 0.64000  0.10400  0.16100  Biso   1.000  C
  C202     1.0000 0.66370  0.09900  0.20500  Biso   1.000  C
  H286     1.0000 0.64920  0.11710  0.22600  Biso   1.000  H
  C203     1.0000 0.69590  0.07700  0.22300  Biso   1.000  C
  H287     1.0000 0.70620  0.06970  0.25280  Biso   1.000  H
  C204     1.0000 0.71810  0.06400  0.18400  Biso   1.000  C
  O30      1.0000 0.60330  0.11000  0.15500  Biso   1.000  O
  C205     1.0000 0.74110  0.14500  0.18000  Biso   1.000  C
  S8       1.0000 0.78810  0.13800  0.17290  Biso   1.000  S
  C206     1.0000 0.79060  0.24800  0.16460  Biso   1.000  C
  H288     1.0000 0.81150  0.27780  0.15570  Biso   1.000  H
  C207     1.0000 0.75730  0.29000  0.17270  Biso   1.000  C
  H289     1.0000 0.75460  0.35420  0.17190  Biso   1.000  H
  C208     1.0000 0.72790  0.23400  0.18200  Biso   1.000  C
  H290     1.0000 0.70380  0.25250  0.18840  Biso   1.000  H
  C209     1.0000 0.67000  0.84500  0.15200  Biso   1.000  C
  H291     1.0000 0.64510  0.85020  0.15910  Biso   1.000  H
  C210     1.0000 0.68270  0.76700  0.13550  Biso   1.000  C
  O31      1.0000 0.65950  0.70600  0.11400  Biso   1.000  O
  O32      1.0000 0.70470  0.73300  0.17310  Biso   1.000  O
  C211     1.0000 0.71600  0.64200  0.16600  Biso   1.000  C
  H292     1.0000 0.69210  0.60740  0.16860  Biso   1.000  H
  H293     1.0000 0.71610  0.64120  0.13490  Biso   1.000  H
  C212     1.0000 0.74140  0.59000  0.18100  Biso   1.000  C
  H294     1.0000 0.73670  0.53230  0.16570  Biso   1.000  H
  H295     1.0000 0.76640  0.61490  0.17800  Biso   1.000  H
  H296     1.0000 0.74200  0.58040  0.21220  Biso   1.000  H
  C213     1.0000 0.52320  0.97600  0.15500  Biso   1.000  C
  H297     1.0000 0.53600  0.01830  0.13870  Biso   1.000  H
  H298     1.0000 0.50630  0.00980  0.17110  Biso   1.000  H
  C214     1.0000 0.55310  0.91900  0.18660  Biso   1.000  C
  H299     1.0000 0.53920  0.87700  0.20230  Biso   1.000  H
  H300     1.0000 0.56910  0.95980  0.20840  Biso   1.000  H
  C215     1.0000 0.58030  0.86500  0.16400  Biso   1.000  C
  H301     1.0000 0.59530  0.90720  0.14950  Biso   1.000  H
  H302     1.0000 0.59910  0.83090  0.18630  Biso   1.000  H
  C216     1.0000 0.55810  0.79900  0.13000  Biso   1.000  C
  H303     1.0000 0.54690  0.75020  0.14510  Biso   1.000  H
  H304     1.0000 0.57600  0.77250  0.11350  Biso   1.000  H
  C217     1.0000 0.52540  0.85200  0.09980  Biso   1.000  C
  H305     1.0000 0.53700  0.89510  0.08240  Biso   1.000  H
  H306     1.0000 0.50910  0.80880  0.07950  Biso   1.000  H
  C218     1.0000 0.49960  0.90300  0.12500  Biso   1.000  C
  H307     1.0000 0.48820  0.85960  0.14300  Biso   1.000  H
  H308     1.0000 0.47790  0.93210  0.10440  Biso   1.000  H
  O33      1.0000 0.43380  0.16500  0.95870  Biso   1.000  O
  C219     1.0000 0.42370  0.07300  0.95900  Biso   1.000  C
  H309     1.0000 0.42110  0.04580  0.93000  Biso   1.000  H
  H310     1.0000 0.39890  0.06540  0.96890  Biso   1.000  H
  C220     1.0000 0.45710  0.03400  0.99110  Biso   1.000  C
  C221     1.0000 0.48690  0.10200  0.00760  Biso   1.000  C
  H311     1.0000 0.48050  0.12850  0.03450  Biso   1.000  H
  C222     1.0000 0.52810  0.08100  0.01780  Biso   1.000  C
  H312     1.0000 0.53230  0.02800  0.03720  Biso   1.000  H
  H313     1.0000 0.54230  0.13280  0.03410  Biso   1.000  H
  C223     1.0000 0.54550  0.06200  0.97820  Biso   1.000  C
  C224     1.0000 0.52810  0.10100  0.94050  Biso   1.000  C
  H314     1.0000 0.53780  0.08900  0.91520  Biso   1.000  H
  C225     1.0000 0.49690  0.15800  0.93710  Biso   1.000  C
  H315     1.0000 0.48910  0.18890  0.91000  Biso   1.000  H
  C226     1.0000 0.47450  0.17700  0.96910  Biso   1.000  C
  O34      1.0000 0.57290  0.00700  0.97670  Biso   1.000  O
  C227     1.0000 0.48440  0.27200  0.98700  Biso   1.000  C
  S9       1.0000 0.45880  0.32190  0.02140  Biso   1.000  S
  C228     1.0000 0.48500  0.42200  0.02190  Biso   1.000  C
  H316     1.0000 0.48320  0.46980  0.04150  Biso   1.000  H
  C229     1.0000 0.50800  0.42600  0.99090  Biso   1.000  C
  H317     1.0000 0.52130  0.47840  0.98360  Biso   1.000  H
  C230     1.0000 0.50860  0.33600  0.97190  Biso   1.000  C
  H318     1.0000 0.52390  0.32080  0.95130  Biso   1.000  H
  C231     1.0000 0.45830  0.94600  0.00400  Biso   1.000  C
  H319     1.0000 0.48000  0.92740  0.02560  Biso   1.000  H
  C232     1.0000 0.42950  0.87900  0.98680  Biso   1.000  C
  O35      1.0000 0.39720  0.89300  0.96090  Biso   1.000  O
  O36      1.0000 0.44040  0.79000  0.00300  Biso   1.000  O
  C233     1.0000 0.41500  0.72200  0.98800  Biso   1.000  C
  H320     1.0000 0.40430  0.73980  0.95790  Biso   1.000  H
  H321     1.0000 0.39390  0.73330  0.00390  Biso   1.000  H
  C234     1.0000 0.41500  0.61900  0.98500  Biso   1.000  C
  H322     1.0000 0.38910  0.59750  0.97180  Biso   1.000  H
  H323     1.0000 0.43380  0.59980  0.96790  Biso   1.000  H
  H324     1.0000 0.42320  0.59320  0.01480  Biso   1.000  H
  C235     1.0000 0.44420  0.65600  0.98200  Biso   1.000  C
  H325     1.0000 0.46650  0.61870  0.97760  Biso   1.000  H
  H326     1.0000 0.43770  0.63930  0.00970  Biso   1.000  H
  C236     1.0000 0.45400  0.75800  0.98100  Biso   1.000  C
  H327     1.0000 0.45270  0.78550  0.00930  Biso   1.000  H
  H328     1.0000 0.48150  0.76490  0.97730  Biso   1.000  H
  C237     1.0000 0.42620  0.80500  0.94400  Biso   1.000  C
  H329     1.0000 0.42770  0.77740  0.91570  Biso   1.000  H
  H330     1.0000 0.43340  0.86980  0.94300  Biso   1.000  H
  C238     1.0000 0.38440  0.79700  0.95100  Biso   1.000  C
  H331     1.0000 0.36600  0.83040  0.92790  Biso   1.000  H
  H332     1.0000 0.38280  0.82350  0.97960  Biso   1.000  H
  C239     1.0000 0.37340  0.69500  0.95000  Biso   1.000  C
  H333     1.0000 0.36580  0.67800  0.97710  Biso   1.000  H
  H334     1.0000 0.35120  0.68360  0.92500  Biso   1.000  H
  C240     1.0000 0.40910  0.64100  0.94400  Biso   1.000  C
  H335     1.0000 0.40240  0.57570  0.94240  Biso   1.000  H
  H336     1.0000 0.41620  0.65810  0.91640  Biso   1.000  H
  C241     1.0000 0.30100  0.67700  0.70800  Biso   1.000  C
  H337     1.0000 0.31620  0.69870  0.68720  Biso   1.000  H
  H338     1.0000 0.28540  0.62390  0.69520  Biso   1.000  H
  C242     1.0000 0.32900  0.64800  0.75100  Biso   1.000  C
  H339     1.0000 0.33600  0.58310  0.74900  Biso   1.000  H
  H340     1.0000 0.35360  0.68320  0.75470  Biso   1.000  H
  C243     1.0000 0.31100  0.66200  0.79100  Biso   1.000  C
  H341     1.0000 0.32830  0.63490  0.81680  Biso   1.000  H
  H342     1.0000 0.28550  0.63170  0.78590  Biso   1.000  H
  C244     1.0000 0.30600  0.76400  0.79900  Biso   1.000  C
  H343     1.0000 0.28510  0.77290  0.81450  Biso   1.000  H
  H344     1.0000 0.33060  0.78860  0.81640  Biso   1.000  H
  C245     1.0000 0.29600  0.81200  0.75400  Biso   1.000  C
  H345     1.0000 0.27980  0.86600  0.75690  Biso   1.000  H
  H346     1.0000 0.32030  0.83370  0.74660  Biso   1.000  H
  C246     1.0000 0.27400  0.75100  0.71800  Biso   1.000  C
  H347     1.0000 0.25100  0.72410  0.72670  Biso   1.000  H
  H348     1.0000 0.26430  0.78750  0.69110  Biso   1.000  H
  C247     1.0000 0.04900  0.84900  0.64900  Biso   1.000  C
  H349     1.0000 0.03770  0.83690  0.67530  Biso   1.000  H
  H350     1.0000 0.05810  0.79050  0.64010  Biso   1.000  H
  C248     1.0000 0.01700  0.88700  0.61200  Biso   1.000  C
  H351     1.0000 0.02700  0.89610  0.58590  Biso   1.000  H
  C249     1.0000 0.00200  0.97700  0.62700  Biso   1.000  C
  H352     1.0000 0.99140  0.96750  0.65350  Biso   1.000  H
  H353     1.0000 0.98150  0.00240  0.60400  Biso   1.000  H
  C250     1.0000 0.03700  0.04300  0.63800  Biso   1.000  C
  H354     1.0000 0.04770  0.05290  0.61170  Biso   1.000  H
  H355     1.0000 0.02790  0.10240  0.64670  Biso   1.000  H
  C251     1.0000 0.06900  0.00600  0.67500  Biso   1.000  C
  H356     1.0000 0.09100  0.04860  0.68160  Biso   1.000  H
  H357     1.0000 0.05850  0.99840  0.70160  Biso   1.000  H
  C252     1.0000 0.08300  0.91400  0.66200  Biso   1.000  C
  H358     1.0000 0.10290  0.88890  0.68670  Biso   1.000  H
  H359     1.0000 0.09600  0.92210  0.63700  Biso   1.000  H
  C253     1.0000 0.26300  0.05200  0.77800  Biso   1.000  C
  H360     1.0000 0.26980  0.07030  0.80900  Biso   1.000  H
  H361     1.0000 0.27450  0.99240  0.77500  Biso   1.000  H
  C254     1.0000 0.27700  0.12300  0.74900  Biso   1.000  C
  H362     1.0000 0.30380  0.10730  0.74600  Biso   1.000  H
  H363     1.0000 0.27770  0.18330  0.76250  Biso   1.000  H
  C255     1.0000 0.24800  0.12200  0.70400  Biso   1.000  C
  H364     1.0000 0.22480  0.15700  0.70530  Biso   1.000  H
  H365     1.0000 0.26100  0.14890  0.68180  Biso   1.000  H
  C256     1.0000 0.23700  0.02200  0.69200  Biso   1.000  C
  H366     1.0000 0.22510  0.01750  0.66030  Biso   1.000  H
  H367     1.0000 0.26070  0.98330  0.69820  Biso   1.000  H
  C257     1.0000 0.20800  0.99400  0.71900  Biso   1.000  C
  H368     1.0000 0.18090  0.00710  0.70370  Biso   1.000  H
  H369     1.0000 0.21000  0.92780  0.72530  Biso   1.000  H
  C258     1.0000 0.21800  0.04600  0.76300  Biso   1.000  C
  H370     1.0000 0.20630  0.01500  0.78490  Biso   1.000  H
  H371     1.0000 0.20630  0.10770  0.75840  Biso   1.000  H
  C259     1.0000 0.64600  0.02700  0.16100  Biso   1.000  C
  H372     1.0000 0.64690  0.07060  0.18520  Biso   1.000  H
  H373     1.0000 0.66990  0.98800  0.16900  Biso   1.000  H
  C260     1.0000 0.60900  0.96800  0.15400  Biso   1.000  C
  H374     1.0000 0.60700  0.92950  0.12830  Biso   1.000  H
  H375     1.0000 0.60970  0.92890  0.18000  Biso   1.000  H
  C261     1.0000 0.57300  0.03200  0.14800  Biso   1.000  C
  H376     1.0000 0.57650  0.07560  0.17270  Biso   1.000  H
  H377     1.0000 0.54910  0.99750  0.14680  Biso   1.000  H
  C262     1.0000 0.57100  0.08400  0.10500  Biso   1.000  C
  H378     1.0000 0.56740  0.04000  0.08030  Biso   1.000  H
  H379     1.0000 0.54910  0.12600  0.09960  Biso   1.000  H
  C263     1.0000 0.60900  0.13600  0.10700  Biso   1.000  C
  H380     1.0000 0.60850  0.16500  0.07800  Biso   1.000  H
  H381     1.0000 0.61150  0.18460  0.12870  Biso   1.000  H
  C264     1.0000 0.64600  0.07700  0.11800  Biso   1.000  C
  H382     1.0000 0.66940  0.11430  0.12100  Biso   1.000  H
  H383     1.0000 0.64550  0.03220  0.09450  Biso   1.000  H
  C265     1.0000 0.72890  0.33000  0.14330  Biso   1.000  C
  H384     1.0000 0.71860  0.37400  0.12000  Biso   1.000  H
  H385     1.0000 0.71270  0.27460  0.13790  Biso   1.000  H
  C266     1.0000 0.77170  0.30700  0.14300  Biso   1.000  C
  H386     1.0000 0.77560  0.24110  0.14760  Biso   1.000  H
  H387     1.0000 0.77670  0.32190  0.11420  Biso   1.000  H
  C267     1.0000 0.80150  0.35700  0.17800  Biso   1.000  C
  H388     1.0000 0.82710  0.35630  0.16960  Biso   1.000  H
  H389     1.0000 0.80450  0.32400  0.20600  Biso   1.000  H
  C268     1.0000 0.78900  0.45400  0.18400  Biso   1.000  C
  H390     1.0000 0.78970  0.48890  0.15710  Biso   1.000  H
  H391     1.0000 0.80860  0.48220  0.20810  Biso   1.000  H
  C269     1.0000 0.74900  0.46100  0.19400  Biso   1.000  C
  H392     1.0000 0.75090  0.48180  0.22440  Biso   1.000  H
  H393     1.0000 0.73290  0.50620  0.17450  Biso   1.000  H
  C270     1.0000 0.72700  0.37000  0.18800  Biso   1.000  C
  H394     1.0000 0.70000  0.37810  0.19020  Biso   1.000  H
  H395     1.0000 0.74010  0.32790  0.21140  Biso   1.000  H
  H396     1.0000 0.99450  0.84360  0.60530  Biso   1.000  H
  O37      1.0000 0.88990  0.85020  0.37070  Biso   1.000  O
  C271     1.0000 0.85330  0.80900  0.36600  Biso   1.000  C
  H397     1.0000 0.84460  0.81090  0.39390  Biso   1.000  H
  H398     1.0000 0.85470  0.74500  0.35730  Biso   1.000  H
  C272     1.0000 0.82540  0.86000  0.33160  Biso   1.000  C
  C273     1.0000 0.84900  0.93650  0.31730  Biso   1.000  C
  H399     1.0000 0.85900  0.91500  0.29160  Biso   1.000  H
  C274     1.0000 0.82720  0.02700  0.30470  Biso   1.000  C
  H400     1.0000 0.80230  0.01740  0.28330  Biso   1.000  H
  H401     1.0000 0.84350  0.07000  0.29230  Biso   1.000  H
  C275     1.0000 0.81890  0.06660  0.35340  Biso   1.000  C
  C276     1.0000 0.84550  0.04900  0.39040  Biso   1.000  C
  H402     1.0000 0.84160  0.07730  0.41610  Biso   1.000  H
  C277     1.0000 0.87540  0.99700  0.39470  Biso   1.000  C
  H403     1.0000 0.89250  0.99210  0.42250  Biso   1.000  H
  C278     1.0000 0.88420  0.94400  0.35680  Biso   1.000  C
  O38      1.0000 0.79240  0.12100  0.34730  Biso   1.000  O
  C279     1.0000 0.91910  0.98300  0.34500  Biso   1.000  C
  S10      1.0000 0.95590  0.91260  0.33790  Biso   1.000  S
  C280     1.0000 0.98380  0.99500  0.32880  Biso   1.000  C
  H404     1.0000 0.00980  0.98680  0.32520  Biso   1.000  H
  C281     1.0000 0.96300  0.08700  0.32660  Biso   1.000  C
  H405     1.0000 0.97230  0.14330  0.31860  Biso   1.000  H
  C282     1.0000 0.92770  0.07000  0.33890  Biso   1.000  C
  H406     1.0000 0.91060  0.11770  0.34270  Biso   1.000  H
  C283     1.0000 0.78900  0.84100  0.31860  Biso   1.000  C
  H407     1.0000 0.77430  0.88230  0.29840  Biso   1.000  H
  C284     1.0000 0.76690  0.76400  0.33060  Biso   1.000  C
  O39      1.0000 0.78410  0.70350  0.35470  Biso   1.000  O
  O40      1.0000 0.72970  0.76700  0.32120  Biso   1.000  O
  C285     1.0000 0.70400  0.70500  0.33100  Biso   1.000  C
  H408     1.0000 0.67970  0.70400  0.30740  Biso   1.000  H
  H409     1.0000 0.69590  0.72260  0.35840  Biso   1.000  H
  C286     1.0000 0.72100  0.61300  0.33600  Biso   1.000  C
  H410     1.0000 0.70230  0.57000  0.34310  Biso   1.000  H
  H411     1.0000 0.72840  0.59540  0.30890  Biso   1.000  H
  H412     1.0000 0.74460  0.61390  0.35980  Biso   1.000  H
  O41      1.0000 0.25260  0.99200  0.79830  Biso   1.000  O
  C287     1.0000 0.27150  0.91100  0.80200  Biso   1.000  C
  H413     1.0000 0.28230  0.89910  0.77630  Biso   1.000  H
  H414     1.0000 0.25320  0.86150  0.80520  Biso   1.000  H
  C288     1.0000 0.30430  0.91500  0.84300  Biso   1.000  C
  C289     1.0000 0.30130  0.01700  0.84800  Biso   1.000  C
  H415     1.0000 0.28510  0.02320  0.87070  Biso   1.000  H
  C290     1.0000 0.34010  0.06700  0.87000  Biso   1.000  C
  H416     1.0000 0.33400  0.11650  0.88890  Biso   1.000  H
  H417     1.0000 0.35770  0.02410  0.88900  Biso   1.000  H
  C291     1.0000 0.36000  0.10400  0.83900  Biso   1.000  C
  C292     1.0000 0.33630  0.09900  0.79500  Biso   1.000  C
  H418     1.0000 0.35080  0.11710  0.77400  Biso   1.000  H
  C293     1.0000 0.30410  0.07700  0.77700  Biso   1.000  C
  H419     1.0000 0.29380  0.06970  0.74720  Biso   1.000  H
  C294     1.0000 0.28190  0.06400  0.81600  Biso   1.000  C
  O42      1.0000 0.39670  0.11000  0.84500  Biso   1.000  O
  C295     1.0000 0.25890  0.14500  0.82000  Biso   1.000  C
  S11      1.0000 0.21190  0.13800  0.82710  Biso   1.000  S
  C296     1.0000 0.20940  0.24800  0.83540  Biso   1.000  C
  H420     1.0000 0.18850  0.27780  0.84430  Biso   1.000  H
  C297     1.0000 0.24270  0.29000  0.82730  Biso   1.000  C
  H421     1.0000 0.24540  0.35420  0.82810  Biso   1.000  H
  C298     1.0000 0.27210  0.23400  0.81800  Biso   1.000  C
  H422     1.0000 0.29620  0.25250  0.81160  Biso   1.000  H
  C299     1.0000 0.33000  0.84500  0.84800  Biso   1.000  C
  H423     1.0000 0.35490  0.85020  0.84090  Biso   1.000  H
  C300     1.0000 0.31730  0.76700  0.86450  Biso   1.000  C
  O43      1.0000 0.34050  0.70600  0.88600  Biso   1.000  O
  O44      1.0000 0.29530  0.73300  0.82690  Biso   1.000  O
  C301     1.0000 0.28400  0.64200  0.83400  Biso   1.000  C
  H424     1.0000 0.30790  0.60740  0.83140  Biso   1.000  H
  H425     1.0000 0.28390  0.64120  0.86510  Biso   1.000  H
  C302     1.0000 0.25860  0.59000  0.81900  Biso   1.000  C
  H426     1.0000 0.26330  0.53230  0.83430  Biso   1.000  H
  H427     1.0000 0.23360  0.61490  0.82200  Biso   1.000  H
  H428     1.0000 0.25800  0.58040  0.78780  Biso   1.000  H
  C303     1.0000 0.47680  0.97600  0.84500  Biso   1.000  C
  H429     1.0000 0.46400  0.01830  0.86130  Biso   1.000  H
  H430     1.0000 0.49370  0.00980  0.82890  Biso   1.000  H
  C304     1.0000 0.44690  0.91900  0.81340  Biso   1.000  C
  H431     1.0000 0.46080  0.87700  0.79770  Biso   1.000  H
  H432     1.0000 0.43090  0.95980  0.79160  Biso   1.000  H
  C305     1.0000 0.41970  0.86500  0.83600  Biso   1.000  C
  H433     1.0000 0.40470  0.90720  0.85050  Biso   1.000  H
  H434     1.0000 0.40090  0.83090  0.81370  Biso   1.000  H
  C306     1.0000 0.44190  0.79900  0.87000  Biso   1.000  C
  H435     1.0000 0.45310  0.75020  0.85490  Biso   1.000  H
  H436     1.0000 0.42400  0.77250  0.88650  Biso   1.000  H
  C307     1.0000 0.47460  0.85200  0.90020  Biso   1.000  C
  H437     1.0000 0.46300  0.89510  0.91760  Biso   1.000  H
  H438     1.0000 0.49090  0.80880  0.92050  Biso   1.000  H
  C308     1.0000 0.50040  0.90300  0.87500  Biso   1.000  C
  H439     1.0000 0.51180  0.85960  0.85700  Biso   1.000  H
  H440     1.0000 0.52210  0.93210  0.89560  Biso   1.000  H
  O45      1.0000 0.56620  0.16500  0.04130  Biso   1.000  O
  C309     1.0000 0.57630  0.07300  0.04100  Biso   1.000  C
  H441     1.0000 0.57890  0.04580  0.07000  Biso   1.000  H
  H442     1.0000 0.60110  0.06540  0.03110  Biso   1.000  H
  C310     1.0000 0.54290  0.03400  0.00890  Biso   1.000  C
  C311     1.0000 0.51310  0.10200  0.99240  Biso   1.000  C
  H443     1.0000 0.51950  0.12850  0.96550  Biso   1.000  H
  C312     1.0000 0.47190  0.08100  0.98220  Biso   1.000  C
  H444     1.0000 0.46770  0.02800  0.96280  Biso   1.000  H
  H445     1.0000 0.45770  0.13280  0.96590  Biso   1.000  H
  C313     1.0000 0.45450  0.06200  0.02180  Biso   1.000  C
  C314     1.0000 0.47190  0.10100  0.05950  Biso   1.000  C
  H446     1.0000 0.46220  0.08900  0.08480  Biso   1.000  H
  C315     1.0000 0.50310  0.15800  0.06290  Biso   1.000  C
  H447     1.0000 0.51090  0.18890  0.09000  Biso   1.000  H
  C316     1.0000 0.52550  0.17700  0.03090  Biso   1.000  C
  O46      1.0000 0.42710  0.00700  0.02330  Biso   1.000  O
  C317     1.0000 0.51560  0.27200  0.01300  Biso   1.000  C
  S12      1.0000 0.54120  0.32190  0.97860  Biso   1.000  S
  C318     1.0000 0.51500  0.42200  0.97810  Biso   1.000  C
  H448     1.0000 0.51680  0.46980  0.95850  Biso   1.000  H
  C319     1.0000 0.49200  0.42600  0.00910  Biso   1.000  C
  H449     1.0000 0.47870  0.47840  0.01640  Biso   1.000  H
  C320     1.0000 0.49140  0.33600  0.02810  Biso   1.000  C
  H450     1.0000 0.47610  0.32080  0.04870  Biso   1.000  H
  C321     1.0000 0.54170  0.94600  0.99600  Biso   1.000  C
  H451     1.0000 0.52000  0.92740  0.97440  Biso   1.000  H
  C322     1.0000 0.57050  0.87900  0.01320  Biso   1.000  C
  O47      1.0000 0.60280  0.89300  0.03910  Biso   1.000  O
  O48      1.0000 0.55960  0.79000  0.99700  Biso   1.000  O
  C323     1.0000 0.58500  0.72200  0.01200  Biso   1.000  C
  H452     1.0000 0.59570  0.73980  0.04210  Biso   1.000  H
  H453     1.0000 0.60610  0.73330  0.99610  Biso   1.000  H
  C324     1.0000 0.58500  0.61900  0.01500  Biso   1.000  C
  H454     1.0000 0.61090  0.59750  0.02820  Biso   1.000  H
  H455     1.0000 0.56620  0.59980  0.03210  Biso   1.000  H
  H456     1.0000 0.57680  0.59320  0.98520  Biso   1.000  H
  C325     1.0000 0.55580  0.65600  0.01800  Biso   1.000  C
  H457     1.0000 0.53350  0.61870  0.02240  Biso   1.000  H
  H458     1.0000 0.56230  0.63930  0.99030  Biso   1.000  H
  C326     1.0000 0.54600  0.75800  0.01900  Biso   1.000  C
  H459     1.0000 0.54730  0.78550  0.99070  Biso   1.000  H
  H460     1.0000 0.51850  0.76490  0.02270  Biso   1.000  H
  C327     1.0000 0.57380  0.80500  0.05600  Biso   1.000  C
  H461     1.0000 0.57230  0.77740  0.08430  Biso   1.000  H
  H462     1.0000 0.56660  0.86980  0.05700  Biso   1.000  H
  C328     1.0000 0.61560  0.79700  0.04900  Biso   1.000  C
  H463     1.0000 0.63400  0.83040  0.07210  Biso   1.000  H
  H464     1.0000 0.61720  0.82350  0.02040  Biso   1.000  H
  C329     1.0000 0.62660  0.69500  0.05000  Biso   1.000  C
  H465     1.0000 0.63420  0.67800  0.02290  Biso   1.000  H
  H466     1.0000 0.64880  0.68360  0.07500  Biso   1.000  H
  C330     1.0000 0.59090  0.64100  0.05600  Biso   1.000  C
  H467     1.0000 0.59760  0.57570  0.05760  Biso   1.000  H
  H468     1.0000 0.58380  0.65810  0.08360  Biso   1.000  H
  C331     1.0000 0.69900  0.67700  0.29200  Biso   1.000  C
  H469     1.0000 0.68380  0.69870  0.31280  Biso   1.000  H
  H470     1.0000 0.71460  0.62390  0.30480  Biso   1.000  H
  C332     1.0000 0.67100  0.64800  0.24900  Biso   1.000  C
  H471     1.0000 0.66400  0.58310  0.25100  Biso   1.000  H
  H472     1.0000 0.64640  0.68320  0.24530  Biso   1.000  H
  C333     1.0000 0.68900  0.66200  0.20900  Biso   1.000  C
  H473     1.0000 0.67170  0.63490  0.18320  Biso   1.000  H
  H474     1.0000 0.71450  0.63170  0.21410  Biso   1.000  H
  C334     1.0000 0.69400  0.76400  0.20100  Biso   1.000  C
  H475     1.0000 0.71490  0.77290  0.18550  Biso   1.000  H
  H476     1.0000 0.66940  0.78860  0.18360  Biso   1.000  H
  C335     1.0000 0.70400  0.81200  0.24600  Biso   1.000  C
  H477     1.0000 0.72020  0.86600  0.24310  Biso   1.000  H
  H478     1.0000 0.67970  0.83370  0.25340  Biso   1.000  H
  C336     1.0000 0.72600  0.75100  0.28200  Biso   1.000  C
  H479     1.0000 0.74900  0.72410  0.27330  Biso   1.000  H
  H480     1.0000 0.73570  0.78750  0.30890  Biso   1.000  H
  C337     1.0000 0.95100  0.84900  0.35100  Biso   1.000  C
  H481     1.0000 0.96230  0.83690  0.32470  Biso   1.000  H
  H482     1.0000 0.94190  0.79050  0.35990  Biso   1.000  H
  C338     1.0000 0.98300  0.88700  0.38800  Biso   1.000  C
  H483     1.0000 0.97300  0.89610  0.41410  Biso   1.000  H
  C339     1.0000 0.99800  0.97700  0.37300  Biso   1.000  C
  H484     1.0000 0.00860  0.96750  0.34650  Biso   1.000  H
  H485     1.0000 0.01850  0.00240  0.39600  Biso   1.000  H
  C340     1.0000 0.96300  0.04300  0.36200  Biso   1.000  C
  H486     1.0000 0.95230  0.05290  0.38830  Biso   1.000  H
  H487     1.0000 0.97210  0.10240  0.35330  Biso   1.000  H
  C341     1.0000 0.93100  0.00600  0.32500  Biso   1.000  C
  H488     1.0000 0.90900  0.04860  0.31840  Biso   1.000  H
  H489     1.0000 0.94150  0.99840  0.29840  Biso   1.000  H
  C342     1.0000 0.91700  0.91400  0.33800  Biso   1.000  C
  H490     1.0000 0.89710  0.88890  0.31330  Biso   1.000  H
  H491     1.0000 0.90400  0.92210  0.36300  Biso   1.000  H
  C343     1.0000 0.73700  0.05200  0.22200  Biso   1.000  C
  H492     1.0000 0.73020  0.07030  0.19100  Biso   1.000  H
  H493     1.0000 0.72550  0.99240  0.22500  Biso   1.000  H
  C344     1.0000 0.72300  0.12300  0.25100  Biso   1.000  C
  H494     1.0000 0.69620  0.10730  0.25400  Biso   1.000  H
  H495     1.0000 0.72230  0.18330  0.23750  Biso   1.000  H
  C345     1.0000 0.75200  0.12200  0.29600  Biso   1.000  C
  H496     1.0000 0.77520  0.15700  0.29470  Biso   1.000  H
  H497     1.0000 0.73900  0.14890  0.31820  Biso   1.000  H
  C346     1.0000 0.76300  0.02200  0.30800  Biso   1.000  C
  H498     1.0000 0.77490  0.01750  0.33970  Biso   1.000  H
  H499     1.0000 0.73930  0.98330  0.30180  Biso   1.000  H
  C347     1.0000 0.79200  0.99400  0.28100  Biso   1.000  C
  H500     1.0000 0.81910  0.00710  0.29630  Biso   1.000  H
  H501     1.0000 0.79000  0.92780  0.27470  Biso   1.000  H
  C348     1.0000 0.78200  0.04600  0.23700  Biso   1.000  C
  H502     1.0000 0.79370  0.01500  0.21510  Biso   1.000  H
  H503     1.0000 0.79370  0.10770  0.24160  Biso   1.000  H
  C349     1.0000 0.35400  0.02700  0.83900  Biso   1.000  C
  H504     1.0000 0.35310  0.07060  0.81480  Biso   1.000  H
  H505     1.0000 0.33010  0.98800  0.83100  Biso   1.000  H
  C350     1.0000 0.39100  0.96800  0.84600  Biso   1.000  C
  H506     1.0000 0.39300  0.92950  0.87170  Biso   1.000  H
  H507     1.0000 0.39030  0.92890  0.82000  Biso   1.000  H
  C351     1.0000 0.42700  0.03200  0.85200  Biso   1.000  C
  H508     1.0000 0.42350  0.07560  0.82730  Biso   1.000  H
  H509     1.0000 0.45090  0.99750  0.85320  Biso   1.000  H
  C352     1.0000 0.42900  0.08400  0.89500  Biso   1.000  C
  H510     1.0000 0.43260  0.04000  0.91970  Biso   1.000  H
  H511     1.0000 0.45090  0.12600  0.90040  Biso   1.000  H
  C353     1.0000 0.39100  0.13600  0.89300  Biso   1.000  C
  H512     1.0000 0.39150  0.16500  0.92200  Biso   1.000  H
  H513     1.0000 0.38850  0.18460  0.87130  Biso   1.000  H
  C354     1.0000 0.35400  0.07700  0.88200  Biso   1.000  C
  H514     1.0000 0.33060  0.11430  0.87900  Biso   1.000  H
  H515     1.0000 0.35450  0.03220  0.90550  Biso   1.000  H
  C355     1.0000 0.27110  0.33000  0.85670  Biso   1.000  C
  H516     1.0000 0.28140  0.37400  0.88000  Biso   1.000  H
  H517     1.0000 0.28730  0.27460  0.86210  Biso   1.000  H
  C356     1.0000 0.22830  0.30700  0.85700  Biso   1.000  C
  H518     1.0000 0.22440  0.24110  0.85240  Biso   1.000  H
  H519     1.0000 0.22330  0.32190  0.88580  Biso   1.000  H
  C357     1.0000 0.19850  0.35700  0.82200  Biso   1.000  C
  H520     1.0000 0.17290  0.35630  0.83040  Biso   1.000  H
  H521     1.0000 0.19550  0.32400  0.79400  Biso   1.000  H
  C358     1.0000 0.21100  0.45400  0.81600  Biso   1.000  C
  H522     1.0000 0.21030  0.48890  0.84290  Biso   1.000  H
  H523     1.0000 0.19140  0.48220  0.79190  Biso   1.000  H
  C359     1.0000 0.25100  0.46100  0.80600  Biso   1.000  C
  H524     1.0000 0.24910  0.48180  0.77560  Biso   1.000  H
  H525     1.0000 0.26710  0.50620  0.82550  Biso   1.000  H
  C360     1.0000 0.27300  0.37000  0.81200  Biso   1.000  C
  H526     1.0000 0.30000  0.37810  0.80980  Biso   1.000  H
  H527     1.0000 0.25990  0.32790  0.78860  Biso   1.000  H
  H528     1.0000 0.00550  0.84360  0.39470  Biso   1.000  H
  Zn1      1.0000 0.17019  0.60991  0.52292  Biso   1.000  Zn
  Zn2      1.0000 0.08180  0.12520  0.84009  Biso   1.000  Zn
  Zn3      1.0000 0.87457  0.84772  0.69057  Biso   1.000  Zn
  Zn4      1.0000 0.58781  0.87561  0.33791  Biso   1.000  Zn
  Zn5      1.0000 0.37449  0.15709  0.18674  Biso   1.000  Zn
  Zn6      1.0000 0.16932  0.89390  0.01812  Biso   1.000  Zn
  I1       1.0000 0.52940  0.90739  0.36935  Biso   1.000  I
  I2       1.0000 0.62426  0.99009  0.30505  Biso   1.000  I
  N1       1.0000 0.13800  0.59590  0.57100  Biso   1.000  N
  C361     1.0000 0.15120  0.54500  0.60660  Biso   1.000  C
  H529     1.0000 0.17660  0.51930  0.61080  Biso   1.000  H
  C362     1.0000 0.12960  0.52890  0.63680  Biso   1.000  C
  H530     1.0000 0.13920  0.49000  0.66070  Biso   1.000  H
  C363     1.0000 0.09310  0.56990  0.63250  Biso   1.000  C
  C364     1.0000 0.08150  0.62740  0.59710  Biso   1.000  C
  H531     1.0000 0.05820  0.66160  0.59410  Biso   1.000  H
  C365     1.0000 0.10460  0.63480  0.56550  Biso   1.000  C
  H532     1.0000 0.09520  0.66910  0.53980  Biso   1.000  H
  N2       1.0000 0.06990  0.23380  0.79580  Biso   1.000  N
  C366     1.0000 0.03770  0.28450  0.79310  Biso   1.000  C
  H533     1.0000 0.01860  0.26730  0.80890  Biso   1.000  H
  C367     1.0000 0.03190  0.36170  0.76720  Biso   1.000  C
  H534     1.0000 0.00870  0.39630  0.76470  Biso   1.000  H
  C368     1.0000 0.05990  0.38740  0.74540  Biso   1.000  C
  C369     1.0000 0.09350  0.33780  0.75010  Biso   1.000  C
  H535     1.0000 0.11390  0.35850  0.73710  Biso   1.000  H
  C370     1.0000 0.09790  0.25860  0.77320  Biso   1.000  C
  H536     1.0000 0.12000  0.22120  0.77370  Biso   1.000  H
  N3       1.0000 0.92140  0.76160  0.69340  Biso   1.000  N
  C371     1.0000 0.93650  0.71040  0.72840  Biso   1.000  C
  H537     1.0000 0.92440  0.71090  0.75270  Biso   1.000  H
  C372     1.0000 0.96910  0.65700  0.73010  Biso   1.000  C
  H538     1.0000 0.97960  0.62290  0.75550  Biso   1.000  H
  C373     1.0000 0.98620  0.65370  0.69460  Biso   1.000  C
  C374     1.0000 0.96950  0.70190  0.65770  Biso   1.000  C
  H539     1.0000 0.97960  0.69850  0.63200  Biso   1.000  H
  C375     1.0000 0.93680  0.75670  0.65940  Biso   1.000  C
  H540     1.0000 0.92560  0.79170  0.63450  Biso   1.000  H
  C376     1.0000 0.06910  0.55260  0.66410  Biso   1.000  C
  N4       1.0000 0.07630  0.47760  0.69010  Biso   1.000  N
  C377     1.0000 0.05470  0.46910  0.71840  Biso   1.000  C
  N5       1.0000 0.02580  0.52670  0.72320  Biso   1.000  N
  C378     1.0000 0.01920  0.59570  0.69430  Biso   1.000  C
  N6       1.0000 0.03940  0.61030  0.66410  Biso   1.000  N
  N7       1.0000 0.83170  0.78410  0.64450  Biso   1.000  N
  C379     1.0000 0.82300  0.70100  0.65110  Biso   1.000  C
  H541     1.0000 0.83610  0.67200  0.67710  Biso   1.000  H
  C380     1.0000 0.79440  0.65180  0.62120  Biso   1.000  C
  H542     1.0000 0.78960  0.58980  0.62570  Biso   1.000  H
  C381     1.0000 0.77360  0.69830  0.58460  Biso   1.000  C
  C382     1.0000 0.78460  0.78430  0.57820  Biso   1.000  C
  H543     1.0000 0.77180  0.81630  0.55290  Biso   1.000  H
  C383     1.0000 0.81370  0.82500  0.60750  Biso   1.000  C
  H544     1.0000 0.82150  0.88440  0.60160  Biso   1.000  H
  N8       1.0000 0.62640  0.80740  0.38620  Biso   1.000  N
  C384     1.0000 0.62150  0.72220  0.39200  Biso   1.000  C
  H545     1.0000 0.60110  0.69260  0.37200  Biso   1.000  H
  C385     1.0000 0.64350  0.67110  0.42470  Biso   1.000  C
  H546     1.0000 0.63930  0.60790  0.42630  Biso   1.000  H
  C386     1.0000 0.67210  0.71420  0.45550  Biso   1.000  C
  C387     1.0000 0.67840  0.80430  0.45100  Biso   1.000  C
  H547     1.0000 0.69800  0.83520  0.47150  Biso   1.000  H
  C388     1.0000 0.65530  0.85070  0.41500  Biso   1.000  C
  H548     1.0000 0.66010  0.91290  0.41100  Biso   1.000  H
  N9       1.0000 0.68400  0.24720  0.52710  Biso   1.000  N
  C389     1.0000 0.65820  0.30430  0.50310  Biso   1.000  C
  H549     1.0000 0.63470  0.28060  0.48610  Biso   1.000  H
  C390     1.0000 0.66470  0.39500  0.50230  Biso   1.000  C
  H550     1.0000 0.64700  0.43320  0.48330  Biso   1.000  H
  C391     1.0000 0.69790  0.43060  0.53010  Biso   1.000  C
  C392     1.0000 0.72450  0.37120  0.55530  Biso   1.000  C
  H551     1.0000 0.74790  0.39240  0.57360  Biso   1.000  H
  C393     1.0000 0.71530  0.27980  0.55250  Biso   1.000  C
  H552     1.0000 0.73280  0.23890  0.57010  Biso   1.000  H
  C394     1.0000 0.74260  0.65130  0.55270  Biso   1.000  C
  N10      1.0000 0.73640  0.56360  0.55840  Biso   1.000  N
  C395     1.0000 0.70690  0.52930  0.52890  Biso   1.000  C
  N11      1.0000 0.68450  0.57540  0.49620  Biso   1.000  N
  C396     1.0000 0.69390  0.66180  0.49320  Biso   1.000  C
  N12      1.0000 0.72320  0.70520  0.52040  Biso   1.000  N
  N13      1.0000 0.57330  0.77010  0.29470  Biso   1.000  N
  C397     1.0000 0.54300  0.72030  0.29220  Biso   1.000  C
  H553     1.0000 0.52480  0.73650  0.30930  Biso   1.000  H
  C398     1.0000 0.53500  0.64150  0.26520  Biso   1.000  C
  H554     1.0000 0.51180  0.60750  0.26410  Biso   1.000  H
  C399     1.0000 0.56040  0.61670  0.24150  Biso   1.000  C
  C400     1.0000 0.59330  0.67410  0.24090  Biso   1.000  C
  H555     1.0000 0.61100  0.66380  0.22240  Biso   1.000  H
  C401     1.0000 0.59670  0.74500  0.26950  Biso   1.000  C
  H556     1.0000 0.61930  0.78130  0.27130  Biso   1.000  H
  N14      1.0000 0.42160  0.24190  0.19010  Biso   1.000  N
  C402     1.0000 0.43840  0.28490  0.22660  Biso   1.000  C
  H557     1.0000 0.42860  0.27690  0.25230  Biso   1.000  H
  C403     1.0000 0.47010  0.34110  0.22740  Biso   1.000  C
  H558     1.0000 0.48170  0.37240  0.25330  Biso   1.000  H
  C404     1.0000 0.48480  0.35140  0.19050  Biso   1.000  C
  C405     1.0000 0.46610  0.30510  0.15530  Biso   1.000  C
  H559     1.0000 0.47510  0.31040  0.12900  Biso   1.000  H
  C406     1.0000 0.43530  0.25210  0.15550  Biso   1.000  C
  H560     1.0000 0.42320  0.22120  0.12950  Biso   1.000  H
  N15      1.0000 0.63790  0.41040  0.06590  Biso   1.000  N
  C407     1.0000 0.60690  0.36240  0.06960  Biso   1.000  C
  H561     1.0000 0.60070  0.31240  0.05040  Biso   1.000  H
  C408     1.0000 0.58420  0.37600  0.09630  Biso   1.000  C
  H562     1.0000 0.56160  0.33940  0.09450  Biso   1.000  H
  C409     1.0000 0.59220  0.43970  0.12590  Biso   1.000  C
  C410     1.0000 0.62280  0.48500  0.12470  Biso   1.000  C
  H563     1.0000 0.63090  0.52830  0.14700  Biso   1.000  H
  C411     1.0000 0.64490  0.47600  0.09440  Biso   1.000  C
  H564     1.0000 0.66540  0.51770  0.09380  Biso   1.000  H
  C412     1.0000 0.55390  0.53320  0.21370  Biso   1.000  C
  N16      1.0000 0.52680  0.47780  0.21950  Biso   1.000  N
  C413     1.0000 0.51950  0.41290  0.18990  Biso   1.000  C
  N17      1.0000 0.53920  0.39630  0.15950  Biso   1.000  N
  C414     1.0000 0.56680  0.45370  0.15820  Biso   1.000  C
  N18      1.0000 0.57630  0.52490  0.18390  Biso   1.000  N
  N19      1.0000 0.33250  0.22000  0.14040  Biso   1.000  N
  C415     1.0000 0.31130  0.17490  0.10620  Biso   1.000  C
  H565     1.0000 0.31710  0.11340  0.10180  Biso   1.000  H
  C416     1.0000 0.28100  0.21750  0.07710  Biso   1.000  C
  H566     1.0000 0.26600  0.18490  0.05330  Biso   1.000  H
  C417     1.0000 0.27240  0.30950  0.08330  Biso   1.000  C
  C418     1.0000 0.29450  0.35230  0.11860  Biso   1.000  C
  H567     1.0000 0.28950  0.41390  0.12380  Biso   1.000  H
  C419     1.0000 0.32280  0.30960  0.14570  Biso   1.000  C
  H568     1.0000 0.33720  0.34190  0.17000  Biso   1.000  H
  N20      1.0000 0.18170  0.75830  0.02410  Biso   1.000  N
  C420     1.0000 0.15740  0.69880  0.00050  Biso   1.000  C
  H569     1.0000 0.13470  0.72180  0.98140  Biso   1.000  H
  C421     1.0000 0.16270  0.60530  0.00180  Biso   1.000  C
  H570     1.0000 0.14360  0.56540  0.98570  Biso   1.000  H
  C422     1.0000 0.19720  0.57400  0.02770  Biso   1.000  C
  C423     1.0000 0.22210  0.63330  0.05220  Biso   1.000  C
  H571     1.0000 0.24500  0.61150  0.07130  Biso   1.000  H
  C424     1.0000 0.21480  0.72430  0.04960  Biso   1.000  C
  H572     1.0000 0.23330  0.76450  0.06620  Biso   1.000  H
  N21      1.0000 0.12130  0.19300  0.88830  Biso   1.000  N
  C425     1.0000 0.15170  0.15570  0.91450  Biso   1.000  C
  H573     1.0000 0.15810  0.09520  0.90890  Biso   1.000  H
  C426     1.0000 0.17440  0.19960  0.94920  Biso   1.000  C
  H574     1.0000 0.19570  0.16940  0.96750  Biso   1.000  H
  C427     1.0000 0.16610  0.28810  0.95720  Biso   1.000  C
  C428     1.0000 0.13490  0.32880  0.93100  Biso   1.000  C
  H575     1.0000 0.12820  0.38950  0.93600  Biso   1.000  H
  C429     1.0000 0.11290  0.27950  0.89660  Biso   1.000  C
  H576     1.0000 0.09110  0.30770  0.87820  Biso   1.000  H
  C430     1.0000 0.23980  0.35180  0.05150  Biso   1.000  C
  N22      1.0000 0.22040  0.30270  0.02000  Biso   1.000  N
  C431     1.0000 0.19100  0.34020  0.99340  Biso   1.000  C
  N23      1.0000 0.18060  0.42750  0.99550  Biso   1.000  N
  C432     1.0000 0.20450  0.47580  0.02700  Biso   1.000  C
  N24      1.0000 0.23420  0.43970  0.05680  Biso   1.000  N
  I3       1.0000 0.12472  0.58981  0.44757  Biso   1.000  I
  I4       1.0000 0.23041  0.51410  0.54615  Biso   1.000  I
  I5       1.0000 0.02210  0.10360  0.87864  Biso   1.000  I
  I6       1.0000 0.11411  0.00740  0.80520  Biso   1.000  I
  I7       1.0000 0.85270  0.84580  0.76430  Biso   1.000  I
  I8       1.0000 0.89540  0.98860  0.65534  Biso   1.000  I
  I9       1.0000 0.39670  0.01020  0.14990  Biso   1.000  I
  I10      1.0000 0.35350  0.17400  0.25840  Biso   1.000  I
  I11      1.0000 0.12080  0.90590  0.94320  Biso   1.000  I
  I12      1.0000 0.22999  0.98730  0.03770  Biso   1.000  I
  I13      1.0000 0.12720  0.57760  0.45730  Biso   1.000  I
  I14      1.0000 0.23990  0.52590  0.55730  Biso   1.000  I
  I15      1.0000 0.03060  0.10300  0.87130  Biso   1.000  I
  I16      1.0000 0.12150  0.01470  0.79700  Biso   1.000  I
  I17      1.0000 0.85660  0.85170  0.75370  Biso   1.000  I
  I18      1.0000 0.88430  0.00050  0.65410  Biso   1.000  I
  I19      1.0000 0.38500  0.01710  0.15390  Biso   1.000  I
  I20      1.0000 0.35210  0.15440  0.25750  Biso   1.000  I
  I21      1.0000 0.12890  0.93260  0.94760  Biso   1.000  I
  I22      1.0000 0.23320  0.98460  0.05480  Biso   1.000  I
  Zn7      1.0000 0.67019  0.10991  0.52292  Biso   1.000  Zn
  Zn8      1.0000 0.58180  0.62520  0.84009  Biso   1.000  Zn
  Zn9      1.0000 0.37457  0.34772  0.69057  Biso   1.000  Zn
  Zn10     1.0000 0.08781  0.37561  0.33791  Biso   1.000  Zn
  Zn11     1.0000 0.87449  0.65709  0.18674  Biso   1.000  Zn
  Zn12     1.0000 0.66932  0.39390  0.01812  Biso   1.000  Zn
  I23      1.0000 0.02940  0.40739  0.36935  Biso   1.000  I
  I24      1.0000 0.12426  0.49009  0.30505  Biso   1.000  I
  N25      1.0000 0.63800  0.09590  0.57100  Biso   1.000  N
  C433     1.0000 0.65120  0.04500  0.60660  Biso   1.000  C
  H577     1.0000 0.67660  0.01930  0.61080  Biso   1.000  H
  C434     1.0000 0.62960  0.02890  0.63680  Biso   1.000  C
  H578     1.0000 0.63920  0.99000  0.66070  Biso   1.000  H
  C435     1.0000 0.59310  0.06990  0.63250  Biso   1.000  C
  C436     1.0000 0.58150  0.12740  0.59710  Biso   1.000  C
  H579     1.0000 0.55820  0.16160  0.59410  Biso   1.000  H
  C437     1.0000 0.60460  0.13480  0.56550  Biso   1.000  C
  H580     1.0000 0.59520  0.16910  0.53980  Biso   1.000  H
  N26      1.0000 0.56990  0.73380  0.79580  Biso   1.000  N
  C438     1.0000 0.53770  0.78450  0.79310  Biso   1.000  C
  H581     1.0000 0.51860  0.76730  0.80890  Biso   1.000  H
  C439     1.0000 0.53190  0.86170  0.76720  Biso   1.000  C
  H582     1.0000 0.50870  0.89630  0.76470  Biso   1.000  H
  C440     1.0000 0.55990  0.88740  0.74540  Biso   1.000  C
  C441     1.0000 0.59350  0.83780  0.75010  Biso   1.000  C
  H583     1.0000 0.61390  0.85850  0.73710  Biso   1.000  H
  C442     1.0000 0.59790  0.75860  0.77320  Biso   1.000  C
  H584     1.0000 0.62000  0.72120  0.77370  Biso   1.000  H
  N27      1.0000 0.42140  0.26160  0.69340  Biso   1.000  N
  C443     1.0000 0.43650  0.21040  0.72840  Biso   1.000  C
  H585     1.0000 0.42440  0.21090  0.75270  Biso   1.000  H
  C444     1.0000 0.46910  0.15700  0.73010  Biso   1.000  C
  H586     1.0000 0.47960  0.12290  0.75550  Biso   1.000  H
  C445     1.0000 0.48620  0.15370  0.69460  Biso   1.000  C
  C446     1.0000 0.46950  0.20190  0.65770  Biso   1.000  C
  H587     1.0000 0.47960  0.19850  0.63200  Biso   1.000  H
  C447     1.0000 0.43680  0.25670  0.65940  Biso   1.000  C
  H588     1.0000 0.42560  0.29170  0.63450  Biso   1.000  H
  C448     1.0000 0.56910  0.05260  0.66410  Biso   1.000  C
  N28      1.0000 0.57630  0.97760  0.69010  Biso   1.000  N
  C449     1.0000 0.55470  0.96910  0.71840  Biso   1.000  C
  N29      1.0000 0.52580  0.02670  0.72320  Biso   1.000  N
  C450     1.0000 0.51920  0.09570  0.69430  Biso   1.000  C
  N30      1.0000 0.53940  0.11030  0.66410  Biso   1.000  N
  N31      1.0000 0.33170  0.28410  0.64450  Biso   1.000  N
  C451     1.0000 0.32300  0.20100  0.65110  Biso   1.000  C
  H589     1.0000 0.33610  0.17200  0.67710  Biso   1.000  H
  C452     1.0000 0.29440  0.15180  0.62120  Biso   1.000  C
  H590     1.0000 0.28960  0.08980  0.62570  Biso   1.000  H
  C453     1.0000 0.27360  0.19830  0.58460  Biso   1.000  C
  C454     1.0000 0.28460  0.28430  0.57820  Biso   1.000  C
  H591     1.0000 0.27180  0.31630  0.55290  Biso   1.000  H
  C455     1.0000 0.31370  0.32500  0.60750  Biso   1.000  C
  H592     1.0000 0.32150  0.38440  0.60160  Biso   1.000  H
  N32      1.0000 0.12640  0.30740  0.38620  Biso   1.000  N
  C456     1.0000 0.12150  0.22220  0.39200  Biso   1.000  C
  H593     1.0000 0.10110  0.19260  0.37200  Biso   1.000  H
  C457     1.0000 0.14350  0.17110  0.42470  Biso   1.000  C
  H594     1.0000 0.13930  0.10790  0.42630  Biso   1.000  H
  C458     1.0000 0.17210  0.21420  0.45550  Biso   1.000  C
  C459     1.0000 0.17840  0.30430  0.45100  Biso   1.000  C
  H595     1.0000 0.19800  0.33520  0.47150  Biso   1.000  H
  C460     1.0000 0.15530  0.35070  0.41500  Biso   1.000  C
  H596     1.0000 0.16010  0.41290  0.41100  Biso   1.000  H
  N33      1.0000 0.18400  0.74720  0.52710  Biso   1.000  N
  C461     1.0000 0.15820  0.80430  0.50310  Biso   1.000  C
  H597     1.0000 0.13470  0.78060  0.48610  Biso   1.000  H
  C462     1.0000 0.16470  0.89500  0.50230  Biso   1.000  C
  H598     1.0000 0.14700  0.93320  0.48330  Biso   1.000  H
  C463     1.0000 0.19790  0.93060  0.53010  Biso   1.000  C
  C464     1.0000 0.22450  0.87120  0.55530  Biso   1.000  C
  H599     1.0000 0.24790  0.89240  0.57360  Biso   1.000  H
  C465     1.0000 0.21530  0.77980  0.55250  Biso   1.000  C
  H600     1.0000 0.23280  0.73890  0.57010  Biso   1.000  H
  C466     1.0000 0.24260  0.15130  0.55270  Biso   1.000  C
  N34      1.0000 0.23640  0.06360  0.55840  Biso   1.000  N
  C467     1.0000 0.20690  0.02930  0.52890  Biso   1.000  C
  N35      1.0000 0.18450  0.07540  0.49620  Biso   1.000  N
  C468     1.0000 0.19390  0.16180  0.49320  Biso   1.000  C
  N36      1.0000 0.22320  0.20520  0.52040  Biso   1.000  N
  N37      1.0000 0.07330  0.27010  0.29470  Biso   1.000  N
  C469     1.0000 0.04300  0.22030  0.29220  Biso   1.000  C
  H601     1.0000 0.02480  0.23650  0.30930  Biso   1.000  H
  C470     1.0000 0.03500  0.14150  0.26520  Biso   1.000  C
  H602     1.0000 0.01180  0.10750  0.26410  Biso   1.000  H
  C471     1.0000 0.06040  0.11670  0.24150  Biso   1.000  C
  C472     1.0000 0.09330  0.17410  0.24090  Biso   1.000  C
  H603     1.0000 0.11100  0.16380  0.22240  Biso   1.000  H
  C473     1.0000 0.09670  0.24500  0.26950  Biso   1.000  C
  H604     1.0000 0.11930  0.28130  0.27130  Biso   1.000  H
  N38      1.0000 0.92160  0.74190  0.19010  Biso   1.000  N
  C474     1.0000 0.93840  0.78490  0.22660  Biso   1.000  C
  H605     1.0000 0.92860  0.77690  0.25230  Biso   1.000  H
  C475     1.0000 0.97010  0.84110  0.22740  Biso   1.000  C
  H606     1.0000 0.98170  0.87240  0.25330  Biso   1.000  H
  C476     1.0000 0.98480  0.85140  0.19050  Biso   1.000  C
  C477     1.0000 0.96610  0.80510  0.15530  Biso   1.000  C
  H607     1.0000 0.97510  0.81040  0.12900  Biso   1.000  H
  C478     1.0000 0.93530  0.75210  0.15550  Biso   1.000  C
  H608     1.0000 0.92320  0.72120  0.12950  Biso   1.000  H
  N39      1.0000 0.13790  0.91040  0.06590  Biso   1.000  N
  C479     1.0000 0.10690  0.86240  0.06960  Biso   1.000  C
  H609     1.0000 0.10070  0.81240  0.05040  Biso   1.000  H
  C480     1.0000 0.08420  0.87600  0.09630  Biso   1.000  C
  H610     1.0000 0.06160  0.83940  0.09450  Biso   1.000  H
  C481     1.0000 0.09220  0.93970  0.12590  Biso   1.000  C
  C482     1.0000 0.12280  0.98500  0.12470  Biso   1.000  C
  H611     1.0000 0.13090  0.02830  0.14700  Biso   1.000  H
  C483     1.0000 0.14490  0.97600  0.09440  Biso   1.000  C
  H612     1.0000 0.16540  0.01770  0.09380  Biso   1.000  H
  C484     1.0000 0.05390  0.03320  0.21370  Biso   1.000  C
  N40      1.0000 0.02680  0.97780  0.21950  Biso   1.000  N
  C485     1.0000 0.01950  0.91290  0.18990  Biso   1.000  C
  N41      1.0000 0.03920  0.89630  0.15950  Biso   1.000  N
  C486     1.0000 0.06680  0.95370  0.15820  Biso   1.000  C
  N42      1.0000 0.07630  0.02490  0.18390  Biso   1.000  N
  N43      1.0000 0.83250  0.72000  0.14040  Biso   1.000  N
  C487     1.0000 0.81130  0.67490  0.10620  Biso   1.000  C
  H613     1.0000 0.81710  0.61340  0.10180  Biso   1.000  H
  C488     1.0000 0.78100  0.71750  0.07710  Biso   1.000  C
  H614     1.0000 0.76600  0.68490  0.05330  Biso   1.000  H
  C489     1.0000 0.77240  0.80950  0.08330  Biso   1.000  C
  C490     1.0000 0.79450  0.85230  0.11860  Biso   1.000  C
  H615     1.0000 0.78950  0.91390  0.12380  Biso   1.000  H
  C491     1.0000 0.82280  0.80960  0.14570  Biso   1.000  C
  H616     1.0000 0.83720  0.84190  0.17000  Biso   1.000  H
  N44      1.0000 0.68170  0.25830  0.02410  Biso   1.000  N
  C492     1.0000 0.65740  0.19880  0.00050  Biso   1.000  C
  H617     1.0000 0.63470  0.22180  0.98140  Biso   1.000  H
  C493     1.0000 0.66270  0.10530  0.00180  Biso   1.000  C
  H618     1.0000 0.64360  0.06540  0.98570  Biso   1.000  H
  C494     1.0000 0.69720  0.07400  0.02770  Biso   1.000  C
  C495     1.0000 0.72210  0.13330  0.05220  Biso   1.000  C
  H619     1.0000 0.74500  0.11150  0.07130  Biso   1.000  H
  C496     1.0000 0.71480  0.22430  0.04960  Biso   1.000  C
  H620     1.0000 0.73330  0.26450  0.06620  Biso   1.000  H
  N45      1.0000 0.62130  0.69300  0.88830  Biso   1.000  N
  C497     1.0000 0.65170  0.65570  0.91450  Biso   1.000  C
  H621     1.0000 0.65810  0.59520  0.90890  Biso   1.000  H
  C498     1.0000 0.67440  0.69960  0.94920  Biso   1.000  C
  H622     1.0000 0.69570  0.66940  0.96750  Biso   1.000  H
  C499     1.0000 0.66610  0.78810  0.95720  Biso   1.000  C
  C500     1.0000 0.63490  0.82880  0.93100  Biso   1.000  C
  H623     1.0000 0.62820  0.88950  0.93600  Biso   1.000  H
  C501     1.0000 0.61290  0.77950  0.89660  Biso   1.000  C
  H624     1.0000 0.59110  0.80770  0.87820  Biso   1.000  H
  C502     1.0000 0.73980  0.85180  0.05150  Biso   1.000  C
  N46      1.0000 0.72040  0.80270  0.02000  Biso   1.000  N
  C503     1.0000 0.69100  0.84020  0.99340  Biso   1.000  C
  N47      1.0000 0.68060  0.92750  0.99550  Biso   1.000  N
  C504     1.0000 0.70450  0.97580  0.02700  Biso   1.000  C
  N48      1.0000 0.73420  0.93970  0.05680  Biso   1.000  N
  I25      1.0000 0.62472  0.08981  0.44757  Biso   1.000  I
  I26      1.0000 0.73041  0.01410  0.54615  Biso   1.000  I
  I27      1.0000 0.52210  0.60360  0.87864  Biso   1.000  I
  I28      1.0000 0.61411  0.50740  0.80520  Biso   1.000  I
  I29      1.0000 0.35270  0.34580  0.76430  Biso   1.000  I
  I30      1.0000 0.39540  0.48860  0.65534  Biso   1.000  I
  I31      1.0000 0.89670  0.51020  0.14990  Biso   1.000  I
  I32      1.0000 0.85350  0.67400  0.25840  Biso   1.000  I
  I33      1.0000 0.62080  0.40590  0.94320  Biso   1.000  I
  I34      1.0000 0.72999  0.48730  0.03770  Biso   1.000  I
  I35      1.0000 0.62720  0.07760  0.45730  Biso   1.000  I
  I36      1.0000 0.73990  0.02590  0.55730  Biso   1.000  I
  I37      1.0000 0.53060  0.60300  0.87130  Biso   1.000  I
  I38      1.0000 0.62150  0.51470  0.79700  Biso   1.000  I
  I39      1.0000 0.35660  0.35170  0.75370  Biso   1.000  I
  I40      1.0000 0.38430  0.50050  0.65410  Biso   1.000  I
  I41      1.0000 0.88500  0.51710  0.15390  Biso   1.000  I
  I42      1.0000 0.85210  0.65440  0.25750  Biso   1.000  I
  I43      1.0000 0.62890  0.43260  0.94760  Biso   1.000  I
  I44      1.0000 0.73320  0.48460  0.05480  Biso   1.000  I
  Zn13     1.0000 0.82981  0.60991  0.47708  Biso   1.000  Zn
  Zn14     1.0000 0.91820  0.12520  0.15991  Biso   1.000  Zn
  Zn15     1.0000 0.12543  0.84772  0.30943  Biso   1.000  Zn
  Zn16     1.0000 0.41219  0.87561  0.66209  Biso   1.000  Zn
  Zn17     1.0000 0.62551  0.15709  0.81326  Biso   1.000  Zn
  Zn18     1.0000 0.83068  0.89390  0.98188  Biso   1.000  Zn
  I45      1.0000 0.47060  0.90739  0.63065  Biso   1.000  I
  I46      1.0000 0.37574  0.99009  0.69495  Biso   1.000  I
  N49      1.0000 0.86200  0.59590  0.42900  Biso   1.000  N
  C505     1.0000 0.84880  0.54500  0.39340  Biso   1.000  C
  H625     1.0000 0.82340  0.51930  0.38920  Biso   1.000  H
  C506     1.0000 0.87040  0.52890  0.36320  Biso   1.000  C
  H626     1.0000 0.86080  0.49000  0.33930  Biso   1.000  H
  C507     1.0000 0.90690  0.56990  0.36750  Biso   1.000  C
  C508     1.0000 0.91850  0.62740  0.40290  Biso   1.000  C
  H627     1.0000 0.94180  0.66160  0.40590  Biso   1.000  H
  C509     1.0000 0.89540  0.63480  0.43450  Biso   1.000  C
  H628     1.0000 0.90480  0.66910  0.46020  Biso   1.000  H
  N50      1.0000 0.93010  0.23380  0.20420  Biso   1.000  N
  C510     1.0000 0.96230  0.28450  0.20690  Biso   1.000  C
  H629     1.0000 0.98140  0.26730  0.19110  Biso   1.000  H
  C511     1.0000 0.96810  0.36170  0.23280  Biso   1.000  C
  H630     1.0000 0.99130  0.39630  0.23530  Biso   1.000  H
  C512     1.0000 0.94010  0.38740  0.25460  Biso   1.000  C
  C513     1.0000 0.90650  0.33780  0.24990  Biso   1.000  C
  H631     1.0000 0.88610  0.35850  0.26290  Biso   1.000  H
  C514     1.0000 0.90210  0.25860  0.22680  Biso   1.000  C
  H632     1.0000 0.88000  0.22120  0.22630  Biso   1.000  H
  N51      1.0000 0.07860  0.76160  0.30660  Biso   1.000  N
  C515     1.0000 0.06350  0.71040  0.27160  Biso   1.000  C
  H633     1.0000 0.07560  0.71090  0.24730  Biso   1.000  H
  C516     1.0000 0.03090  0.65700  0.26990  Biso   1.000  C
  H634     1.0000 0.02040  0.62290  0.24450  Biso   1.000  H
  C517     1.0000 0.01380  0.65370  0.30540  Biso   1.000  C
  C518     1.0000 0.03050  0.70190  0.34230  Biso   1.000  C
  H635     1.0000 0.02040  0.69850  0.36800  Biso   1.000  H
  C519     1.0000 0.06320  0.75670  0.34060  Biso   1.000  C
  H636     1.0000 0.07440  0.79170  0.36550  Biso   1.000  H
  C520     1.0000 0.93090  0.55260  0.33590  Biso   1.000  C
  N52      1.0000 0.92370  0.47760  0.30990  Biso   1.000  N
  C521     1.0000 0.94530  0.46910  0.28160  Biso   1.000  C
  N53      1.0000 0.97420  0.52670  0.27680  Biso   1.000  N
  C522     1.0000 0.98080  0.59570  0.30570  Biso   1.000  C
  N54      1.0000 0.96060  0.61030  0.33590  Biso   1.000  N
  N55      1.0000 0.16830  0.78410  0.35550  Biso   1.000  N
  C523     1.0000 0.17700  0.70100  0.34890  Biso   1.000  C
  H637     1.0000 0.16390  0.67200  0.32290  Biso   1.000  H
  C524     1.0000 0.20560  0.65180  0.37880  Biso   1.000  C
  H638     1.0000 0.21040  0.58980  0.37430  Biso   1.000  H
  C525     1.0000 0.22640  0.69830  0.41540  Biso   1.000  C
  C526     1.0000 0.21540  0.78430  0.42180  Biso   1.000  C
  H639     1.0000 0.22820  0.81630  0.44710  Biso   1.000  H
  C527     1.0000 0.18630  0.82500  0.39250  Biso   1.000  C
  H640     1.0000 0.17850  0.88440  0.39840  Biso   1.000  H
  N56      1.0000 0.37360  0.80740  0.61380  Biso   1.000  N
  C528     1.0000 0.37850  0.72220  0.60800  Biso   1.000  C
  H641     1.0000 0.39890  0.69260  0.62800  Biso   1.000  H
  C529     1.0000 0.35650  0.67110  0.57530  Biso   1.000  C
  H642     1.0000 0.36070  0.60790  0.57370  Biso   1.000  H
  C530     1.0000 0.32790  0.71420  0.54450  Biso   1.000  C
  C531     1.0000 0.32160  0.80430  0.54900  Biso   1.000  C
  H643     1.0000 0.30200  0.83520  0.52850  Biso   1.000  H
  C532     1.0000 0.34470  0.85070  0.58500  Biso   1.000  C
  H644     1.0000 0.33990  0.91290  0.58900  Biso   1.000  H
  N57      1.0000 0.31600  0.24720  0.47290  Biso   1.000  N
  C533     1.0000 0.34180  0.30430  0.49690  Biso   1.000  C
  H645     1.0000 0.36530  0.28060  0.51390  Biso   1.000  H
  C534     1.0000 0.33530  0.39500  0.49770  Biso   1.000  C
  H646     1.0000 0.35300  0.43320  0.51670  Biso   1.000  H
  C535     1.0000 0.30210  0.43060  0.46990  Biso   1.000  C
  C536     1.0000 0.27550  0.37120  0.44470  Biso   1.000  C
  H647     1.0000 0.25210  0.39240  0.42640  Biso   1.000  H
  C537     1.0000 0.28470  0.27980  0.44750  Biso   1.000  C
  H648     1.0000 0.26720  0.23890  0.42990  Biso   1.000  H
  C538     1.0000 0.25740  0.65130  0.44730  Biso   1.000  C
  N58      1.0000 0.26360  0.56360  0.44160  Biso   1.000  N
  C539     1.0000 0.29310  0.52930  0.47110  Biso   1.000  C
  N59      1.0000 0.31550  0.57540  0.50380  Biso   1.000  N
  C540     1.0000 0.30610  0.66180  0.50680  Biso   1.000  C
  N60      1.0000 0.27680  0.70520  0.47960  Biso   1.000  N
  N61      1.0000 0.42670  0.77010  0.70530  Biso   1.000  N
  C541     1.0000 0.45700  0.72030  0.70780  Biso   1.000  C
  H649     1.0000 0.47520  0.73650  0.69070  Biso   1.000  H
  C542     1.0000 0.46500  0.64150  0.73480  Biso   1.000  C
  H650     1.0000 0.48820  0.60750  0.73590  Biso   1.000  H
  C543     1.0000 0.43960  0.61670  0.75850  Biso   1.000  C
  C544     1.0000 0.40670  0.67410  0.75910  Biso   1.000  C
  H651     1.0000 0.38900  0.66380  0.77760  Biso   1.000  H
  C545     1.0000 0.40330  0.74500  0.73050  Biso   1.000  C
  H652     1.0000 0.38070  0.78130  0.72870  Biso   1.000  H
  N62      1.0000 0.57840  0.24190  0.80990  Biso   1.000  N
  C546     1.0000 0.56160  0.28490  0.77340  Biso   1.000  C
  H653     1.0000 0.57140  0.27690  0.74770  Biso   1.000  H
  C547     1.0000 0.52990  0.34110  0.77260  Biso   1.000  C
  H654     1.0000 0.51830  0.37240  0.74670  Biso   1.000  H
  C548     1.0000 0.51520  0.35140  0.80950  Biso   1.000  C
  C549     1.0000 0.53390  0.30510  0.84470  Biso   1.000  C
  H655     1.0000 0.52490  0.31040  0.87100  Biso   1.000  H
  C550     1.0000 0.56470  0.25210  0.84450  Biso   1.000  C
  H656     1.0000 0.57680  0.22120  0.87050  Biso   1.000  H
  N63      1.0000 0.36210  0.41040  0.93410  Biso   1.000  N
  C551     1.0000 0.39310  0.36240  0.93040  Biso   1.000  C
  H657     1.0000 0.39930  0.31240  0.94960  Biso   1.000  H
  C552     1.0000 0.41580  0.37600  0.90370  Biso   1.000  C
  H658     1.0000 0.43840  0.33940  0.90550  Biso   1.000  H
  C553     1.0000 0.40780  0.43970  0.87410  Biso   1.000  C
  C554     1.0000 0.37720  0.48500  0.87530  Biso   1.000  C
  H659     1.0000 0.36910  0.52830  0.85300  Biso   1.000  H
  C555     1.0000 0.35510  0.47600  0.90560  Biso   1.000  C
  H660     1.0000 0.33460  0.51770  0.90620  Biso   1.000  H
  C556     1.0000 0.44610  0.53320  0.78630  Biso   1.000  C
  N64      1.0000 0.47320  0.47780  0.78050  Biso   1.000  N
  C557     1.0000 0.48050  0.41290  0.81010  Biso   1.000  C
  N65      1.0000 0.46080  0.39630  0.84050  Biso   1.000  N
  C558     1.0000 0.43320  0.45370  0.84180  Biso   1.000  C
  N66      1.0000 0.42370  0.52490  0.81610  Biso   1.000  N
  N67      1.0000 0.66750  0.22000  0.85960  Biso   1.000  N
  C559     1.0000 0.68870  0.17490  0.89380  Biso   1.000  C
  H661     1.0000 0.68290  0.11340  0.89820  Biso   1.000  H
  C560     1.0000 0.71900  0.21750  0.92290  Biso   1.000  C
  H662     1.0000 0.73400  0.18490  0.94670  Biso   1.000  H
  C561     1.0000 0.72760  0.30950  0.91670  Biso   1.000  C
  C562     1.0000 0.70550  0.35230  0.88140  Biso   1.000  C
  H663     1.0000 0.71050  0.41390  0.87620  Biso   1.000  H
  C563     1.0000 0.67720  0.30960  0.85430  Biso   1.000  C
  H664     1.0000 0.66280  0.34190  0.83000  Biso   1.000  H
  N68      1.0000 0.81830  0.75830  0.97590  Biso   1.000  N
  C564     1.0000 0.84260  0.69880  0.99950  Biso   1.000  C
  H665     1.0000 0.86530  0.72180  0.01860  Biso   1.000  H
  C565     1.0000 0.83730  0.60530  0.99820  Biso   1.000  C
  H666     1.0000 0.85640  0.56540  0.01430  Biso   1.000  H
  C566     1.0000 0.80280  0.57400  0.97230  Biso   1.000  C
  C567     1.0000 0.77790  0.63330  0.94780  Biso   1.000  C
  H667     1.0000 0.75500  0.61150  0.92870  Biso   1.000  H
  C568     1.0000 0.78520  0.72430  0.95040  Biso   1.000  C
  H668     1.0000 0.76670  0.76450  0.93380  Biso   1.000  H
  N69      1.0000 0.87870  0.19300  0.11170  Biso   1.000  N
  C569     1.0000 0.84830  0.15570  0.08550  Biso   1.000  C
  H669     1.0000 0.84190  0.09520  0.09110  Biso   1.000  H
  C570     1.0000 0.82560  0.19960  0.05080  Biso   1.000  C
  H670     1.0000 0.80430  0.16940  0.03250  Biso   1.000  H
  C571     1.0000 0.83390  0.28810  0.04280  Biso   1.000  C
  C572     1.0000 0.86510  0.32880  0.06900  Biso   1.000  C
  H671     1.0000 0.87180  0.38950  0.06400  Biso   1.000  H
  C573     1.0000 0.88710  0.27950  0.10340  Biso   1.000  C
  H672     1.0000 0.90890  0.30770  0.12180  Biso   1.000  H
  C574     1.0000 0.76020  0.35180  0.94850  Biso   1.000  C
  N70      1.0000 0.77960  0.30270  0.98000  Biso   1.000  N
  C575     1.0000 0.80900  0.34020  0.00660  Biso   1.000  C
  N71      1.0000 0.81940  0.42750  0.00450  Biso   1.000  N
  C576     1.0000 0.79550  0.47580  0.97300  Biso   1.000  C
  N72      1.0000 0.76580  0.43970  0.94320  Biso   1.000  N
  I47      1.0000 0.87528  0.58981  0.55243  Biso   1.000  I
  I48      1.0000 0.76959  0.51410  0.45385  Biso   1.000  I
  I49      1.0000 0.97790  0.10360  0.12136  Biso   1.000  I
  I50      1.0000 0.88589  0.00740  0.19480  Biso   1.000  I
  I51      1.0000 0.14730  0.84580  0.23570  Biso   1.000  I
  I52      1.0000 0.10460  0.98860  0.34466  Biso   1.000  I
  I53      1.0000 0.60330  0.01020  0.85010  Biso   1.000  I
  I54      1.0000 0.64650  0.17400  0.74160  Biso   1.000  I
  I55      1.0000 0.87920  0.90590  0.05680  Biso   1.000  I
  I56      1.0000 0.77001  0.98730  0.96230  Biso   1.000  I
  I57      1.0000 0.87280  0.57760  0.54270  Biso   1.000  I
  I58      1.0000 0.76010  0.52590  0.44270  Biso   1.000  I
  I59      1.0000 0.96940  0.10300  0.12870  Biso   1.000  I
  I60      1.0000 0.87850  0.01470  0.20300  Biso   1.000  I
  I61      1.0000 0.14340  0.85170  0.24630  Biso   1.000  I
  I62      1.0000 0.11570  0.00050  0.34590  Biso   1.000  I
  I63      1.0000 0.61500  0.01710  0.84610  Biso   1.000  I
  I64      1.0000 0.64790  0.15440  0.74250  Biso   1.000  I
  I65      1.0000 0.87110  0.93260  0.05240  Biso   1.000  I
  I66      1.0000 0.76680  0.98460  0.94520  Biso   1.000  I
  Zn19     1.0000 0.32981  0.10991  0.47708  Biso   1.000  Zn
  Zn20     1.0000 0.41820  0.62520  0.15991  Biso   1.000  Zn
  Zn21     1.0000 0.62543  0.34772  0.30943  Biso   1.000  Zn
  Zn22     1.0000 0.91219  0.37561  0.66209  Biso   1.000  Zn
  Zn23     1.0000 0.12551  0.65709  0.81326  Biso   1.000  Zn
  Zn24     1.0000 0.33068  0.39390  0.98188  Biso   1.000  Zn
  I67      1.0000 0.97060  0.40739  0.63065  Biso   1.000  I
  I68      1.0000 0.87574  0.49009  0.69495  Biso   1.000  I
  N73      1.0000 0.36200  0.09590  0.42900  Biso   1.000  N
  C577     1.0000 0.34880  0.04500  0.39340  Biso   1.000  C
  H673     1.0000 0.32340  0.01930  0.38920  Biso   1.000  H
  C578     1.0000 0.37040  0.02890  0.36320  Biso   1.000  C
  H674     1.0000 0.36080  0.99000  0.33930  Biso   1.000  H
  C579     1.0000 0.40690  0.06990  0.36750  Biso   1.000  C
  C580     1.0000 0.41850  0.12740  0.40290  Biso   1.000  C
  H675     1.0000 0.44180  0.16160  0.40590  Biso   1.000  H
  C581     1.0000 0.39540  0.13480  0.43450  Biso   1.000  C
  H676     1.0000 0.40480  0.16910  0.46020  Biso   1.000  H
  N74      1.0000 0.43010  0.73380  0.20420  Biso   1.000  N
  C582     1.0000 0.46230  0.78450  0.20690  Biso   1.000  C
  H677     1.0000 0.48140  0.76730  0.19110  Biso   1.000  H
  C583     1.0000 0.46810  0.86170  0.23280  Biso   1.000  C
  H678     1.0000 0.49130  0.89630  0.23530  Biso   1.000  H
  C584     1.0000 0.44010  0.88740  0.25460  Biso   1.000  C
  C585     1.0000 0.40650  0.83780  0.24990  Biso   1.000  C
  H679     1.0000 0.38610  0.85850  0.26290  Biso   1.000  H
  C586     1.0000 0.40210  0.75860  0.22680  Biso   1.000  C
  H680     1.0000 0.38000  0.72120  0.22630  Biso   1.000  H
  N75      1.0000 0.57860  0.26160  0.30660  Biso   1.000  N
  C587     1.0000 0.56350  0.21040  0.27160  Biso   1.000  C
  H681     1.0000 0.57560  0.21090  0.24730  Biso   1.000  H
  C588     1.0000 0.53090  0.15700  0.26990  Biso   1.000  C
  H682     1.0000 0.52040  0.12290  0.24450  Biso   1.000  H
  C589     1.0000 0.51380  0.15370  0.30540  Biso   1.000  C
  C590     1.0000 0.53050  0.20190  0.34230  Biso   1.000  C
  H683     1.0000 0.52040  0.19850  0.36800  Biso   1.000  H
  C591     1.0000 0.56320  0.25670  0.34060  Biso   1.000  C
  H684     1.0000 0.57440  0.29170  0.36550  Biso   1.000  H
  C592     1.0000 0.43090  0.05260  0.33590  Biso   1.000  C
  N76      1.0000 0.42370  0.97760  0.30990  Biso   1.000  N
  C593     1.0000 0.44530  0.96910  0.28160  Biso   1.000  C
  N77      1.0000 0.47420  0.02670  0.27680  Biso   1.000  N
  C594     1.0000 0.48080  0.09570  0.30570  Biso   1.000  C
  N78      1.0000 0.46060  0.11030  0.33590  Biso   1.000  N
  N79      1.0000 0.66830  0.28410  0.35550  Biso   1.000  N
  C595     1.0000 0.67700  0.20100  0.34890  Biso   1.000  C
  H685     1.0000 0.66390  0.17200  0.32290  Biso   1.000  H
  C596     1.0000 0.70560  0.15180  0.37880  Biso   1.000  C
  H686     1.0000 0.71040  0.08980  0.37430  Biso   1.000  H
  C597     1.0000 0.72640  0.19830  0.41540  Biso   1.000  C
  C598     1.0000 0.71540  0.28430  0.42180  Biso   1.000  C
  H687     1.0000 0.72820  0.31630  0.44710  Biso   1.000  H
  C599     1.0000 0.68630  0.32500  0.39250  Biso   1.000  C
  H688     1.0000 0.67850  0.38440  0.39840  Biso   1.000  H
  N80      1.0000 0.87360  0.30740  0.61380  Biso   1.000  N
  C600     1.0000 0.87850  0.22220  0.60800  Biso   1.000  C
  H689     1.0000 0.89890  0.19260  0.62800  Biso   1.000  H
  C601     1.0000 0.85650  0.17110  0.57530  Biso   1.000  C
  H690     1.0000 0.86070  0.10790  0.57370  Biso   1.000  H
  C602     1.0000 0.82790  0.21420  0.54450  Biso   1.000  C
  C603     1.0000 0.82160  0.30430  0.54900  Biso   1.000  C
  H691     1.0000 0.80200  0.33520  0.52850  Biso   1.000  H
  C604     1.0000 0.84470  0.35070  0.58500  Biso   1.000  C
  H692     1.0000 0.83990  0.41290  0.58900  Biso   1.000  H
  N81      1.0000 0.81600  0.74720  0.47290  Biso   1.000  N
  C605     1.0000 0.84180  0.80430  0.49690  Biso   1.000  C
  H693     1.0000 0.86530  0.78060  0.51390  Biso   1.000  H
  C606     1.0000 0.83530  0.89500  0.49770  Biso   1.000  C
  H694     1.0000 0.85300  0.93320  0.51670  Biso   1.000  H
  C607     1.0000 0.80210  0.93060  0.46990  Biso   1.000  C
  C608     1.0000 0.77550  0.87120  0.44470  Biso   1.000  C
  H695     1.0000 0.75210  0.89240  0.42640  Biso   1.000  H
  C609     1.0000 0.78470  0.77980  0.44750  Biso   1.000  C
  H696     1.0000 0.76720  0.73890  0.42990  Biso   1.000  H
  C610     1.0000 0.75740  0.15130  0.44730  Biso   1.000  C
  N82      1.0000 0.76360  0.06360  0.44160  Biso   1.000  N
  C611     1.0000 0.79310  0.02930  0.47110  Biso   1.000  C
  N83      1.0000 0.81550  0.07540  0.50380  Biso   1.000  N
  C612     1.0000 0.80610  0.16180  0.50680  Biso   1.000  C
  N84      1.0000 0.77680  0.20520  0.47960  Biso   1.000  N
  N85      1.0000 0.92670  0.27010  0.70530  Biso   1.000  N
  C613     1.0000 0.95700  0.22030  0.70780  Biso   1.000  C
  H697     1.0000 0.97520  0.23650  0.69070  Biso   1.000  H
  C614     1.0000 0.96500  0.14150  0.73480  Biso   1.000  C
  H698     1.0000 0.98820  0.10750  0.73590  Biso   1.000  H
  C615     1.0000 0.93960  0.11670  0.75850  Biso   1.000  C
  C616     1.0000 0.90670  0.17410  0.75910  Biso   1.000  C
  H699     1.0000 0.88900  0.16380  0.77760  Biso   1.000  H
  C617     1.0000 0.90330  0.24500  0.73050  Biso   1.000  C
  H700     1.0000 0.88070  0.28130  0.72870  Biso   1.000  H
  N86      1.0000 0.07840  0.74190  0.80990  Biso   1.000  N
  C618     1.0000 0.06160  0.78490  0.77340  Biso   1.000  C
  H701     1.0000 0.07140  0.77690  0.74770  Biso   1.000  H
  C619     1.0000 0.02990  0.84110  0.77260  Biso   1.000  C
  H702     1.0000 0.01830  0.87240  0.74670  Biso   1.000  H
  C620     1.0000 0.01520  0.85140  0.80950  Biso   1.000  C
  C621     1.0000 0.03390  0.80510  0.84470  Biso   1.000  C
  H703     1.0000 0.02490  0.81040  0.87100  Biso   1.000  H
  C622     1.0000 0.06470  0.75210  0.84450  Biso   1.000  C
  H704     1.0000 0.07680  0.72120  0.87050  Biso   1.000  H
  N87      1.0000 0.86210  0.91040  0.93410  Biso   1.000  N
  C623     1.0000 0.89310  0.86240  0.93040  Biso   1.000  C
  H705     1.0000 0.89930  0.81240  0.94960  Biso   1.000  H
  C624     1.0000 0.91580  0.87600  0.90370  Biso   1.000  C
  H706     1.0000 0.93840  0.83940  0.90550  Biso   1.000  H
  C625     1.0000 0.90780  0.93970  0.87410  Biso   1.000  C
  C626     1.0000 0.87720  0.98500  0.87530  Biso   1.000  C
  H707     1.0000 0.86910  0.02830  0.85300  Biso   1.000  H
  C627     1.0000 0.85510  0.97600  0.90560  Biso   1.000  C
  H708     1.0000 0.83460  0.01770  0.90620  Biso   1.000  H
  C628     1.0000 0.94610  0.03320  0.78630  Biso   1.000  C
  N88      1.0000 0.97320  0.97780  0.78050  Biso   1.000  N
  C629     1.0000 0.98050  0.91290  0.81010  Biso   1.000  C
  N89      1.0000 0.96080  0.89630  0.84050  Biso   1.000  N
  C630     1.0000 0.93320  0.95370  0.84180  Biso   1.000  C
  N90      1.0000 0.92370  0.02490  0.81610  Biso   1.000  N
  N91      1.0000 0.16750  0.72000  0.85960  Biso   1.000  N
  C631     1.0000 0.18870  0.67490  0.89380  Biso   1.000  C
  H709     1.0000 0.18290  0.61340  0.89820  Biso   1.000  H
  C632     1.0000 0.21900  0.71750  0.92290  Biso   1.000  C
  H710     1.0000 0.23400  0.68490  0.94670  Biso   1.000  H
  C633     1.0000 0.22760  0.80950  0.91670  Biso   1.000  C
  C634     1.0000 0.20550  0.85230  0.88140  Biso   1.000  C
  H711     1.0000 0.21050  0.91390  0.87620  Biso   1.000  H
  C635     1.0000 0.17720  0.80960  0.85430  Biso   1.000  C
  H712     1.0000 0.16280  0.84190  0.83000  Biso   1.000  H
  N92      1.0000 0.31830  0.25830  0.97590  Biso   1.000  N
  C636     1.0000 0.34260  0.19880  0.99950  Biso   1.000  C
  H713     1.0000 0.36530  0.22180  0.01860  Biso   1.000  H
  C637     1.0000 0.33730  0.10530  0.99820  Biso   1.000  C
  H714     1.0000 0.35640  0.06540  0.01430  Biso   1.000  H
  C638     1.0000 0.30280  0.07400  0.97230  Biso   1.000  C
  C639     1.0000 0.27790  0.13330  0.94780  Biso   1.000  C
  H715     1.0000 0.25500  0.11150  0.92870  Biso   1.000  H
  C640     1.0000 0.28520  0.22430  0.95040  Biso   1.000  C
  H716     1.0000 0.26670  0.26450  0.93380  Biso   1.000  H
  N93      1.0000 0.37870  0.69300  0.11170  Biso   1.000  N
  C641     1.0000 0.34830  0.65570  0.08550  Biso   1.000  C
  H717     1.0000 0.34190  0.59520  0.09110  Biso   1.000  H
  C642     1.0000 0.32560  0.69960  0.05080  Biso   1.000  C
  H718     1.0000 0.30430  0.66940  0.03250  Biso   1.000  H
  C643     1.0000 0.33390  0.78810  0.04280  Biso   1.000  C
  C644     1.0000 0.36510  0.82880  0.06900  Biso   1.000  C
  H719     1.0000 0.37180  0.88950  0.06400  Biso   1.000  H
  C645     1.0000 0.38710  0.77950  0.10340  Biso   1.000  C
  H720     1.0000 0.40890  0.80770  0.12180  Biso   1.000  H
  C646     1.0000 0.26020  0.85180  0.94850  Biso   1.000  C
  N94      1.0000 0.27960  0.80270  0.98000  Biso   1.000  N
  C647     1.0000 0.30900  0.84020  0.00660  Biso   1.000  C
  N95      1.0000 0.31940  0.92750  0.00450  Biso   1.000  N
  C648     1.0000 0.29550  0.97580  0.97300  Biso   1.000  C
  N96      1.0000 0.26580  0.93970  0.94320  Biso   1.000  N
  I69      1.0000 0.37528  0.08981  0.55243  Biso   1.000  I
  I70      1.0000 0.26959  0.01410  0.45385  Biso   1.000  I
  I71      1.0000 0.47790  0.60360  0.12136  Biso   1.000  I
  I72      1.0000 0.38589  0.50740  0.19480  Biso   1.000  I
  I73      1.0000 0.64730  0.34580  0.23570  Biso   1.000  I
  I74      1.0000 0.60460  0.48860  0.34466  Biso   1.000  I
  I75      1.0000 0.10330  0.51020  0.85010  Biso   1.000  I
  I76      1.0000 0.14650  0.67400  0.74160  Biso   1.000  I
  I77      1.0000 0.37920  0.40590  0.05680  Biso   1.000  I
  I78      1.0000 0.27001  0.48730  0.96230  Biso   1.000  I
  I79      1.0000 0.37280  0.07760  0.54270  Biso   1.000  I
  I80      1.0000 0.26010  0.02590  0.44270  Biso   1.000  I
  I81      1.0000 0.46940  0.60300  0.12870  Biso   1.000  I
  I82      1.0000 0.37850  0.51470  0.20300  Biso   1.000  I
  I83      1.0000 0.64340  0.35170  0.24630  Biso   1.000  I
  I84      1.0000 0.61570  0.50050  0.34590  Biso   1.000  I
  I85      1.0000 0.11500  0.51710  0.84610  Biso   1.000  I
  I86      1.0000 0.14790  0.65440  0.74250  Biso   1.000  I
  I87      1.0000 0.37110  0.43260  0.05240  Biso   1.000  I
  I88      1.0000 0.26680  0.48460  0.94520  Biso   1.000  I
