data_image0
_cell_length_a       13.1451
_cell_length_b       31.9683
_cell_length_c       38.8933
_cell_angle_alpha    90
_cell_angle_beta     90
_cell_angle_gamma    90

_symmetry_space_group_name_H-M    "P 1"
_symmetry_int_tables_number       1

loop_
  _symmetry_equiv_pos_as_xyz
  'x, y, z'

loop_
  _atom_site_label
  _atom_site_occupancy
  _atom_site_fract_x
  _atom_site_fract_y
  _atom_site_fract_z
  _atom_site_thermal_displace_type
  _atom_site_B_iso_or_equiv
  _atom_site_type_symbol
  Zn1      1.0000 0.40127  0.40996  0.92564  Biso   1.000  Zn
  Zn2      1.0000 0.58418  0.34137  0.92783  Biso   1.000  Zn
  C1       1.0000 0.01210  0.13850  0.73130  Biso   1.000  C
  C2       1.0000 0.91930  0.14920  0.71660  Biso   1.000  C
  C3       1.0000 0.87620  0.12370  0.69160  Biso   1.000  C
  H1       1.0000 0.81410  0.13090  0.68180  Biso   1.000  H
  C4       1.0000 0.92590  0.08740  0.68130  Biso   1.000  C
  C5       1.0000 0.01870  0.07670  0.69600  Biso   1.000  C
  C6       1.0000 0.06180  0.10220  0.72100  Biso   1.000  C
  C7       1.0000 0.15640  0.09210  0.73480  Biso   1.000  C
  H2       1.0000 0.18280  0.10860  0.75240  Biso   1.000  H
  C8       1.0000 0.21370  0.05740  0.72300  Biso   1.000  C
  H3       1.0000 0.27680  0.05120  0.73250  Biso   1.000  H
  C9       1.0000 0.17180  0.03150  0.69550  Biso   1.000  C
  C10      1.0000 0.07580  0.04210  0.68330  Biso   1.000  C
  H4       1.0000 0.04750  0.02580  0.66600  Biso   1.000  H
  C11      1.0000 0.05160  0.16740  0.76165  Biso   1.000  C
  C12      1.0000 0.10380  0.20330  0.75183  Biso   1.000  C
  C13      1.0000 0.15070  0.22810  0.77653  Biso   1.000  C
  H5       1.0000 0.18570  0.25210  0.77000  Biso   1.000  H
  C14      1.0000 0.14540  0.21700  0.81105  Biso   1.000  C
  C15      1.0000 0.09320  0.18110  0.82086  Biso   1.000  C
  C16      1.0000 0.04630  0.15631  0.79617  Biso   1.000  C
  C17      1.0000 0.99380  0.12130  0.80750  Biso   1.000  C
  H6       1.0000 0.96440  0.10400  0.79110  Biso   1.000  H
  C18      1.0000 0.98280  0.11100  0.84040  Biso   1.000  C
  H7       1.0000 0.94630  0.08710  0.84620  Biso   1.000  H
  C19      1.0000 0.02610  0.13610  0.86680  Biso   1.000  C
  C20      1.0000 0.08190  0.17100  0.85620  Biso   1.000  C
  H8       1.0000 0.11250  0.18790  0.87270  Biso   1.000  H
  C21      1.0000 0.20590  0.24400  0.83514  Biso   1.000  C
  C22      1.0000 0.17710  0.28540  0.83999  Biso   1.000  C
  H9       1.0000 0.11940  0.29580  0.82910  Biso   1.000  H
  C23      1.0000 0.23470  0.31132  0.86110  Biso   1.000  C
  H10      1.0000 0.21540  0.33900  0.86430  Biso   1.000  H
  C24      1.0000 0.32100  0.29580  0.87734  Biso   1.000  C
  C25      1.0000 0.34980  0.25440  0.87249  Biso   1.000  C
  H11      1.0000 0.40750  0.24400  0.88340  Biso   1.000  H
  C26      1.0000 0.29230  0.22848  0.85140  Biso   1.000  C
  H12      1.0000 0.31150  0.20080  0.84810  Biso   1.000  H
  O1       1.0000 0.47550  0.31200  0.90580  Biso   1.000  O
  O2       1.0000 0.34670  0.35850  0.90580  Biso   1.000  O
  C27      1.0000 0.01340  0.12750  0.90392  Biso   1.000  C
  C28      1.0000 0.09400  0.13500  0.92618  Biso   1.000  C
  H13      1.0000 0.15600  0.14440  0.91760  Biso   1.000  H
  C29      1.0000 0.08220  0.12850  0.96128  Biso   1.000  C
  H14      1.0000 0.13610  0.13360  0.97620  Biso   1.000  H
  C30      1.0000 0.98960  0.11450  0.97414  Biso   1.000  C
  C31      1.0000 0.90890  0.10690  0.95188  Biso   1.000  C
  H15      1.0000 0.84700  0.09750  0.96050  Biso   1.000  H
  C32      1.0000 0.92080  0.11340  0.91677  Biso   1.000  C
  H16      1.0000 0.86680  0.10840  0.90190  Biso   1.000  H
  O3       1.0000 0.04670  0.12920  0.03040  Biso   1.000  O
  O4       1.0000 0.90940  0.09360  0.02430  Biso   1.000  O
  C33      1.0000 0.87520  0.05940  0.65520  Biso   1.000  C
  C34      1.0000 0.85500  0.07390  0.62220  Biso   1.000  C
  H17      1.0000 0.87510  0.10070  0.61590  Biso   1.000  H
  C35      1.0000 0.80480  0.04840  0.59880  Biso   1.000  C
  H18      1.0000 0.79130  0.05820  0.57670  Biso   1.000  H
  C36      1.0000 0.77480  0.00840  0.60830  Biso   1.000  C
  C37      1.0000 0.79490  0.99380  0.64120  Biso   1.000  C
  H19      1.0000 0.77490  0.96700  0.64760  Biso   1.000  H
  C38      1.0000 0.84510  0.01930  0.66470  Biso   1.000  C
  H20      1.0000 0.85860  0.00960  0.68680  Biso   1.000  H
  O5       1.0000 0.35980  0.87880  0.60740  Biso   1.000  O
  O6       1.0000 0.47980  0.92640  0.60270  Biso   1.000  O
  C39      1.0000 0.23310  0.99880  0.67880  Biso   1.000  C
  C40      1.0000 0.19190  0.96030  0.66980  Biso   1.000  C
  H21      1.0000 0.12780  0.95270  0.67780  Biso   1.000  H
  C41      1.0000 0.24650  0.93310  0.64890  Biso   1.000  C
  H22      1.0000 0.21890  0.90730  0.64290  Biso   1.000  H
  C42      1.0000 0.34220  0.94440  0.63700  Biso   1.000  C
  C43      1.0000 0.38340  0.98290  0.64600  Biso   1.000  C
  H23      1.0000 0.44750  0.99050  0.63800  Biso   1.000  H
  C44      1.0000 0.32880  0.01010  0.66690  Biso   1.000  C
  H24      1.0000 0.35640  0.03590  0.67290  Biso   1.000  H
  C45      1.0000 0.72170  0.98110  0.58280  Biso   1.000  C
  C46      1.0000 0.40140  0.91450  0.61250  Biso   1.000  C
  C47      1.0000 0.38510  0.32470  0.89690  Biso   1.000  C
  C48      1.0000 0.97330  0.11020  0.01140  Biso   1.000  C
  O7       1.0000 0.72310  0.99180  0.55170  Biso   1.000  O
  O8       1.0000 0.69770  0.94740  0.59310  Biso   1.000  O
  O9       1.0000 0.87400  0.18800  0.72320  Biso   1.000  O
  O10      1.0000 0.10720  0.21690  0.71800  Biso   1.000  O
  Ti1      1.0000 0.18330  0.26810  0.69710  Biso   1.000  Ti
  O11      1.0000 0.00000  0.29500  0.65500  Biso   1.000  O
  C49      1.0000 0.09030  0.29410  0.63800  Biso   1.000  C
  H25      1.0000 0.12100  0.26770  0.64560  Biso   1.000  H
  C50      1.0000 0.16460  0.32730  0.65110  Biso   1.000  C
  H26      1.0000 0.19780  0.31720  0.67150  Biso   1.000  H
  H27      1.0000 0.12810  0.35250  0.65640  Biso   1.000  H
  H28      1.0000 0.21460  0.33290  0.63370  Biso   1.000  H
  C51      1.0000 0.08410  0.28920  0.59880  Biso   1.000  C
  H29      1.0000 0.11290  0.26280  0.59230  Biso   1.000  H
  H30      1.0000 0.12120  0.31150  0.58800  Biso   1.000  H
  H31      1.0000 0.01420  0.29030  0.59170  Biso   1.000  H
  O12      1.0000 0.13550  0.26280  0.65000  Biso   1.000  O
  C52      1.0000 0.16450  0.22550  0.63640  Biso   1.000  C
  H32      1.0000 0.21690  0.21570  0.65240  Biso   1.000  H
  C53      1.0000 0.22220  0.23060  0.60250  Biso   1.000  C
  H33      1.0000 0.17760  0.24210  0.58540  Biso   1.000  H
  H34      1.0000 0.24650  0.20380  0.59490  Biso   1.000  H
  H35      1.0000 0.27910  0.24900  0.60590  Biso   1.000  H
  C54      1.0000 0.08460  0.19050  0.63730  Biso   1.000  C
  H36      1.0000 0.09560  0.17340  0.65720  Biso   1.000  H
  H37      1.0000 0.09060  0.17370  0.61690  Biso   1.000  H
  H38      1.0000 0.01790  0.20270  0.63820  Biso   1.000  H
  Zn3      1.0000 0.90127  0.90996  0.42564  Biso   1.000  Zn
  Zn4      1.0000 0.08418  0.84137  0.42783  Biso   1.000  Zn
  C55      1.0000 0.51210  0.63850  0.23130  Biso   1.000  C
  C56      1.0000 0.41930  0.64920  0.21660  Biso   1.000  C
  C57      1.0000 0.37620  0.62370  0.19160  Biso   1.000  C
  H39      1.0000 0.31410  0.63090  0.18180  Biso   1.000  H
  C58      1.0000 0.42590  0.58740  0.18130  Biso   1.000  C
  C59      1.0000 0.51870  0.57670  0.19600  Biso   1.000  C
  C60      1.0000 0.56180  0.60220  0.22100  Biso   1.000  C
  C61      1.0000 0.65640  0.59210  0.23480  Biso   1.000  C
  H40      1.0000 0.68280  0.60860  0.25240  Biso   1.000  H
  C62      1.0000 0.71370  0.55740  0.22300  Biso   1.000  C
  H41      1.0000 0.77680  0.55120  0.23250  Biso   1.000  H
  C63      1.0000 0.67180  0.53150  0.19550  Biso   1.000  C
  C64      1.0000 0.57580  0.54210  0.18330  Biso   1.000  C
  H42      1.0000 0.54750  0.52580  0.16600  Biso   1.000  H
  C65      1.0000 0.55160  0.66740  0.26165  Biso   1.000  C
  C66      1.0000 0.60380  0.70330  0.25183  Biso   1.000  C
  C67      1.0000 0.65070  0.72810  0.27653  Biso   1.000  C
  H43      1.0000 0.68570  0.75210  0.27000  Biso   1.000  H
  C68      1.0000 0.64540  0.71700  0.31105  Biso   1.000  C
  C69      1.0000 0.59320  0.68110  0.32086  Biso   1.000  C
  C70      1.0000 0.54630  0.65631  0.29617  Biso   1.000  C
  C71      1.0000 0.49380  0.62130  0.30750  Biso   1.000  C
  H44      1.0000 0.46440  0.60400  0.29110  Biso   1.000  H
  C72      1.0000 0.48280  0.61100  0.34040  Biso   1.000  C
  H45      1.0000 0.44630  0.58710  0.34620  Biso   1.000  H
  C73      1.0000 0.52610  0.63610  0.36680  Biso   1.000  C
  C74      1.0000 0.58190  0.67100  0.35620  Biso   1.000  C
  H46      1.0000 0.61250  0.68790  0.37270  Biso   1.000  H
  C75      1.0000 0.70590  0.74400  0.33514  Biso   1.000  C
  C76      1.0000 0.67710  0.78540  0.33999  Biso   1.000  C
  H47      1.0000 0.61940  0.79580  0.32910  Biso   1.000  H
  C77      1.0000 0.73470  0.81132  0.36110  Biso   1.000  C
  H48      1.0000 0.71540  0.83900  0.36430  Biso   1.000  H
  C78      1.0000 0.82100  0.79580  0.37734  Biso   1.000  C
  C79      1.0000 0.84980  0.75440  0.37249  Biso   1.000  C
  H49      1.0000 0.90750  0.74400  0.38340  Biso   1.000  H
  C80      1.0000 0.79230  0.72848  0.35140  Biso   1.000  C
  H50      1.0000 0.81150  0.70080  0.34810  Biso   1.000  H
  O13      1.0000 0.97550  0.81200  0.40580  Biso   1.000  O
  O14      1.0000 0.84670  0.85850  0.40580  Biso   1.000  O
  C81      1.0000 0.51340  0.62750  0.40392  Biso   1.000  C
  C82      1.0000 0.59400  0.63500  0.42618  Biso   1.000  C
  H51      1.0000 0.65600  0.64440  0.41760  Biso   1.000  H
  C83      1.0000 0.58220  0.62850  0.46128  Biso   1.000  C
  H52      1.0000 0.63610  0.63360  0.47620  Biso   1.000  H
  C84      1.0000 0.48960  0.61450  0.47414  Biso   1.000  C
  C85      1.0000 0.40890  0.60690  0.45188  Biso   1.000  C
  H53      1.0000 0.34700  0.59750  0.46050  Biso   1.000  H
  C86      1.0000 0.42080  0.61340  0.41677  Biso   1.000  C
  H54      1.0000 0.36680  0.60840  0.40190  Biso   1.000  H
  O15      1.0000 0.54670  0.62920  0.53040  Biso   1.000  O
  O16      1.0000 0.40940  0.59360  0.52430  Biso   1.000  O
  C87      1.0000 0.37520  0.55940  0.15520  Biso   1.000  C
  C88      1.0000 0.35500  0.57390  0.12220  Biso   1.000  C
  H55      1.0000 0.37510  0.60070  0.11590  Biso   1.000  H
  C89      1.0000 0.30480  0.54840  0.09880  Biso   1.000  C
  H56      1.0000 0.29130  0.55820  0.07670  Biso   1.000  H
  C90      1.0000 0.27480  0.50840  0.10830  Biso   1.000  C
  C91      1.0000 0.29490  0.49380  0.14120  Biso   1.000  C
  H57      1.0000 0.27490  0.46700  0.14760  Biso   1.000  H
  C92      1.0000 0.34510  0.51930  0.16470  Biso   1.000  C
  H58      1.0000 0.35860  0.50960  0.18680  Biso   1.000  H
  O17      1.0000 0.85980  0.37880  0.10740  Biso   1.000  O
  O18      1.0000 0.97980  0.42640  0.10270  Biso   1.000  O
  C93      1.0000 0.73310  0.49880  0.17880  Biso   1.000  C
  C94      1.0000 0.69190  0.46030  0.16980  Biso   1.000  C
  H59      1.0000 0.62780  0.45270  0.17780  Biso   1.000  H
  C95      1.0000 0.74650  0.43310  0.14890  Biso   1.000  C
  H60      1.0000 0.71890  0.40730  0.14290  Biso   1.000  H
  C96      1.0000 0.84220  0.44440  0.13700  Biso   1.000  C
  C97      1.0000 0.88340  0.48290  0.14600  Biso   1.000  C
  H61      1.0000 0.94750  0.49050  0.13800  Biso   1.000  H
  C98      1.0000 0.82880  0.51010  0.16690  Biso   1.000  C
  H62      1.0000 0.85640  0.53590  0.17290  Biso   1.000  H
  C99      1.0000 0.22170  0.48110  0.08280  Biso   1.000  C
  C100     1.0000 0.90140  0.41450  0.11250  Biso   1.000  C
  C101     1.0000 0.88510  0.82470  0.39690  Biso   1.000  C
  C102     1.0000 0.47330  0.61020  0.51140  Biso   1.000  C
  O19      1.0000 0.22310  0.49180  0.05170  Biso   1.000  O
  O20      1.0000 0.19770  0.44740  0.09310  Biso   1.000  O
  O21      1.0000 0.37400  0.68800  0.22320  Biso   1.000  O
  O22      1.0000 0.60720  0.71690  0.21800  Biso   1.000  O
  Ti2      1.0000 0.68330  0.76810  0.19710  Biso   1.000  Ti
  O23      1.0000 0.50000  0.79500  0.15500  Biso   1.000  O
  C103     1.0000 0.59030  0.79410  0.13800  Biso   1.000  C
  H63      1.0000 0.62100  0.76770  0.14560  Biso   1.000  H
  C104     1.0000 0.66460  0.82730  0.15110  Biso   1.000  C
  H64      1.0000 0.69780  0.81720  0.17150  Biso   1.000  H
  H65      1.0000 0.62810  0.85250  0.15640  Biso   1.000  H
  H66      1.0000 0.71460  0.83290  0.13370  Biso   1.000  H
  C105     1.0000 0.58410  0.78920  0.09880  Biso   1.000  C
  H67      1.0000 0.61290  0.76280  0.09230  Biso   1.000  H
  H68      1.0000 0.62120  0.81150  0.08800  Biso   1.000  H
  H69      1.0000 0.51420  0.79030  0.09170  Biso   1.000  H
  O24      1.0000 0.63550  0.76280  0.15000  Biso   1.000  O
  C106     1.0000 0.66450  0.72550  0.13640  Biso   1.000  C
  H70      1.0000 0.71690  0.71570  0.15240  Biso   1.000  H
  C107     1.0000 0.72220  0.73060  0.10250  Biso   1.000  C
  H71      1.0000 0.67760  0.74210  0.08540  Biso   1.000  H
  H72      1.0000 0.74650  0.70380  0.09490  Biso   1.000  H
  H73      1.0000 0.77910  0.74900  0.10590  Biso   1.000  H
  C108     1.0000 0.58460  0.69050  0.13730  Biso   1.000  C
  H74      1.0000 0.59560  0.67340  0.15720  Biso   1.000  H
  H75      1.0000 0.59060  0.67370  0.11690  Biso   1.000  H
  H76      1.0000 0.51790  0.70270  0.13820  Biso   1.000  H
  Zn5      1.0000 0.09873  0.59004  0.42564  Biso   1.000  Zn
  Zn6      1.0000 0.91582  0.65863  0.42783  Biso   1.000  Zn
  C109     1.0000 0.48790  0.86150  0.23130  Biso   1.000  C
  C110     1.0000 0.58070  0.85080  0.21660  Biso   1.000  C
  C111     1.0000 0.62380  0.87630  0.19160  Biso   1.000  C
  H77      1.0000 0.68590  0.86910  0.18180  Biso   1.000  H
  C112     1.0000 0.57410  0.91260  0.18130  Biso   1.000  C
  C113     1.0000 0.48130  0.92330  0.19600  Biso   1.000  C
  C114     1.0000 0.43820  0.89780  0.22100  Biso   1.000  C
  C115     1.0000 0.34360  0.90790  0.23480  Biso   1.000  C
  H78      1.0000 0.31720  0.89140  0.25240  Biso   1.000  H
  C116     1.0000 0.28630  0.94260  0.22300  Biso   1.000  C
  H79      1.0000 0.22320  0.94880  0.23250  Biso   1.000  H
  C117     1.0000 0.32820  0.96850  0.19550  Biso   1.000  C
  C118     1.0000 0.42420  0.95790  0.18330  Biso   1.000  C
  H80      1.0000 0.45250  0.97420  0.16600  Biso   1.000  H
  C119     1.0000 0.44840  0.83260  0.26165  Biso   1.000  C
  C120     1.0000 0.39620  0.79670  0.25183  Biso   1.000  C
  C121     1.0000 0.34930  0.77190  0.27653  Biso   1.000  C
  H81      1.0000 0.31430  0.74790  0.27000  Biso   1.000  H
  C122     1.0000 0.35460  0.78300  0.31105  Biso   1.000  C
  C123     1.0000 0.40680  0.81890  0.32086  Biso   1.000  C
  C124     1.0000 0.45370  0.84369  0.29617  Biso   1.000  C
  C125     1.0000 0.50620  0.87870  0.30750  Biso   1.000  C
  H82      1.0000 0.53560  0.89600  0.29110  Biso   1.000  H
  C126     1.0000 0.51720  0.88900  0.34040  Biso   1.000  C
  H83      1.0000 0.55370  0.91290  0.34620  Biso   1.000  H
  C127     1.0000 0.47390  0.86390  0.36680  Biso   1.000  C
  C128     1.0000 0.41810  0.82900  0.35620  Biso   1.000  C
  H84      1.0000 0.38750  0.81210  0.37270  Biso   1.000  H
  C129     1.0000 0.29410  0.75600  0.33514  Biso   1.000  C
  C130     1.0000 0.32290  0.71460  0.33999  Biso   1.000  C
  H85      1.0000 0.38060  0.70420  0.32910  Biso   1.000  H
  C131     1.0000 0.26530  0.68868  0.36110  Biso   1.000  C
  H86      1.0000 0.28460  0.66100  0.36430  Biso   1.000  H
  C132     1.0000 0.17900  0.70420  0.37734  Biso   1.000  C
  C133     1.0000 0.15020  0.74560  0.37249  Biso   1.000  C
  H87      1.0000 0.09250  0.75600  0.38340  Biso   1.000  H
  C134     1.0000 0.20770  0.77152  0.35140  Biso   1.000  C
  H88      1.0000 0.18850  0.79920  0.34810  Biso   1.000  H
  O25      1.0000 0.02450  0.68800  0.40580  Biso   1.000  O
  O26      1.0000 0.15330  0.64150  0.40580  Biso   1.000  O
  C135     1.0000 0.48660  0.87250  0.40392  Biso   1.000  C
  C136     1.0000 0.40600  0.86500  0.42618  Biso   1.000  C
  H89      1.0000 0.34400  0.85560  0.41760  Biso   1.000  H
  C137     1.0000 0.41780  0.87150  0.46128  Biso   1.000  C
  H90      1.0000 0.36390  0.86640  0.47620  Biso   1.000  H
  C138     1.0000 0.51040  0.88550  0.47414  Biso   1.000  C
  C139     1.0000 0.59110  0.89310  0.45188  Biso   1.000  C
  H91      1.0000 0.65300  0.90250  0.46050  Biso   1.000  H
  C140     1.0000 0.57920  0.88660  0.41677  Biso   1.000  C
  H92      1.0000 0.63320  0.89160  0.40190  Biso   1.000  H
  O27      1.0000 0.45330  0.87080  0.53040  Biso   1.000  O
  O28      1.0000 0.59060  0.90640  0.52430  Biso   1.000  O
  C141     1.0000 0.62480  0.94060  0.15520  Biso   1.000  C
  C142     1.0000 0.64500  0.92610  0.12220  Biso   1.000  C
  H93      1.0000 0.62490  0.89930  0.11590  Biso   1.000  H
  C143     1.0000 0.69520  0.95160  0.09880  Biso   1.000  C
  H94      1.0000 0.70870  0.94180  0.07670  Biso   1.000  H
  C144     1.0000 0.72520  0.99160  0.10830  Biso   1.000  C
  C145     1.0000 0.70510  0.00620  0.14120  Biso   1.000  C
  H95      1.0000 0.72510  0.03300  0.14760  Biso   1.000  H
  C146     1.0000 0.65490  0.98070  0.16470  Biso   1.000  C
  H96      1.0000 0.64140  0.99040  0.18680  Biso   1.000  H
  O29      1.0000 0.14020  0.12120  0.10740  Biso   1.000  O
  O30      1.0000 0.02020  0.07360  0.10270  Biso   1.000  O
  C147     1.0000 0.26690  0.00120  0.17880  Biso   1.000  C
  C148     1.0000 0.30810  0.03970  0.16980  Biso   1.000  C
  H97      1.0000 0.37220  0.04730  0.17780  Biso   1.000  H
  C149     1.0000 0.25350  0.06690  0.14890  Biso   1.000  C
  H98      1.0000 0.28110  0.09270  0.14290  Biso   1.000  H
  C150     1.0000 0.15780  0.05560  0.13700  Biso   1.000  C
  C151     1.0000 0.11660  0.01710  0.14600  Biso   1.000  C
  H99      1.0000 0.05250  0.00950  0.13800  Biso   1.000  H
  C152     1.0000 0.17120  0.98990  0.16690  Biso   1.000  C
  H100     1.0000 0.14360  0.96410  0.17290  Biso   1.000  H
  C153     1.0000 0.77830  0.01890  0.08280  Biso   1.000  C
  C154     1.0000 0.09860  0.08550  0.11250  Biso   1.000  C
  C155     1.0000 0.11490  0.67530  0.39690  Biso   1.000  C
  C156     1.0000 0.52670  0.88980  0.51140  Biso   1.000  C
  O31      1.0000 0.77690  0.00820  0.05170  Biso   1.000  O
  O32      1.0000 0.80230  0.05260  0.09310  Biso   1.000  O
  O33      1.0000 0.62600  0.81200  0.22320  Biso   1.000  O
  O34      1.0000 0.39280  0.78310  0.21800  Biso   1.000  O
  Ti3      1.0000 0.31670  0.73190  0.19710  Biso   1.000  Ti
  O35      1.0000 0.50000  0.70500  0.15500  Biso   1.000  O
  C157     1.0000 0.40970  0.70590  0.13800  Biso   1.000  C
  H101     1.0000 0.37900  0.73230  0.14560  Biso   1.000  H
  C158     1.0000 0.33540  0.67270  0.15110  Biso   1.000  C
  H102     1.0000 0.30220  0.68280  0.17150  Biso   1.000  H
  H103     1.0000 0.37190  0.64750  0.15640  Biso   1.000  H
  H104     1.0000 0.28540  0.66710  0.13370  Biso   1.000  H
  C159     1.0000 0.41590  0.71080  0.09880  Biso   1.000  C
  H105     1.0000 0.38710  0.73720  0.09230  Biso   1.000  H
  H106     1.0000 0.37880  0.68850  0.08800  Biso   1.000  H
  H107     1.0000 0.48580  0.70970  0.09170  Biso   1.000  H
  O36      1.0000 0.36450  0.73720  0.15000  Biso   1.000  O
  C160     1.0000 0.33550  0.77450  0.13640  Biso   1.000  C
  H108     1.0000 0.28310  0.78430  0.15240  Biso   1.000  H
  C161     1.0000 0.27780  0.76940  0.10250  Biso   1.000  C
  H109     1.0000 0.32240  0.75790  0.08540  Biso   1.000  H
  H110     1.0000 0.25350  0.79620  0.09490  Biso   1.000  H
  H111     1.0000 0.22090  0.75100  0.10590  Biso   1.000  H
  C162     1.0000 0.41540  0.80950  0.13730  Biso   1.000  C
  H112     1.0000 0.40440  0.82660  0.15720  Biso   1.000  H
  H113     1.0000 0.40940  0.82630  0.11690  Biso   1.000  H
  H114     1.0000 0.48210  0.79730  0.13820  Biso   1.000  H
  Zn7      1.0000 0.59873  0.09004  0.92564  Biso   1.000  Zn
  Zn8      1.0000 0.41582  0.15863  0.92783  Biso   1.000  Zn
  C163     1.0000 0.98790  0.36150  0.73130  Biso   1.000  C
  C164     1.0000 0.08070  0.35080  0.71660  Biso   1.000  C
  C165     1.0000 0.12380  0.37630  0.69160  Biso   1.000  C
  H115     1.0000 0.18590  0.36910  0.68180  Biso   1.000  H
  C166     1.0000 0.07410  0.41260  0.68130  Biso   1.000  C
  C167     1.0000 0.98130  0.42330  0.69600  Biso   1.000  C
  C168     1.0000 0.93820  0.39780  0.72100  Biso   1.000  C
  C169     1.0000 0.84360  0.40790  0.73480  Biso   1.000  C
  H116     1.0000 0.81720  0.39140  0.75240  Biso   1.000  H
  C170     1.0000 0.78630  0.44260  0.72300  Biso   1.000  C
  H117     1.0000 0.72320  0.44880  0.73250  Biso   1.000  H
  C171     1.0000 0.82820  0.46850  0.69550  Biso   1.000  C
  C172     1.0000 0.92420  0.45790  0.68330  Biso   1.000  C
  H118     1.0000 0.95250  0.47420  0.66600  Biso   1.000  H
  C173     1.0000 0.94840  0.33260  0.76165  Biso   1.000  C
  C174     1.0000 0.89620  0.29670  0.75183  Biso   1.000  C
  C175     1.0000 0.84930  0.27190  0.77653  Biso   1.000  C
  H119     1.0000 0.81430  0.24790  0.77000  Biso   1.000  H
  C176     1.0000 0.85460  0.28300  0.81105  Biso   1.000  C
  C177     1.0000 0.90680  0.31890  0.82086  Biso   1.000  C
  C178     1.0000 0.95370  0.34369  0.79617  Biso   1.000  C
  C179     1.0000 0.00620  0.37870  0.80750  Biso   1.000  C
  H120     1.0000 0.03560  0.39600  0.79110  Biso   1.000  H
  C180     1.0000 0.01720  0.38900  0.84040  Biso   1.000  C
  H121     1.0000 0.05370  0.41290  0.84620  Biso   1.000  H
  C181     1.0000 0.97390  0.36390  0.86680  Biso   1.000  C
  C182     1.0000 0.91810  0.32900  0.85620  Biso   1.000  C
  H122     1.0000 0.88750  0.31210  0.87270  Biso   1.000  H
  C183     1.0000 0.79410  0.25600  0.83514  Biso   1.000  C
  C184     1.0000 0.82290  0.21460  0.83999  Biso   1.000  C
  H123     1.0000 0.88060  0.20420  0.82910  Biso   1.000  H
  C185     1.0000 0.76530  0.18868  0.86110  Biso   1.000  C
  H124     1.0000 0.78460  0.16100  0.86430  Biso   1.000  H
  C186     1.0000 0.67900  0.20420  0.87734  Biso   1.000  C
  C187     1.0000 0.65020  0.24560  0.87249  Biso   1.000  C
  H125     1.0000 0.59250  0.25600  0.88340  Biso   1.000  H
  C188     1.0000 0.70770  0.27152  0.85140  Biso   1.000  C
  H126     1.0000 0.68850  0.29920  0.84810  Biso   1.000  H
  O37      1.0000 0.52450  0.18800  0.90580  Biso   1.000  O
  O38      1.0000 0.65330  0.14150  0.90580  Biso   1.000  O
  C189     1.0000 0.98660  0.37250  0.90392  Biso   1.000  C
  C190     1.0000 0.90600  0.36500  0.92618  Biso   1.000  C
  H127     1.0000 0.84400  0.35560  0.91760  Biso   1.000  H
  C191     1.0000 0.91780  0.37150  0.96128  Biso   1.000  C
  H128     1.0000 0.86390  0.36640  0.97620  Biso   1.000  H
  C192     1.0000 0.01040  0.38550  0.97414  Biso   1.000  C
  C193     1.0000 0.09110  0.39310  0.95188  Biso   1.000  C
  H129     1.0000 0.15300  0.40250  0.96050  Biso   1.000  H
  C194     1.0000 0.07920  0.38660  0.91677  Biso   1.000  C
  H130     1.0000 0.13320  0.39160  0.90190  Biso   1.000  H
  O39      1.0000 0.95330  0.37080  0.03040  Biso   1.000  O
  O40      1.0000 0.09060  0.40640  0.02430  Biso   1.000  O
  C195     1.0000 0.12480  0.44060  0.65520  Biso   1.000  C
  C196     1.0000 0.14500  0.42610  0.62220  Biso   1.000  C
  H131     1.0000 0.12490  0.39930  0.61590  Biso   1.000  H
  C197     1.0000 0.19520  0.45160  0.59880  Biso   1.000  C
  H132     1.0000 0.20870  0.44180  0.57670  Biso   1.000  H
  C198     1.0000 0.22520  0.49160  0.60830  Biso   1.000  C
  C199     1.0000 0.20510  0.50620  0.64120  Biso   1.000  C
  H133     1.0000 0.22510  0.53300  0.64760  Biso   1.000  H
  C200     1.0000 0.15490  0.48070  0.66470  Biso   1.000  C
  H134     1.0000 0.14140  0.49040  0.68680  Biso   1.000  H
  O41      1.0000 0.64020  0.62120  0.60740  Biso   1.000  O
  O42      1.0000 0.52020  0.57360  0.60270  Biso   1.000  O
  C201     1.0000 0.76690  0.50120  0.67880  Biso   1.000  C
  C202     1.0000 0.80810  0.53970  0.66980  Biso   1.000  C
  H135     1.0000 0.87220  0.54730  0.67780  Biso   1.000  H
  C203     1.0000 0.75350  0.56690  0.64890  Biso   1.000  C
  H136     1.0000 0.78110  0.59270  0.64290  Biso   1.000  H
  C204     1.0000 0.65780  0.55560  0.63700  Biso   1.000  C
  C205     1.0000 0.61660  0.51710  0.64600  Biso   1.000  C
  H137     1.0000 0.55250  0.50950  0.63800  Biso   1.000  H
  C206     1.0000 0.67120  0.48990  0.66690  Biso   1.000  C
  H138     1.0000 0.64360  0.46410  0.67290  Biso   1.000  H
  C207     1.0000 0.27830  0.51890  0.58280  Biso   1.000  C
  C208     1.0000 0.59860  0.58550  0.61250  Biso   1.000  C
  C209     1.0000 0.61490  0.17530  0.89690  Biso   1.000  C
  C210     1.0000 0.02670  0.38980  0.01140  Biso   1.000  C
  O43      1.0000 0.27690  0.50820  0.55170  Biso   1.000  O
  O44      1.0000 0.30230  0.55260  0.59310  Biso   1.000  O
  O45      1.0000 0.12600  0.31200  0.72320  Biso   1.000  O
  O46      1.0000 0.89280  0.28310  0.71800  Biso   1.000  O
  Ti4      1.0000 0.81670  0.23190  0.69710  Biso   1.000  Ti
  O47      1.0000 0.00000  0.20500  0.65500  Biso   1.000  O
  C211     1.0000 0.90970  0.20590  0.63800  Biso   1.000  C
  H139     1.0000 0.87900  0.23230  0.64560  Biso   1.000  H
  C212     1.0000 0.83540  0.17270  0.65110  Biso   1.000  C
  H140     1.0000 0.80220  0.18280  0.67150  Biso   1.000  H
  H141     1.0000 0.87190  0.14750  0.65640  Biso   1.000  H
  H142     1.0000 0.78540  0.16710  0.63370  Biso   1.000  H
  C213     1.0000 0.91590  0.21080  0.59880  Biso   1.000  C
  H143     1.0000 0.88710  0.23720  0.59230  Biso   1.000  H
  H144     1.0000 0.87880  0.18850  0.58800  Biso   1.000  H
  H145     1.0000 0.98580  0.20970  0.59170  Biso   1.000  H
  O48      1.0000 0.86450  0.23720  0.65000  Biso   1.000  O
  C214     1.0000 0.83550  0.27450  0.63640  Biso   1.000  C
  H146     1.0000 0.78310  0.28430  0.65240  Biso   1.000  H
  C215     1.0000 0.77780  0.26940  0.60250  Biso   1.000  C
  H147     1.0000 0.82240  0.25790  0.58540  Biso   1.000  H
  H148     1.0000 0.75350  0.29620  0.59490  Biso   1.000  H
  H149     1.0000 0.72090  0.25100  0.60590  Biso   1.000  H
  C216     1.0000 0.91540  0.30950  0.63730  Biso   1.000  C
  H150     1.0000 0.90440  0.32660  0.65720  Biso   1.000  H
  H151     1.0000 0.90940  0.32630  0.61690  Biso   1.000  H
  H152     1.0000 0.98210  0.29730  0.63820  Biso   1.000  H
  Zn9      1.0000 0.59873  0.90996  0.57436  Biso   1.000  Zn
  Zn10     1.0000 0.41582  0.84137  0.57217  Biso   1.000  Zn
  C217     1.0000 0.98790  0.63850  0.76870  Biso   1.000  C
  C218     1.0000 0.08070  0.64920  0.78340  Biso   1.000  C
  C219     1.0000 0.12380  0.62370  0.80840  Biso   1.000  C
  H153     1.0000 0.18590  0.63090  0.81820  Biso   1.000  H
  C220     1.0000 0.07410  0.58740  0.81870  Biso   1.000  C
  C221     1.0000 0.98130  0.57670  0.80400  Biso   1.000  C
  C222     1.0000 0.93820  0.60220  0.77900  Biso   1.000  C
  C223     1.0000 0.84360  0.59210  0.76520  Biso   1.000  C
  H154     1.0000 0.81720  0.60860  0.74760  Biso   1.000  H
  C224     1.0000 0.78630  0.55740  0.77700  Biso   1.000  C
  H155     1.0000 0.72320  0.55120  0.76750  Biso   1.000  H
  C225     1.0000 0.82820  0.53150  0.80450  Biso   1.000  C
  C226     1.0000 0.92420  0.54210  0.81670  Biso   1.000  C
  H156     1.0000 0.95250  0.52580  0.83400  Biso   1.000  H
  C227     1.0000 0.94840  0.66740  0.73835  Biso   1.000  C
  C228     1.0000 0.89620  0.70330  0.74817  Biso   1.000  C
  C229     1.0000 0.84930  0.72810  0.72347  Biso   1.000  C
  H157     1.0000 0.81430  0.75210  0.73000  Biso   1.000  H
  C230     1.0000 0.85460  0.71700  0.68895  Biso   1.000  C
  C231     1.0000 0.90680  0.68110  0.67914  Biso   1.000  C
  C232     1.0000 0.95370  0.65631  0.70383  Biso   1.000  C
  C233     1.0000 0.00620  0.62130  0.69250  Biso   1.000  C
  H158     1.0000 0.03560  0.60400  0.70890  Biso   1.000  H
  C234     1.0000 0.01720  0.61100  0.65960  Biso   1.000  C
  H159     1.0000 0.05370  0.58710  0.65380  Biso   1.000  H
  C235     1.0000 0.97390  0.63610  0.63320  Biso   1.000  C
  C236     1.0000 0.91810  0.67100  0.64380  Biso   1.000  C
  H160     1.0000 0.88750  0.68790  0.62730  Biso   1.000  H
  C237     1.0000 0.79410  0.74400  0.66486  Biso   1.000  C
  C238     1.0000 0.82290  0.78540  0.66001  Biso   1.000  C
  H161     1.0000 0.88060  0.79580  0.67090  Biso   1.000  H
  C239     1.0000 0.76530  0.81132  0.63890  Biso   1.000  C
  H162     1.0000 0.78460  0.83900  0.63570  Biso   1.000  H
  C240     1.0000 0.67900  0.79580  0.62266  Biso   1.000  C
  C241     1.0000 0.65020  0.75440  0.62751  Biso   1.000  C
  H163     1.0000 0.59250  0.74400  0.61660  Biso   1.000  H
  C242     1.0000 0.70770  0.72848  0.64860  Biso   1.000  C
  H164     1.0000 0.68850  0.70080  0.65190  Biso   1.000  H
  O49      1.0000 0.52450  0.81200  0.59420  Biso   1.000  O
  O50      1.0000 0.65330  0.85850  0.59420  Biso   1.000  O
  C243     1.0000 0.98660  0.62750  0.59608  Biso   1.000  C
  C244     1.0000 0.90600  0.63500  0.57382  Biso   1.000  C
  H165     1.0000 0.84400  0.64440  0.58240  Biso   1.000  H
  C245     1.0000 0.91780  0.62850  0.53872  Biso   1.000  C
  H166     1.0000 0.86390  0.63360  0.52380  Biso   1.000  H
  C246     1.0000 0.01040  0.61450  0.52586  Biso   1.000  C
  C247     1.0000 0.09110  0.60690  0.54812  Biso   1.000  C
  H167     1.0000 0.15300  0.59750  0.53950  Biso   1.000  H
  C248     1.0000 0.07920  0.61340  0.58323  Biso   1.000  C
  H168     1.0000 0.13320  0.60840  0.59810  Biso   1.000  H
  O51      1.0000 0.95330  0.62920  0.46960  Biso   1.000  O
  O52      1.0000 0.09060  0.59360  0.47570  Biso   1.000  O
  C249     1.0000 0.12480  0.55940  0.84480  Biso   1.000  C
  C250     1.0000 0.14500  0.57390  0.87780  Biso   1.000  C
  H169     1.0000 0.12490  0.60070  0.88410  Biso   1.000  H
  C251     1.0000 0.19520  0.54840  0.90120  Biso   1.000  C
  H170     1.0000 0.20870  0.55820  0.92330  Biso   1.000  H
  C252     1.0000 0.22520  0.50840  0.89170  Biso   1.000  C
  C253     1.0000 0.20510  0.49380  0.85880  Biso   1.000  C
  H171     1.0000 0.22510  0.46700  0.85240  Biso   1.000  H
  C254     1.0000 0.15490  0.51930  0.83530  Biso   1.000  C
  H172     1.0000 0.14140  0.50960  0.81320  Biso   1.000  H
  O53      1.0000 0.64020  0.37880  0.89260  Biso   1.000  O
  O54      1.0000 0.52020  0.42640  0.89730  Biso   1.000  O
  C255     1.0000 0.76690  0.49880  0.82120  Biso   1.000  C
  C256     1.0000 0.80810  0.46030  0.83020  Biso   1.000  C
  H173     1.0000 0.87220  0.45270  0.82220  Biso   1.000  H
  C257     1.0000 0.75350  0.43310  0.85110  Biso   1.000  C
  H174     1.0000 0.78110  0.40730  0.85710  Biso   1.000  H
  C258     1.0000 0.65780  0.44440  0.86300  Biso   1.000  C
  C259     1.0000 0.61660  0.48290  0.85400  Biso   1.000  C
  H175     1.0000 0.55250  0.49050  0.86200  Biso   1.000  H
  C260     1.0000 0.67120  0.51010  0.83310  Biso   1.000  C
  H176     1.0000 0.64360  0.53590  0.82710  Biso   1.000  H
  C261     1.0000 0.27830  0.48110  0.91720  Biso   1.000  C
  C262     1.0000 0.59860  0.41450  0.88750  Biso   1.000  C
  C263     1.0000 0.61490  0.82470  0.60310  Biso   1.000  C
  C264     1.0000 0.02670  0.61020  0.48860  Biso   1.000  C
  O55      1.0000 0.27690  0.49180  0.94830  Biso   1.000  O
  O56      1.0000 0.30230  0.44740  0.90690  Biso   1.000  O
  O57      1.0000 0.12600  0.68800  0.77680  Biso   1.000  O
  O58      1.0000 0.89280  0.71690  0.78200  Biso   1.000  O
  Ti5      1.0000 0.81670  0.76810  0.80290  Biso   1.000  Ti
  O59      1.0000 0.00000  0.79500  0.84500  Biso   1.000  O
  C265     1.0000 0.90970  0.79410  0.86200  Biso   1.000  C
  H177     1.0000 0.87900  0.76770  0.85440  Biso   1.000  H
  C266     1.0000 0.83540  0.82730  0.84890  Biso   1.000  C
  H178     1.0000 0.80220  0.81720  0.82850  Biso   1.000  H
  H179     1.0000 0.87190  0.85250  0.84360  Biso   1.000  H
  H180     1.0000 0.78540  0.83290  0.86630  Biso   1.000  H
  C267     1.0000 0.91590  0.78920  0.90120  Biso   1.000  C
  H181     1.0000 0.88710  0.76280  0.90770  Biso   1.000  H
  H182     1.0000 0.87880  0.81150  0.91200  Biso   1.000  H
  H183     1.0000 0.98580  0.79030  0.90830  Biso   1.000  H
  O60      1.0000 0.86450  0.76280  0.85000  Biso   1.000  O
  C268     1.0000 0.83550  0.72550  0.86360  Biso   1.000  C
  H184     1.0000 0.78310  0.71570  0.84760  Biso   1.000  H
  C269     1.0000 0.77780  0.73060  0.89750  Biso   1.000  C
  H185     1.0000 0.82240  0.74210  0.91460  Biso   1.000  H
  H186     1.0000 0.75350  0.70380  0.90510  Biso   1.000  H
  H187     1.0000 0.72090  0.74900  0.89410  Biso   1.000  H
  C270     1.0000 0.91540  0.69050  0.86270  Biso   1.000  C
  H188     1.0000 0.90440  0.67340  0.84280  Biso   1.000  H
  H189     1.0000 0.90940  0.67370  0.88310  Biso   1.000  H
  H190     1.0000 0.98210  0.70270  0.86180  Biso   1.000  H
  Zn11     1.0000 0.09873  0.40996  0.07436  Biso   1.000  Zn
  Zn12     1.0000 0.91582  0.34137  0.07217  Biso   1.000  Zn
  C271     1.0000 0.48790  0.13850  0.26870  Biso   1.000  C
  C272     1.0000 0.58070  0.14920  0.28340  Biso   1.000  C
  C273     1.0000 0.62380  0.12370  0.30840  Biso   1.000  C
  H191     1.0000 0.68590  0.13090  0.31820  Biso   1.000  H
  C274     1.0000 0.57410  0.08740  0.31870  Biso   1.000  C
  C275     1.0000 0.48130  0.07670  0.30400  Biso   1.000  C
  C276     1.0000 0.43820  0.10220  0.27900  Biso   1.000  C
  C277     1.0000 0.34360  0.09210  0.26520  Biso   1.000  C
  H192     1.0000 0.31720  0.10860  0.24760  Biso   1.000  H
  C278     1.0000 0.28630  0.05740  0.27700  Biso   1.000  C
  H193     1.0000 0.22320  0.05120  0.26750  Biso   1.000  H
  C279     1.0000 0.32820  0.03150  0.30450  Biso   1.000  C
  C280     1.0000 0.42420  0.04210  0.31670  Biso   1.000  C
  H194     1.0000 0.45250  0.02580  0.33400  Biso   1.000  H
  C281     1.0000 0.44840  0.16740  0.23835  Biso   1.000  C
  C282     1.0000 0.39620  0.20330  0.24817  Biso   1.000  C
  C283     1.0000 0.34930  0.22810  0.22347  Biso   1.000  C
  H195     1.0000 0.31430  0.25210  0.23000  Biso   1.000  H
  C284     1.0000 0.35460  0.21700  0.18895  Biso   1.000  C
  C285     1.0000 0.40680  0.18110  0.17914  Biso   1.000  C
  C286     1.0000 0.45370  0.15631  0.20383  Biso   1.000  C
  C287     1.0000 0.50620  0.12130  0.19250  Biso   1.000  C
  H196     1.0000 0.53560  0.10400  0.20890  Biso   1.000  H
  C288     1.0000 0.51720  0.11100  0.15960  Biso   1.000  C
  H197     1.0000 0.55370  0.08710  0.15380  Biso   1.000  H
  C289     1.0000 0.47390  0.13610  0.13320  Biso   1.000  C
  C290     1.0000 0.41810  0.17100  0.14380  Biso   1.000  C
  H198     1.0000 0.38750  0.18790  0.12730  Biso   1.000  H
  C291     1.0000 0.29410  0.24400  0.16486  Biso   1.000  C
  C292     1.0000 0.32290  0.28540  0.16001  Biso   1.000  C
  H199     1.0000 0.38060  0.29580  0.17090  Biso   1.000  H
  C293     1.0000 0.26530  0.31132  0.13890  Biso   1.000  C
  H200     1.0000 0.28460  0.33900  0.13570  Biso   1.000  H
  C294     1.0000 0.17900  0.29580  0.12266  Biso   1.000  C
  C295     1.0000 0.15020  0.25440  0.12751  Biso   1.000  C
  H201     1.0000 0.09250  0.24400  0.11660  Biso   1.000  H
  C296     1.0000 0.20770  0.22848  0.14860  Biso   1.000  C
  H202     1.0000 0.18850  0.20080  0.15190  Biso   1.000  H
  O61      1.0000 0.02450  0.31200  0.09420  Biso   1.000  O
  O62      1.0000 0.15330  0.35850  0.09420  Biso   1.000  O
  C297     1.0000 0.48660  0.12750  0.09608  Biso   1.000  C
  C298     1.0000 0.40600  0.13500  0.07382  Biso   1.000  C
  H203     1.0000 0.34400  0.14440  0.08240  Biso   1.000  H
  C299     1.0000 0.41780  0.12850  0.03872  Biso   1.000  C
  H204     1.0000 0.36390  0.13360  0.02380  Biso   1.000  H
  C300     1.0000 0.51040  0.11450  0.02586  Biso   1.000  C
  C301     1.0000 0.59110  0.10690  0.04812  Biso   1.000  C
  H205     1.0000 0.65300  0.09750  0.03950  Biso   1.000  H
  C302     1.0000 0.57920  0.11340  0.08323  Biso   1.000  C
  H206     1.0000 0.63320  0.10840  0.09810  Biso   1.000  H
  O63      1.0000 0.45330  0.12920  0.96960  Biso   1.000  O
  O64      1.0000 0.59060  0.09360  0.97570  Biso   1.000  O
  C303     1.0000 0.62480  0.05940  0.34480  Biso   1.000  C
  C304     1.0000 0.64500  0.07390  0.37780  Biso   1.000  C
  H207     1.0000 0.62490  0.10070  0.38410  Biso   1.000  H
  C305     1.0000 0.69520  0.04840  0.40120  Biso   1.000  C
  H208     1.0000 0.70870  0.05820  0.42330  Biso   1.000  H
  C306     1.0000 0.72520  0.00840  0.39170  Biso   1.000  C
  C307     1.0000 0.70510  0.99380  0.35880  Biso   1.000  C
  H209     1.0000 0.72510  0.96700  0.35240  Biso   1.000  H
  C308     1.0000 0.65490  0.01930  0.33530  Biso   1.000  C
  H210     1.0000 0.64140  0.00960  0.31320  Biso   1.000  H
  O65      1.0000 0.14020  0.87880  0.39260  Biso   1.000  O
  O66      1.0000 0.02020  0.92640  0.39730  Biso   1.000  O
  C309     1.0000 0.26690  0.99880  0.32120  Biso   1.000  C
  C310     1.0000 0.30810  0.96030  0.33020  Biso   1.000  C
  H211     1.0000 0.37220  0.95270  0.32220  Biso   1.000  H
  C311     1.0000 0.25350  0.93310  0.35110  Biso   1.000  C
  H212     1.0000 0.28110  0.90730  0.35710  Biso   1.000  H
  C312     1.0000 0.15780  0.94440  0.36300  Biso   1.000  C
  C313     1.0000 0.11660  0.98290  0.35400  Biso   1.000  C
  H213     1.0000 0.05250  0.99050  0.36200  Biso   1.000  H
  C314     1.0000 0.17120  0.01010  0.33310  Biso   1.000  C
  H214     1.0000 0.14360  0.03590  0.32710  Biso   1.000  H
  C315     1.0000 0.77830  0.98110  0.41720  Biso   1.000  C
  C316     1.0000 0.09860  0.91450  0.38750  Biso   1.000  C
  C317     1.0000 0.11490  0.32470  0.10310  Biso   1.000  C
  C318     1.0000 0.52670  0.11020  0.98860  Biso   1.000  C
  O67      1.0000 0.77690  0.99180  0.44830  Biso   1.000  O
  O68      1.0000 0.80230  0.94740  0.40690  Biso   1.000  O
  O69      1.0000 0.62600  0.18800  0.27680  Biso   1.000  O
  O70      1.0000 0.39280  0.21690  0.28200  Biso   1.000  O
  Ti6      1.0000 0.31670  0.26810  0.30290  Biso   1.000  Ti
  O71      1.0000 0.50000  0.29500  0.34500  Biso   1.000  O
  C319     1.0000 0.40970  0.29410  0.36200  Biso   1.000  C
  H215     1.0000 0.37900  0.26770  0.35440  Biso   1.000  H
  C320     1.0000 0.33540  0.32730  0.34890  Biso   1.000  C
  H216     1.0000 0.30220  0.31720  0.32850  Biso   1.000  H
  H217     1.0000 0.37190  0.35250  0.34360  Biso   1.000  H
  H218     1.0000 0.28540  0.33290  0.36630  Biso   1.000  H
  C321     1.0000 0.41590  0.28920  0.40120  Biso   1.000  C
  H219     1.0000 0.38710  0.26280  0.40770  Biso   1.000  H
  H220     1.0000 0.37880  0.31150  0.41200  Biso   1.000  H
  H221     1.0000 0.48580  0.29030  0.40830  Biso   1.000  H
  O72      1.0000 0.36450  0.26280  0.35000  Biso   1.000  O
  C322     1.0000 0.33550  0.22550  0.36360  Biso   1.000  C
  H222     1.0000 0.28310  0.21570  0.34760  Biso   1.000  H
  C323     1.0000 0.27780  0.23060  0.39750  Biso   1.000  C
  H223     1.0000 0.32240  0.24210  0.41460  Biso   1.000  H
  H224     1.0000 0.25350  0.20380  0.40510  Biso   1.000  H
  H225     1.0000 0.22090  0.24900  0.39410  Biso   1.000  H
  C324     1.0000 0.41540  0.19050  0.36270  Biso   1.000  C
  H226     1.0000 0.40440  0.17340  0.34280  Biso   1.000  H
  H227     1.0000 0.40940  0.17370  0.38310  Biso   1.000  H
  H228     1.0000 0.48210  0.20270  0.36180  Biso   1.000  H
  Zn13     1.0000 0.90127  0.09004  0.07436  Biso   1.000  Zn
  Zn14     1.0000 0.08418  0.15863  0.07217  Biso   1.000  Zn
  C325     1.0000 0.51210  0.36150  0.26870  Biso   1.000  C
  C326     1.0000 0.41930  0.35080  0.28340  Biso   1.000  C
  C327     1.0000 0.37620  0.37630  0.30840  Biso   1.000  C
  H229     1.0000 0.31410  0.36910  0.31820  Biso   1.000  H
  C328     1.0000 0.42590  0.41260  0.31870  Biso   1.000  C
  C329     1.0000 0.51870  0.42330  0.30400  Biso   1.000  C
  C330     1.0000 0.56180  0.39780  0.27900  Biso   1.000  C
  C331     1.0000 0.65640  0.40790  0.26520  Biso   1.000  C
  H230     1.0000 0.68280  0.39140  0.24760  Biso   1.000  H
  C332     1.0000 0.71370  0.44260  0.27700  Biso   1.000  C
  H231     1.0000 0.77680  0.44880  0.26750  Biso   1.000  H
  C333     1.0000 0.67180  0.46850  0.30450  Biso   1.000  C
  C334     1.0000 0.57580  0.45790  0.31670  Biso   1.000  C
  H232     1.0000 0.54750  0.47420  0.33400  Biso   1.000  H
  C335     1.0000 0.55160  0.33260  0.23835  Biso   1.000  C
  C336     1.0000 0.60380  0.29670  0.24817  Biso   1.000  C
  C337     1.0000 0.65070  0.27190  0.22347  Biso   1.000  C
  H233     1.0000 0.68570  0.24790  0.23000  Biso   1.000  H
  C338     1.0000 0.64540  0.28300  0.18895  Biso   1.000  C
  C339     1.0000 0.59320  0.31890  0.17914  Biso   1.000  C
  C340     1.0000 0.54630  0.34369  0.20383  Biso   1.000  C
  C341     1.0000 0.49380  0.37870  0.19250  Biso   1.000  C
  H234     1.0000 0.46440  0.39600  0.20890  Biso   1.000  H
  C342     1.0000 0.48280  0.38900  0.15960  Biso   1.000  C
  H235     1.0000 0.44630  0.41290  0.15380  Biso   1.000  H
  C343     1.0000 0.52610  0.36390  0.13320  Biso   1.000  C
  C344     1.0000 0.58190  0.32900  0.14380  Biso   1.000  C
  H236     1.0000 0.61250  0.31210  0.12730  Biso   1.000  H
  C345     1.0000 0.70590  0.25600  0.16486  Biso   1.000  C
  C346     1.0000 0.67710  0.21460  0.16001  Biso   1.000  C
  H237     1.0000 0.61940  0.20420  0.17090  Biso   1.000  H
  C347     1.0000 0.73470  0.18868  0.13890  Biso   1.000  C
  H238     1.0000 0.71540  0.16100  0.13570  Biso   1.000  H
  C348     1.0000 0.82100  0.20420  0.12266  Biso   1.000  C
  C349     1.0000 0.84980  0.24560  0.12751  Biso   1.000  C
  H239     1.0000 0.90750  0.25600  0.11660  Biso   1.000  H
  C350     1.0000 0.79230  0.27152  0.14860  Biso   1.000  C
  H240     1.0000 0.81150  0.29920  0.15190  Biso   1.000  H
  O73      1.0000 0.97550  0.18800  0.09420  Biso   1.000  O
  O74      1.0000 0.84670  0.14150  0.09420  Biso   1.000  O
  C351     1.0000 0.51340  0.37250  0.09608  Biso   1.000  C
  C352     1.0000 0.59400  0.36500  0.07382  Biso   1.000  C
  H241     1.0000 0.65600  0.35560  0.08240  Biso   1.000  H
  C353     1.0000 0.58220  0.37150  0.03872  Biso   1.000  C
  H242     1.0000 0.63610  0.36640  0.02380  Biso   1.000  H
  C354     1.0000 0.48960  0.38550  0.02586  Biso   1.000  C
  C355     1.0000 0.40890  0.39310  0.04812  Biso   1.000  C
  H243     1.0000 0.34700  0.40250  0.03950  Biso   1.000  H
  C356     1.0000 0.42080  0.38660  0.08323  Biso   1.000  C
  H244     1.0000 0.36680  0.39160  0.09810  Biso   1.000  H
  O75      1.0000 0.54670  0.37080  0.96960  Biso   1.000  O
  O76      1.0000 0.40940  0.40640  0.97570  Biso   1.000  O
  C357     1.0000 0.37520  0.44060  0.34480  Biso   1.000  C
  C358     1.0000 0.35500  0.42610  0.37780  Biso   1.000  C
  H245     1.0000 0.37510  0.39930  0.38410  Biso   1.000  H
  C359     1.0000 0.30480  0.45160  0.40120  Biso   1.000  C
  H246     1.0000 0.29130  0.44180  0.42330  Biso   1.000  H
  C360     1.0000 0.27480  0.49160  0.39170  Biso   1.000  C
  C361     1.0000 0.29490  0.50620  0.35880  Biso   1.000  C
  H247     1.0000 0.27490  0.53300  0.35240  Biso   1.000  H
  C362     1.0000 0.34510  0.48070  0.33530  Biso   1.000  C
  H248     1.0000 0.35860  0.49040  0.31320  Biso   1.000  H
  O77      1.0000 0.85980  0.62120  0.39260  Biso   1.000  O
  O78      1.0000 0.97980  0.57360  0.39730  Biso   1.000  O
  C363     1.0000 0.73310  0.50120  0.32120  Biso   1.000  C
  C364     1.0000 0.69190  0.53970  0.33020  Biso   1.000  C
  H249     1.0000 0.62780  0.54730  0.32220  Biso   1.000  H
  C365     1.0000 0.74650  0.56690  0.35110  Biso   1.000  C
  H250     1.0000 0.71890  0.59270  0.35710  Biso   1.000  H
  C366     1.0000 0.84220  0.55560  0.36300  Biso   1.000  C
  C367     1.0000 0.88340  0.51710  0.35400  Biso   1.000  C
  H251     1.0000 0.94750  0.50950  0.36200  Biso   1.000  H
  C368     1.0000 0.82880  0.48990  0.33310  Biso   1.000  C
  H252     1.0000 0.85640  0.46410  0.32710  Biso   1.000  H
  C369     1.0000 0.22170  0.51890  0.41720  Biso   1.000  C
  C370     1.0000 0.90140  0.58550  0.38750  Biso   1.000  C
  C371     1.0000 0.88510  0.17530  0.10310  Biso   1.000  C
  C372     1.0000 0.47330  0.38980  0.98860  Biso   1.000  C
  O79      1.0000 0.22310  0.50820  0.44830  Biso   1.000  O
  O80      1.0000 0.19770  0.55260  0.40690  Biso   1.000  O
  O81      1.0000 0.37400  0.31200  0.27680  Biso   1.000  O
  O82      1.0000 0.60720  0.28310  0.28200  Biso   1.000  O
  Ti7      1.0000 0.68330  0.23190  0.30290  Biso   1.000  Ti
  O83      1.0000 0.50000  0.20500  0.34500  Biso   1.000  O
  C373     1.0000 0.59030  0.20590  0.36200  Biso   1.000  C
  H253     1.0000 0.62100  0.23230  0.35440  Biso   1.000  H
  C374     1.0000 0.66460  0.17270  0.34890  Biso   1.000  C
  H254     1.0000 0.69780  0.18280  0.32850  Biso   1.000  H
  H255     1.0000 0.62810  0.14750  0.34360  Biso   1.000  H
  H256     1.0000 0.71460  0.16710  0.36630  Biso   1.000  H
  C375     1.0000 0.58410  0.21080  0.40120  Biso   1.000  C
  H257     1.0000 0.61290  0.23720  0.40770  Biso   1.000  H
  H258     1.0000 0.62120  0.18850  0.41200  Biso   1.000  H
  H259     1.0000 0.51420  0.20970  0.40830  Biso   1.000  H
  O84      1.0000 0.63550  0.23720  0.35000  Biso   1.000  O
  C376     1.0000 0.66450  0.27450  0.36360  Biso   1.000  C
  H260     1.0000 0.71690  0.28430  0.34760  Biso   1.000  H
  C377     1.0000 0.72220  0.26940  0.39750  Biso   1.000  C
  H261     1.0000 0.67760  0.25790  0.41460  Biso   1.000  H
  H262     1.0000 0.74650  0.29620  0.40510  Biso   1.000  H
  H263     1.0000 0.77910  0.25100  0.39410  Biso   1.000  H
  C378     1.0000 0.58460  0.30950  0.36270  Biso   1.000  C
  H264     1.0000 0.59560  0.32660  0.34280  Biso   1.000  H
  H265     1.0000 0.59060  0.32630  0.38310  Biso   1.000  H
  H266     1.0000 0.51790  0.29730  0.36180  Biso   1.000  H
  Zn15     1.0000 0.40127  0.59004  0.57436  Biso   1.000  Zn
  Zn16     1.0000 0.58418  0.65863  0.57217  Biso   1.000  Zn
  C379     1.0000 0.01210  0.86150  0.76870  Biso   1.000  C
  C380     1.0000 0.91930  0.85080  0.78340  Biso   1.000  C
  C381     1.0000 0.87620  0.87630  0.80840  Biso   1.000  C
  H267     1.0000 0.81410  0.86910  0.81820  Biso   1.000  H
  C382     1.0000 0.92590  0.91260  0.81870  Biso   1.000  C
  C383     1.0000 0.01870  0.92330  0.80400  Biso   1.000  C
  C384     1.0000 0.06180  0.89780  0.77900  Biso   1.000  C
  C385     1.0000 0.15640  0.90790  0.76520  Biso   1.000  C
  H268     1.0000 0.18280  0.89140  0.74760  Biso   1.000  H
  C386     1.0000 0.21370  0.94260  0.77700  Biso   1.000  C
  H269     1.0000 0.27680  0.94880  0.76750  Biso   1.000  H
  C387     1.0000 0.17180  0.96850  0.80450  Biso   1.000  C
  C388     1.0000 0.07580  0.95790  0.81670  Biso   1.000  C
  H270     1.0000 0.04750  0.97420  0.83400  Biso   1.000  H
  C389     1.0000 0.05160  0.83260  0.73835  Biso   1.000  C
  C390     1.0000 0.10380  0.79670  0.74817  Biso   1.000  C
  C391     1.0000 0.15070  0.77190  0.72347  Biso   1.000  C
  H271     1.0000 0.18570  0.74790  0.73000  Biso   1.000  H
  C392     1.0000 0.14540  0.78300  0.68895  Biso   1.000  C
  C393     1.0000 0.09320  0.81890  0.67914  Biso   1.000  C
  C394     1.0000 0.04630  0.84369  0.70383  Biso   1.000  C
  C395     1.0000 0.99380  0.87870  0.69250  Biso   1.000  C
  H272     1.0000 0.96440  0.89600  0.70890  Biso   1.000  H
  C396     1.0000 0.98280  0.88900  0.65960  Biso   1.000  C
  H273     1.0000 0.94630  0.91290  0.65380  Biso   1.000  H
  C397     1.0000 0.02610  0.86390  0.63320  Biso   1.000  C
  C398     1.0000 0.08190  0.82900  0.64380  Biso   1.000  C
  H274     1.0000 0.11250  0.81210  0.62730  Biso   1.000  H
  C399     1.0000 0.20590  0.75600  0.66486  Biso   1.000  C
  C400     1.0000 0.17710  0.71460  0.66001  Biso   1.000  C
  H275     1.0000 0.11940  0.70420  0.67090  Biso   1.000  H
  C401     1.0000 0.23470  0.68868  0.63890  Biso   1.000  C
  H276     1.0000 0.21540  0.66100  0.63570  Biso   1.000  H
  C402     1.0000 0.32100  0.70420  0.62266  Biso   1.000  C
  C403     1.0000 0.34980  0.74560  0.62751  Biso   1.000  C
  H277     1.0000 0.40750  0.75600  0.61660  Biso   1.000  H
  C404     1.0000 0.29230  0.77152  0.64860  Biso   1.000  C
  H278     1.0000 0.31150  0.79920  0.65190  Biso   1.000  H
  O85      1.0000 0.47550  0.68800  0.59420  Biso   1.000  O
  O86      1.0000 0.34670  0.64150  0.59420  Biso   1.000  O
  C405     1.0000 0.01340  0.87250  0.59608  Biso   1.000  C
  C406     1.0000 0.09400  0.86500  0.57382  Biso   1.000  C
  H279     1.0000 0.15600  0.85560  0.58240  Biso   1.000  H
  C407     1.0000 0.08220  0.87150  0.53872  Biso   1.000  C
  H280     1.0000 0.13610  0.86640  0.52380  Biso   1.000  H
  C408     1.0000 0.98960  0.88550  0.52586  Biso   1.000  C
  C409     1.0000 0.90890  0.89310  0.54812  Biso   1.000  C
  H281     1.0000 0.84700  0.90250  0.53950  Biso   1.000  H
  C410     1.0000 0.92080  0.88660  0.58323  Biso   1.000  C
  H282     1.0000 0.86680  0.89160  0.59810  Biso   1.000  H
  O87      1.0000 0.04670  0.87080  0.46960  Biso   1.000  O
  O88      1.0000 0.90940  0.90640  0.47570  Biso   1.000  O
  C411     1.0000 0.87520  0.94060  0.84480  Biso   1.000  C
  C412     1.0000 0.85500  0.92610  0.87780  Biso   1.000  C
  H283     1.0000 0.87510  0.89930  0.88410  Biso   1.000  H
  C413     1.0000 0.80480  0.95160  0.90120  Biso   1.000  C
  H284     1.0000 0.79130  0.94180  0.92330  Biso   1.000  H
  C414     1.0000 0.77480  0.99160  0.89170  Biso   1.000  C
  C415     1.0000 0.79490  0.00620  0.85880  Biso   1.000  C
  H285     1.0000 0.77490  0.03300  0.85240  Biso   1.000  H
  C416     1.0000 0.84510  0.98070  0.83530  Biso   1.000  C
  H286     1.0000 0.85860  0.99040  0.81320  Biso   1.000  H
  O89      1.0000 0.35980  0.12120  0.89260  Biso   1.000  O
  O90      1.0000 0.47980  0.07360  0.89730  Biso   1.000  O
  C417     1.0000 0.23310  0.00120  0.82120  Biso   1.000  C
  C418     1.0000 0.19190  0.03970  0.83020  Biso   1.000  C
  H287     1.0000 0.12780  0.04730  0.82220  Biso   1.000  H
  C419     1.0000 0.24650  0.06690  0.85110  Biso   1.000  C
  H288     1.0000 0.21890  0.09270  0.85710  Biso   1.000  H
  C420     1.0000 0.34220  0.05560  0.86300  Biso   1.000  C
  C421     1.0000 0.38340  0.01710  0.85400  Biso   1.000  C
  H289     1.0000 0.44750  0.00950  0.86200  Biso   1.000  H
  C422     1.0000 0.32880  0.98990  0.83310  Biso   1.000  C
  H290     1.0000 0.35640  0.96410  0.82710  Biso   1.000  H
  C423     1.0000 0.72170  0.01890  0.91720  Biso   1.000  C
  C424     1.0000 0.40140  0.08550  0.88750  Biso   1.000  C
  C425     1.0000 0.38510  0.67530  0.60310  Biso   1.000  C
  C426     1.0000 0.97330  0.88980  0.48860  Biso   1.000  C
  O91      1.0000 0.72310  0.00820  0.94830  Biso   1.000  O
  O92      1.0000 0.69770  0.05260  0.90690  Biso   1.000  O
  O93      1.0000 0.87400  0.81200  0.77680  Biso   1.000  O
  O94      1.0000 0.10720  0.78310  0.78200  Biso   1.000  O
  Ti8      1.0000 0.18330  0.73190  0.80290  Biso   1.000  Ti
  O95      1.0000 0.00000  0.70500  0.84500  Biso   1.000  O
  C427     1.0000 0.09030  0.70590  0.86200  Biso   1.000  C
  H291     1.0000 0.12100  0.73230  0.85440  Biso   1.000  H
  C428     1.0000 0.16460  0.67270  0.84890  Biso   1.000  C
  H292     1.0000 0.19780  0.68280  0.82850  Biso   1.000  H
  H293     1.0000 0.12810  0.64750  0.84360  Biso   1.000  H
  H294     1.0000 0.21460  0.66710  0.86630  Biso   1.000  H
  C429     1.0000 0.08410  0.71080  0.90120  Biso   1.000  C
  H295     1.0000 0.11290  0.73720  0.90770  Biso   1.000  H
  H296     1.0000 0.12120  0.68850  0.91200  Biso   1.000  H
  H297     1.0000 0.01420  0.70970  0.90830  Biso   1.000  H
  O96      1.0000 0.13550  0.73720  0.85000  Biso   1.000  O
  C430     1.0000 0.16450  0.77450  0.86360  Biso   1.000  C
  H298     1.0000 0.21690  0.78430  0.84760  Biso   1.000  H
  C431     1.0000 0.22220  0.76940  0.89750  Biso   1.000  C
  H299     1.0000 0.17760  0.75790  0.91460  Biso   1.000  H
  H300     1.0000 0.24650  0.79620  0.90510  Biso   1.000  H
  H301     1.0000 0.27910  0.75100  0.89410  Biso   1.000  H
  C432     1.0000 0.08460  0.80950  0.86270  Biso   1.000  C
  H302     1.0000 0.09560  0.82660  0.84280  Biso   1.000  H
  H303     1.0000 0.09060  0.82630  0.88310  Biso   1.000  H
  H304     1.0000 0.01790  0.79730  0.86180  Biso   1.000  H
  Ti9      1.0000 0.00000  0.25000  0.69090  Biso   1.000  Ti
  Ti10     1.0000 0.50000  0.75000  0.19090  Biso   1.000  Ti
  Ti11     1.0000 0.00000  0.75000  0.80910  Biso   1.000  Ti
  Ti12     1.0000 0.50000  0.25000  0.30910  Biso   1.000  Ti
