data_image0
_cell_length_a       29.8427
_cell_length_b       29.8427
_cell_length_c       29.8427
_cell_angle_alpha    90
_cell_angle_beta     90
_cell_angle_gamma    90

_symmetry_space_group_name_H-M    "P 1"
_symmetry_int_tables_number       1

loop_
  _symmetry_equiv_pos_as_xyz
  'x, y, z'

loop_
  _atom_site_label
  _atom_site_occupancy
  _atom_site_fract_x
  _atom_site_fract_y
  _atom_site_fract_z
  _atom_site_thermal_displace_type
  _atom_site_B_iso_or_equiv
  _atom_site_type_symbol
  Ni1      1.0000 0.05843  0.31764  0.31764  Biso   1.000  Ni
  O1       1.0000 0.08774  0.25458  0.32343  Biso   1.000  O
  O2       1.0000 0.03708  0.38376  0.31356  Biso   1.000  O
  O3       1.0000 0.03707  0.31320  0.38389  Biso   1.000  O
  N1       1.0000 0.12120  0.34400  0.33800  Biso   1.000  N
  O4       1.0000 0.08770  0.32330  0.25471  Biso   1.000  O
  C1       1.0000 0.08098  0.21877  0.30243  Biso   1.000  C
  C2       1.0000 0.13610  0.37820  0.31330  Biso   1.000  C
  C3       1.0000 0.15030  0.32270  0.36360  Biso   1.000  C
  C4       1.0000 0.08109  0.30272  0.21897  Biso   1.000  C
  O5       1.0000 0.04780  0.20983  0.27841  Biso   1.000  O
  O6       1.0000 0.04762  0.27835  0.20973  Biso   1.000  O
  C5       1.0000 0.11663  0.18271  0.30434  Biso   1.000  C
  H1       1.0000 0.11740  0.39080  0.29180  Biso   1.000  H
  C6       1.0000 0.17760  0.39470  0.31880  Biso   1.000  C
  C7       1.0000 0.18990  0.34180  0.37310  Biso   1.000  C
  H2       1.0000 0.14330  0.29450  0.37500  Biso   1.000  H
  C8       1.0000 0.11634  0.30413  0.18276  Biso   1.000  C
  C9       1.0000 0.15651  0.18895  0.32600  Biso   1.000  C
  C10      1.0000 0.11053  0.14283  0.28300  Biso   1.000  C
  C11      1.0000 0.03899  0.47670  0.31270  Biso   1.000  C
  C12      1.0000 0.03912  0.31210  0.47679  Biso   1.000  C
  C13      1.0000 0.20170  0.37930  0.35380  Biso   1.000  C
  C14      1.0000 0.19480  0.42960  0.28820  Biso   1.000  C
  H3       1.0000 0.20910  0.32820  0.39350  Biso   1.000  H
  C15      1.0000 0.15613  0.32660  0.18880  Biso   1.000  C
  C16      1.0000 0.11062  0.28350  0.14283  Biso   1.000  C
  H4       1.0000 0.16190  0.21590  0.34070  Biso   1.000  H
  H5       1.0000 0.08380  0.13750  0.26790  Biso   1.000  H
  H6       1.0000 0.06620  0.46150  0.31320  Biso   1.000  H
  H7       1.0000 0.06630  0.31230  0.46160  Biso   1.000  H
  H8       1.0000 0.22640  0.39520  0.36410  Biso   1.000  H
  O7       1.0000 0.22930  0.45060  0.29910  Biso   1.000  O
  O8       1.0000 0.16760  0.44770  0.26180  Biso   1.000  O
  H9       1.0000 0.16090  0.34250  0.21520  Biso   1.000  H
  H10      1.0000 0.08360  0.26910  0.13720  Biso   1.000  H
  N2       1.0000 0.11880  0.34080  0.34470  Biso   1.000  N
  C17      1.0000 0.13510  0.31520  0.37830  Biso   1.000  C
  C18      1.0000 0.17720  0.32080  0.39510  Biso   1.000  C
  C19      1.0000 0.20100  0.35760  0.38040  Biso   1.000  C
  C20      1.0000 0.18920  0.37630  0.34130  Biso   1.000  C
  C21      1.0000 0.14800  0.36820  0.32310  Biso   1.000  C
  C22      1.0000 0.19440  0.29060  0.43250  Biso   1.000  C
  O9       1.0000 0.22960  0.29900  0.45050  Biso   1.000  O
  O10      1.0000 0.17000  0.26180  0.44670  Biso   1.000  O
  Ni2      1.0000 0.94157  0.68236  0.31764  Biso   1.000  Ni
  O11      1.0000 0.91226  0.74542  0.32343  Biso   1.000  O
  O12      1.0000 0.96292  0.61624  0.31356  Biso   1.000  O
  O13      1.0000 0.96293  0.68680  0.38389  Biso   1.000  O
  N3       1.0000 0.87880  0.65600  0.33800  Biso   1.000  N
  O14      1.0000 0.91230  0.67670  0.25471  Biso   1.000  O
  C23      1.0000 0.91902  0.78123  0.30243  Biso   1.000  C
  C24      1.0000 0.86390  0.62180  0.31330  Biso   1.000  C
  C25      1.0000 0.84970  0.67730  0.36360  Biso   1.000  C
  C26      1.0000 0.91891  0.69728  0.21897  Biso   1.000  C
  O15      1.0000 0.95220  0.79017  0.27841  Biso   1.000  O
  O16      1.0000 0.95238  0.72165  0.20973  Biso   1.000  O
  C27      1.0000 0.88337  0.81729  0.30434  Biso   1.000  C
  H11      1.0000 0.88260  0.60920  0.29180  Biso   1.000  H
  C28      1.0000 0.82240  0.60530  0.31880  Biso   1.000  C
  C29      1.0000 0.81010  0.65820  0.37310  Biso   1.000  C
  H12      1.0000 0.85670  0.70550  0.37500  Biso   1.000  H
  C30      1.0000 0.88366  0.69587  0.18276  Biso   1.000  C
  C31      1.0000 0.84349  0.81105  0.32600  Biso   1.000  C
  C32      1.0000 0.88947  0.85717  0.28300  Biso   1.000  C
  C33      1.0000 0.96101  0.52330  0.31270  Biso   1.000  C
  C34      1.0000 0.96088  0.68790  0.47679  Biso   1.000  C
  C35      1.0000 0.79830  0.62070  0.35380  Biso   1.000  C
  C36      1.0000 0.80520  0.57040  0.28820  Biso   1.000  C
  H13      1.0000 0.79090  0.67180  0.39350  Biso   1.000  H
  C37      1.0000 0.84387  0.67340  0.18880  Biso   1.000  C
  C38      1.0000 0.88938  0.71650  0.14283  Biso   1.000  C
  H14      1.0000 0.83810  0.78410  0.34070  Biso   1.000  H
  H15      1.0000 0.91620  0.86250  0.26790  Biso   1.000  H
  H16      1.0000 0.93380  0.53850  0.31320  Biso   1.000  H
  H17      1.0000 0.93370  0.68770  0.46160  Biso   1.000  H
  H18      1.0000 0.77360  0.60480  0.36410  Biso   1.000  H
  O17      1.0000 0.77070  0.54940  0.29910  Biso   1.000  O
  O18      1.0000 0.83240  0.55230  0.26180  Biso   1.000  O
  H19      1.0000 0.83910  0.65750  0.21520  Biso   1.000  H
  H20      1.0000 0.91640  0.73090  0.13720  Biso   1.000  H
  N4       1.0000 0.88120  0.65920  0.34470  Biso   1.000  N
  C39      1.0000 0.86490  0.68480  0.37830  Biso   1.000  C
  C40      1.0000 0.82280  0.67920  0.39510  Biso   1.000  C
  C41      1.0000 0.79900  0.64240  0.38040  Biso   1.000  C
  C42      1.0000 0.81080  0.62370  0.34130  Biso   1.000  C
  C43      1.0000 0.85200  0.63180  0.32310  Biso   1.000  C
  C44      1.0000 0.80560  0.70940  0.43250  Biso   1.000  C
  O19      1.0000 0.77040  0.70100  0.45050  Biso   1.000  O
  O20      1.0000 0.83000  0.73820  0.44670  Biso   1.000  O
  Ni3      1.0000 0.94157  0.31764  0.68236  Biso   1.000  Ni
  O21      1.0000 0.91226  0.25458  0.67657  Biso   1.000  O
  O22      1.0000 0.96292  0.38376  0.68644  Biso   1.000  O
  O23      1.0000 0.96293  0.31320  0.61611  Biso   1.000  O
  N5       1.0000 0.87880  0.34400  0.66200  Biso   1.000  N
  O24      1.0000 0.91230  0.32330  0.74529  Biso   1.000  O
  C45      1.0000 0.91902  0.21877  0.69757  Biso   1.000  C
  C46      1.0000 0.86390  0.37820  0.68670  Biso   1.000  C
  C47      1.0000 0.84970  0.32270  0.63640  Biso   1.000  C
  C48      1.0000 0.91891  0.30272  0.78103  Biso   1.000  C
  O25      1.0000 0.95220  0.20983  0.72159  Biso   1.000  O
  O26      1.0000 0.95238  0.27835  0.79027  Biso   1.000  O
  C49      1.0000 0.88337  0.18271  0.69566  Biso   1.000  C
  H21      1.0000 0.88260  0.39080  0.70820  Biso   1.000  H
  C50      1.0000 0.82240  0.39470  0.68120  Biso   1.000  C
  C51      1.0000 0.81010  0.34180  0.62690  Biso   1.000  C
  H22      1.0000 0.85670  0.29450  0.62500  Biso   1.000  H
  C52      1.0000 0.88366  0.30413  0.81724  Biso   1.000  C
  C53      1.0000 0.84349  0.18895  0.67400  Biso   1.000  C
  C54      1.0000 0.88947  0.14283  0.71700  Biso   1.000  C
  C55      1.0000 0.96101  0.47670  0.68730  Biso   1.000  C
  C56      1.0000 0.96088  0.31210  0.52321  Biso   1.000  C
  C57      1.0000 0.79830  0.37930  0.64620  Biso   1.000  C
  C58      1.0000 0.80520  0.42960  0.71180  Biso   1.000  C
  H23      1.0000 0.79090  0.32820  0.60650  Biso   1.000  H
  C59      1.0000 0.84387  0.32660  0.81120  Biso   1.000  C
  C60      1.0000 0.88938  0.28350  0.85717  Biso   1.000  C
  H24      1.0000 0.83810  0.21590  0.65930  Biso   1.000  H
  H25      1.0000 0.91620  0.13750  0.73210  Biso   1.000  H
  H26      1.0000 0.93380  0.46150  0.68680  Biso   1.000  H
  H27      1.0000 0.93370  0.31230  0.53840  Biso   1.000  H
  H28      1.0000 0.77360  0.39520  0.63590  Biso   1.000  H
  O27      1.0000 0.77070  0.45060  0.70090  Biso   1.000  O
  O28      1.0000 0.83240  0.44770  0.73820  Biso   1.000  O
  H29      1.0000 0.83910  0.34250  0.78480  Biso   1.000  H
  H30      1.0000 0.91640  0.26910  0.86280  Biso   1.000  H
  N6       1.0000 0.88120  0.34080  0.65530  Biso   1.000  N
  C61      1.0000 0.86490  0.31520  0.62170  Biso   1.000  C
  C62      1.0000 0.82280  0.32080  0.60490  Biso   1.000  C
  C63      1.0000 0.79900  0.35760  0.61960  Biso   1.000  C
  C64      1.0000 0.81080  0.37630  0.65870  Biso   1.000  C
  C65      1.0000 0.85200  0.36820  0.67690  Biso   1.000  C
  C66      1.0000 0.80560  0.29060  0.56750  Biso   1.000  C
  O29      1.0000 0.77040  0.29900  0.54950  Biso   1.000  O
  O30      1.0000 0.83000  0.26180  0.55330  Biso   1.000  O
  Ni4      1.0000 0.05843  0.68236  0.68236  Biso   1.000  Ni
  O31      1.0000 0.08774  0.74542  0.67657  Biso   1.000  O
  O32      1.0000 0.03708  0.61624  0.68644  Biso   1.000  O
  O33      1.0000 0.03707  0.68680  0.61611  Biso   1.000  O
  N7       1.0000 0.12120  0.65600  0.66200  Biso   1.000  N
  O34      1.0000 0.08770  0.67670  0.74529  Biso   1.000  O
  C67      1.0000 0.08098  0.78123  0.69757  Biso   1.000  C
  C68      1.0000 0.13610  0.62180  0.68670  Biso   1.000  C
  C69      1.0000 0.15030  0.67730  0.63640  Biso   1.000  C
  C70      1.0000 0.08109  0.69728  0.78103  Biso   1.000  C
  O35      1.0000 0.04780  0.79017  0.72159  Biso   1.000  O
  O36      1.0000 0.04762  0.72165  0.79027  Biso   1.000  O
  C71      1.0000 0.11663  0.81729  0.69566  Biso   1.000  C
  H31      1.0000 0.11740  0.60920  0.70820  Biso   1.000  H
  C72      1.0000 0.17760  0.60530  0.68120  Biso   1.000  C
  C73      1.0000 0.18990  0.65820  0.62690  Biso   1.000  C
  H32      1.0000 0.14330  0.70550  0.62500  Biso   1.000  H
  C74      1.0000 0.11634  0.69587  0.81724  Biso   1.000  C
  C75      1.0000 0.15651  0.81105  0.67400  Biso   1.000  C
  C76      1.0000 0.11053  0.85717  0.71700  Biso   1.000  C
  C77      1.0000 0.03899  0.52330  0.68730  Biso   1.000  C
  C78      1.0000 0.03912  0.68790  0.52321  Biso   1.000  C
  C79      1.0000 0.20170  0.62070  0.64620  Biso   1.000  C
  C80      1.0000 0.19480  0.57040  0.71180  Biso   1.000  C
  H33      1.0000 0.20910  0.67180  0.60650  Biso   1.000  H
  C81      1.0000 0.15613  0.67340  0.81120  Biso   1.000  C
  C82      1.0000 0.11062  0.71650  0.85717  Biso   1.000  C
  H34      1.0000 0.16190  0.78410  0.65930  Biso   1.000  H
  H35      1.0000 0.08380  0.86250  0.73210  Biso   1.000  H
  H36      1.0000 0.06620  0.53850  0.68680  Biso   1.000  H
  H37      1.0000 0.06630  0.68770  0.53840  Biso   1.000  H
  H38      1.0000 0.22640  0.60480  0.63590  Biso   1.000  H
  O37      1.0000 0.22930  0.54940  0.70090  Biso   1.000  O
  O38      1.0000 0.16760  0.55230  0.73820  Biso   1.000  O
  H39      1.0000 0.16090  0.65750  0.78480  Biso   1.000  H
  H40      1.0000 0.08360  0.73090  0.86280  Biso   1.000  H
  N8       1.0000 0.11880  0.65920  0.65530  Biso   1.000  N
  C83      1.0000 0.13510  0.68480  0.62170  Biso   1.000  C
  C84      1.0000 0.17720  0.67920  0.60490  Biso   1.000  C
  C85      1.0000 0.20100  0.64240  0.61960  Biso   1.000  C
  C86      1.0000 0.18920  0.62370  0.65870  Biso   1.000  C
  C87      1.0000 0.14800  0.63180  0.67690  Biso   1.000  C
  C88      1.0000 0.19440  0.70940  0.56750  Biso   1.000  C
  O39      1.0000 0.22960  0.70100  0.54950  Biso   1.000  O
  O40      1.0000 0.17000  0.73820  0.55330  Biso   1.000  O
  Ni5      1.0000 0.31764  0.05843  0.31764  Biso   1.000  Ni
  O41      1.0000 0.32343  0.08774  0.25458  Biso   1.000  O
  O42      1.0000 0.31356  0.03708  0.38376  Biso   1.000  O
  O43      1.0000 0.38389  0.03707  0.31320  Biso   1.000  O
  N9       1.0000 0.33800  0.12120  0.34400  Biso   1.000  N
  O44      1.0000 0.25471  0.08770  0.32330  Biso   1.000  O
  C89      1.0000 0.30243  0.08098  0.21877  Biso   1.000  C
  C90      1.0000 0.31330  0.13610  0.37820  Biso   1.000  C
  C91      1.0000 0.36360  0.15030  0.32270  Biso   1.000  C
  C92      1.0000 0.21897  0.08109  0.30272  Biso   1.000  C
  O45      1.0000 0.27841  0.04780  0.20983  Biso   1.000  O
  O46      1.0000 0.20973  0.04762  0.27835  Biso   1.000  O
  C93      1.0000 0.30434  0.11663  0.18271  Biso   1.000  C
  H41      1.0000 0.29180  0.11740  0.39080  Biso   1.000  H
  C94      1.0000 0.31880  0.17760  0.39470  Biso   1.000  C
  C95      1.0000 0.37310  0.18990  0.34180  Biso   1.000  C
  H42      1.0000 0.37500  0.14330  0.29450  Biso   1.000  H
  C96      1.0000 0.18276  0.11634  0.30413  Biso   1.000  C
  C97      1.0000 0.32600  0.15651  0.18895  Biso   1.000  C
  C98      1.0000 0.28300  0.11053  0.14283  Biso   1.000  C
  C99      1.0000 0.31270  0.03899  0.47670  Biso   1.000  C
  C100     1.0000 0.47679  0.03912  0.31210  Biso   1.000  C
  C101     1.0000 0.35380  0.20170  0.37930  Biso   1.000  C
  C102     1.0000 0.28820  0.19480  0.42960  Biso   1.000  C
  H43      1.0000 0.39350  0.20910  0.32820  Biso   1.000  H
  C103     1.0000 0.18880  0.15613  0.32660  Biso   1.000  C
  C104     1.0000 0.14283  0.11062  0.28350  Biso   1.000  C
  H44      1.0000 0.34070  0.16190  0.21590  Biso   1.000  H
  H45      1.0000 0.26790  0.08380  0.13750  Biso   1.000  H
  H46      1.0000 0.31320  0.06620  0.46150  Biso   1.000  H
  H47      1.0000 0.46160  0.06630  0.31230  Biso   1.000  H
  H48      1.0000 0.36410  0.22640  0.39520  Biso   1.000  H
  O47      1.0000 0.29910  0.22930  0.45060  Biso   1.000  O
  O48      1.0000 0.26180  0.16760  0.44770  Biso   1.000  O
  H49      1.0000 0.21520  0.16090  0.34250  Biso   1.000  H
  H50      1.0000 0.13720  0.08360  0.26910  Biso   1.000  H
  N10      1.0000 0.34470  0.11880  0.34080  Biso   1.000  N
  C105     1.0000 0.37830  0.13510  0.31520  Biso   1.000  C
  C106     1.0000 0.39510  0.17720  0.32080  Biso   1.000  C
  C107     1.0000 0.38040  0.20100  0.35760  Biso   1.000  C
  C108     1.0000 0.34130  0.18920  0.37630  Biso   1.000  C
  C109     1.0000 0.32310  0.14800  0.36820  Biso   1.000  C
  C110     1.0000 0.43250  0.19440  0.29060  Biso   1.000  C
  O49      1.0000 0.45050  0.22960  0.29900  Biso   1.000  O
  O50      1.0000 0.44670  0.17000  0.26180  Biso   1.000  O
  Ni6      1.0000 0.31764  0.94157  0.68236  Biso   1.000  Ni
  O51      1.0000 0.32343  0.91226  0.74542  Biso   1.000  O
  O52      1.0000 0.31356  0.96292  0.61624  Biso   1.000  O
  O53      1.0000 0.38389  0.96293  0.68680  Biso   1.000  O
  N11      1.0000 0.33800  0.87880  0.65600  Biso   1.000  N
  O54      1.0000 0.25471  0.91230  0.67670  Biso   1.000  O
  C111     1.0000 0.30243  0.91902  0.78123  Biso   1.000  C
  C112     1.0000 0.31330  0.86390  0.62180  Biso   1.000  C
  C113     1.0000 0.36360  0.84970  0.67730  Biso   1.000  C
  C114     1.0000 0.21897  0.91891  0.69728  Biso   1.000  C
  O55      1.0000 0.27841  0.95220  0.79017  Biso   1.000  O
  O56      1.0000 0.20973  0.95238  0.72165  Biso   1.000  O
  C115     1.0000 0.30434  0.88337  0.81729  Biso   1.000  C
  H51      1.0000 0.29180  0.88260  0.60920  Biso   1.000  H
  C116     1.0000 0.31880  0.82240  0.60530  Biso   1.000  C
  C117     1.0000 0.37310  0.81010  0.65820  Biso   1.000  C
  H52      1.0000 0.37500  0.85670  0.70550  Biso   1.000  H
  C118     1.0000 0.18276  0.88366  0.69587  Biso   1.000  C
  C119     1.0000 0.32600  0.84349  0.81105  Biso   1.000  C
  C120     1.0000 0.28300  0.88947  0.85717  Biso   1.000  C
  C121     1.0000 0.31270  0.96101  0.52330  Biso   1.000  C
  C122     1.0000 0.47679  0.96088  0.68790  Biso   1.000  C
  C123     1.0000 0.35380  0.79830  0.62070  Biso   1.000  C
  C124     1.0000 0.28820  0.80520  0.57040  Biso   1.000  C
  H53      1.0000 0.39350  0.79090  0.67180  Biso   1.000  H
  C125     1.0000 0.18880  0.84387  0.67340  Biso   1.000  C
  C126     1.0000 0.14283  0.88938  0.71650  Biso   1.000  C
  H54      1.0000 0.34070  0.83810  0.78410  Biso   1.000  H
  H55      1.0000 0.26790  0.91620  0.86250  Biso   1.000  H
  H56      1.0000 0.31320  0.93380  0.53850  Biso   1.000  H
  H57      1.0000 0.46160  0.93370  0.68770  Biso   1.000  H
  H58      1.0000 0.36410  0.77360  0.60480  Biso   1.000  H
  O57      1.0000 0.29910  0.77070  0.54940  Biso   1.000  O
  O58      1.0000 0.26180  0.83240  0.55230  Biso   1.000  O
  H59      1.0000 0.21520  0.83910  0.65750  Biso   1.000  H
  H60      1.0000 0.13720  0.91640  0.73090  Biso   1.000  H
  N12      1.0000 0.34470  0.88120  0.65920  Biso   1.000  N
  C127     1.0000 0.37830  0.86490  0.68480  Biso   1.000  C
  C128     1.0000 0.39510  0.82280  0.67920  Biso   1.000  C
  C129     1.0000 0.38040  0.79900  0.64240  Biso   1.000  C
  C130     1.0000 0.34130  0.81080  0.62370  Biso   1.000  C
  C131     1.0000 0.32310  0.85200  0.63180  Biso   1.000  C
  C132     1.0000 0.43250  0.80560  0.70940  Biso   1.000  C
  O59      1.0000 0.45050  0.77040  0.70100  Biso   1.000  O
  O60      1.0000 0.44670  0.83000  0.73820  Biso   1.000  O
  Ni7      1.0000 0.68236  0.94157  0.31764  Biso   1.000  Ni
  O61      1.0000 0.67657  0.91226  0.25458  Biso   1.000  O
  O62      1.0000 0.68644  0.96292  0.38376  Biso   1.000  O
  O63      1.0000 0.61611  0.96293  0.31320  Biso   1.000  O
  N13      1.0000 0.66200  0.87880  0.34400  Biso   1.000  N
  O64      1.0000 0.74529  0.91230  0.32330  Biso   1.000  O
  C133     1.0000 0.69757  0.91902  0.21877  Biso   1.000  C
  C134     1.0000 0.68670  0.86390  0.37820  Biso   1.000  C
  C135     1.0000 0.63640  0.84970  0.32270  Biso   1.000  C
  C136     1.0000 0.78103  0.91891  0.30272  Biso   1.000  C
  O65      1.0000 0.72159  0.95220  0.20983  Biso   1.000  O
  O66      1.0000 0.79027  0.95238  0.27835  Biso   1.000  O
  C137     1.0000 0.69566  0.88337  0.18271  Biso   1.000  C
  H61      1.0000 0.70820  0.88260  0.39080  Biso   1.000  H
  C138     1.0000 0.68120  0.82240  0.39470  Biso   1.000  C
  C139     1.0000 0.62690  0.81010  0.34180  Biso   1.000  C
  H62      1.0000 0.62500  0.85670  0.29450  Biso   1.000  H
  C140     1.0000 0.81724  0.88366  0.30413  Biso   1.000  C
  C141     1.0000 0.67400  0.84349  0.18895  Biso   1.000  C
  C142     1.0000 0.71700  0.88947  0.14283  Biso   1.000  C
  C143     1.0000 0.68730  0.96101  0.47670  Biso   1.000  C
  C144     1.0000 0.52321  0.96088  0.31210  Biso   1.000  C
  C145     1.0000 0.64620  0.79830  0.37930  Biso   1.000  C
  C146     1.0000 0.71180  0.80520  0.42960  Biso   1.000  C
  H63      1.0000 0.60650  0.79090  0.32820  Biso   1.000  H
  C147     1.0000 0.81120  0.84387  0.32660  Biso   1.000  C
  C148     1.0000 0.85717  0.88938  0.28350  Biso   1.000  C
  H64      1.0000 0.65930  0.83810  0.21590  Biso   1.000  H
  H65      1.0000 0.73210  0.91620  0.13750  Biso   1.000  H
  H66      1.0000 0.68680  0.93380  0.46150  Biso   1.000  H
  H67      1.0000 0.53840  0.93370  0.31230  Biso   1.000  H
  H68      1.0000 0.63590  0.77360  0.39520  Biso   1.000  H
  O67      1.0000 0.70090  0.77070  0.45060  Biso   1.000  O
  O68      1.0000 0.73820  0.83240  0.44770  Biso   1.000  O
  H69      1.0000 0.78480  0.83910  0.34250  Biso   1.000  H
  H70      1.0000 0.86280  0.91640  0.26910  Biso   1.000  H
  N14      1.0000 0.65530  0.88120  0.34080  Biso   1.000  N
  C149     1.0000 0.62170  0.86490  0.31520  Biso   1.000  C
  C150     1.0000 0.60490  0.82280  0.32080  Biso   1.000  C
  C151     1.0000 0.61960  0.79900  0.35760  Biso   1.000  C
  C152     1.0000 0.65870  0.81080  0.37630  Biso   1.000  C
  C153     1.0000 0.67690  0.85200  0.36820  Biso   1.000  C
  C154     1.0000 0.56750  0.80560  0.29060  Biso   1.000  C
  O69      1.0000 0.54950  0.77040  0.29900  Biso   1.000  O
  O70      1.0000 0.55330  0.83000  0.26180  Biso   1.000  O
  Ni8      1.0000 0.68236  0.05843  0.68236  Biso   1.000  Ni
  O71      1.0000 0.67657  0.08774  0.74542  Biso   1.000  O
  O72      1.0000 0.68644  0.03708  0.61624  Biso   1.000  O
  O73      1.0000 0.61611  0.03707  0.68680  Biso   1.000  O
  N15      1.0000 0.66200  0.12120  0.65600  Biso   1.000  N
  O74      1.0000 0.74529  0.08770  0.67670  Biso   1.000  O
  C155     1.0000 0.69757  0.08098  0.78123  Biso   1.000  C
  C156     1.0000 0.68670  0.13610  0.62180  Biso   1.000  C
  C157     1.0000 0.63640  0.15030  0.67730  Biso   1.000  C
  C158     1.0000 0.78103  0.08109  0.69728  Biso   1.000  C
  O75      1.0000 0.72159  0.04780  0.79017  Biso   1.000  O
  O76      1.0000 0.79027  0.04762  0.72165  Biso   1.000  O
  C159     1.0000 0.69566  0.11663  0.81729  Biso   1.000  C
  H71      1.0000 0.70820  0.11740  0.60920  Biso   1.000  H
  C160     1.0000 0.68120  0.17760  0.60530  Biso   1.000  C
  C161     1.0000 0.62690  0.18990  0.65820  Biso   1.000  C
  H72      1.0000 0.62500  0.14330  0.70550  Biso   1.000  H
  C162     1.0000 0.81724  0.11634  0.69587  Biso   1.000  C
  C163     1.0000 0.67400  0.15651  0.81105  Biso   1.000  C
  C164     1.0000 0.71700  0.11053  0.85717  Biso   1.000  C
  C165     1.0000 0.68730  0.03899  0.52330  Biso   1.000  C
  C166     1.0000 0.52321  0.03912  0.68790  Biso   1.000  C
  C167     1.0000 0.64620  0.20170  0.62070  Biso   1.000  C
  C168     1.0000 0.71180  0.19480  0.57040  Biso   1.000  C
  H73      1.0000 0.60650  0.20910  0.67180  Biso   1.000  H
  C169     1.0000 0.81120  0.15613  0.67340  Biso   1.000  C
  C170     1.0000 0.85717  0.11062  0.71650  Biso   1.000  C
  H74      1.0000 0.65930  0.16190  0.78410  Biso   1.000  H
  H75      1.0000 0.73210  0.08380  0.86250  Biso   1.000  H
  H76      1.0000 0.68680  0.06620  0.53850  Biso   1.000  H
  H77      1.0000 0.53840  0.06630  0.68770  Biso   1.000  H
  H78      1.0000 0.63590  0.22640  0.60480  Biso   1.000  H
  O77      1.0000 0.70090  0.22930  0.54940  Biso   1.000  O
  O78      1.0000 0.73820  0.16760  0.55230  Biso   1.000  O
  H79      1.0000 0.78480  0.16090  0.65750  Biso   1.000  H
  H80      1.0000 0.86280  0.08360  0.73090  Biso   1.000  H
  N16      1.0000 0.65530  0.11880  0.65920  Biso   1.000  N
  C171     1.0000 0.62170  0.13510  0.68480  Biso   1.000  C
  C172     1.0000 0.60490  0.17720  0.67920  Biso   1.000  C
  C173     1.0000 0.61960  0.20100  0.64240  Biso   1.000  C
  C174     1.0000 0.65870  0.18920  0.62370  Biso   1.000  C
  C175     1.0000 0.67690  0.14800  0.63180  Biso   1.000  C
  C176     1.0000 0.56750  0.19440  0.70940  Biso   1.000  C
  O79      1.0000 0.54950  0.22960  0.70100  Biso   1.000  O
  O80      1.0000 0.55330  0.17000  0.73820  Biso   1.000  O
  Ni9      1.0000 0.31764  0.31764  0.05843  Biso   1.000  Ni
  O81      1.0000 0.25458  0.32343  0.08774  Biso   1.000  O
  O82      1.0000 0.38376  0.31356  0.03708  Biso   1.000  O
  O83      1.0000 0.31320  0.38389  0.03707  Biso   1.000  O
  N17      1.0000 0.34400  0.33800  0.12120  Biso   1.000  N
  O84      1.0000 0.32330  0.25471  0.08770  Biso   1.000  O
  C177     1.0000 0.21877  0.30243  0.08098  Biso   1.000  C
  C178     1.0000 0.37820  0.31330  0.13610  Biso   1.000  C
  C179     1.0000 0.32270  0.36360  0.15030  Biso   1.000  C
  C180     1.0000 0.30272  0.21897  0.08109  Biso   1.000  C
  O85      1.0000 0.20983  0.27841  0.04780  Biso   1.000  O
  O86      1.0000 0.27835  0.20973  0.04762  Biso   1.000  O
  C181     1.0000 0.18271  0.30434  0.11663  Biso   1.000  C
  H81      1.0000 0.39080  0.29180  0.11740  Biso   1.000  H
  C182     1.0000 0.39470  0.31880  0.17760  Biso   1.000  C
  C183     1.0000 0.34180  0.37310  0.18990  Biso   1.000  C
  H82      1.0000 0.29450  0.37500  0.14330  Biso   1.000  H
  C184     1.0000 0.30413  0.18276  0.11634  Biso   1.000  C
  C185     1.0000 0.18895  0.32600  0.15651  Biso   1.000  C
  C186     1.0000 0.14283  0.28300  0.11053  Biso   1.000  C
  C187     1.0000 0.47670  0.31270  0.03899  Biso   1.000  C
  C188     1.0000 0.31210  0.47679  0.03912  Biso   1.000  C
  C189     1.0000 0.37930  0.35380  0.20170  Biso   1.000  C
  C190     1.0000 0.42960  0.28820  0.19480  Biso   1.000  C
  H83      1.0000 0.32820  0.39350  0.20910  Biso   1.000  H
  C191     1.0000 0.32660  0.18880  0.15613  Biso   1.000  C
  C192     1.0000 0.28350  0.14283  0.11062  Biso   1.000  C
  H84      1.0000 0.21590  0.34070  0.16190  Biso   1.000  H
  H85      1.0000 0.13750  0.26790  0.08380  Biso   1.000  H
  H86      1.0000 0.46150  0.31320  0.06620  Biso   1.000  H
  H87      1.0000 0.31230  0.46160  0.06630  Biso   1.000  H
  H88      1.0000 0.39520  0.36410  0.22640  Biso   1.000  H
  O87      1.0000 0.45060  0.29910  0.22930  Biso   1.000  O
  O88      1.0000 0.44770  0.26180  0.16760  Biso   1.000  O
  H89      1.0000 0.34250  0.21520  0.16090  Biso   1.000  H
  H90      1.0000 0.26910  0.13720  0.08360  Biso   1.000  H
  N18      1.0000 0.34080  0.34470  0.11880  Biso   1.000  N
  C193     1.0000 0.31520  0.37830  0.13510  Biso   1.000  C
  C194     1.0000 0.32080  0.39510  0.17720  Biso   1.000  C
  C195     1.0000 0.35760  0.38040  0.20100  Biso   1.000  C
  C196     1.0000 0.37630  0.34130  0.18920  Biso   1.000  C
  C197     1.0000 0.36820  0.32310  0.14800  Biso   1.000  C
  C198     1.0000 0.29060  0.43250  0.19440  Biso   1.000  C
  O89      1.0000 0.29900  0.45050  0.22960  Biso   1.000  O
  O90      1.0000 0.26180  0.44670  0.17000  Biso   1.000  O
  Ni10     1.0000 0.68236  0.31764  0.94157  Biso   1.000  Ni
  O91      1.0000 0.74542  0.32343  0.91226  Biso   1.000  O
  O92      1.0000 0.61624  0.31356  0.96292  Biso   1.000  O
  O93      1.0000 0.68680  0.38389  0.96293  Biso   1.000  O
  N19      1.0000 0.65600  0.33800  0.87880  Biso   1.000  N
  O94      1.0000 0.67670  0.25471  0.91230  Biso   1.000  O
  C199     1.0000 0.78123  0.30243  0.91902  Biso   1.000  C
  C200     1.0000 0.62180  0.31330  0.86390  Biso   1.000  C
  C201     1.0000 0.67730  0.36360  0.84970  Biso   1.000  C
  C202     1.0000 0.69728  0.21897  0.91891  Biso   1.000  C
  O95      1.0000 0.79017  0.27841  0.95220  Biso   1.000  O
  O96      1.0000 0.72165  0.20973  0.95238  Biso   1.000  O
  C203     1.0000 0.81729  0.30434  0.88337  Biso   1.000  C
  H91      1.0000 0.60920  0.29180  0.88260  Biso   1.000  H
  C204     1.0000 0.60530  0.31880  0.82240  Biso   1.000  C
  C205     1.0000 0.65820  0.37310  0.81010  Biso   1.000  C
  H92      1.0000 0.70550  0.37500  0.85670  Biso   1.000  H
  C206     1.0000 0.69587  0.18276  0.88366  Biso   1.000  C
  C207     1.0000 0.81105  0.32600  0.84349  Biso   1.000  C
  C208     1.0000 0.85717  0.28300  0.88947  Biso   1.000  C
  C209     1.0000 0.52330  0.31270  0.96101  Biso   1.000  C
  C210     1.0000 0.68790  0.47679  0.96088  Biso   1.000  C
  C211     1.0000 0.62070  0.35380  0.79830  Biso   1.000  C
  C212     1.0000 0.57040  0.28820  0.80520  Biso   1.000  C
  H93      1.0000 0.67180  0.39350  0.79090  Biso   1.000  H
  C213     1.0000 0.67340  0.18880  0.84387  Biso   1.000  C
  C214     1.0000 0.71650  0.14283  0.88938  Biso   1.000  C
  H94      1.0000 0.78410  0.34070  0.83810  Biso   1.000  H
  H95      1.0000 0.86250  0.26790  0.91620  Biso   1.000  H
  H96      1.0000 0.53850  0.31320  0.93380  Biso   1.000  H
  H97      1.0000 0.68770  0.46160  0.93370  Biso   1.000  H
  H98      1.0000 0.60480  0.36410  0.77360  Biso   1.000  H
  O97      1.0000 0.54940  0.29910  0.77070  Biso   1.000  O
  O98      1.0000 0.55230  0.26180  0.83240  Biso   1.000  O
  H99      1.0000 0.65750  0.21520  0.83910  Biso   1.000  H
  H100     1.0000 0.73090  0.13720  0.91640  Biso   1.000  H
  N20      1.0000 0.65920  0.34470  0.88120  Biso   1.000  N
  C215     1.0000 0.68480  0.37830  0.86490  Biso   1.000  C
  C216     1.0000 0.67920  0.39510  0.82280  Biso   1.000  C
  C217     1.0000 0.64240  0.38040  0.79900  Biso   1.000  C
  C218     1.0000 0.62370  0.34130  0.81080  Biso   1.000  C
  C219     1.0000 0.63180  0.32310  0.85200  Biso   1.000  C
  C220     1.0000 0.70940  0.43250  0.80560  Biso   1.000  C
  O99      1.0000 0.70100  0.45050  0.77040  Biso   1.000  O
  O100     1.0000 0.73820  0.44670  0.83000  Biso   1.000  O
  Ni11     1.0000 0.31764  0.68236  0.94157  Biso   1.000  Ni
  O101     1.0000 0.25458  0.67657  0.91226  Biso   1.000  O
  O102     1.0000 0.38376  0.68644  0.96292  Biso   1.000  O
  O103     1.0000 0.31320  0.61611  0.96293  Biso   1.000  O
  N21      1.0000 0.34400  0.66200  0.87880  Biso   1.000  N
  O104     1.0000 0.32330  0.74529  0.91230  Biso   1.000  O
  C221     1.0000 0.21877  0.69757  0.91902  Biso   1.000  C
  C222     1.0000 0.37820  0.68670  0.86390  Biso   1.000  C
  C223     1.0000 0.32270  0.63640  0.84970  Biso   1.000  C
  C224     1.0000 0.30272  0.78103  0.91891  Biso   1.000  C
  O105     1.0000 0.20983  0.72159  0.95220  Biso   1.000  O
  O106     1.0000 0.27835  0.79027  0.95238  Biso   1.000  O
  C225     1.0000 0.18271  0.69566  0.88337  Biso   1.000  C
  H101     1.0000 0.39080  0.70820  0.88260  Biso   1.000  H
  C226     1.0000 0.39470  0.68120  0.82240  Biso   1.000  C
  C227     1.0000 0.34180  0.62690  0.81010  Biso   1.000  C
  H102     1.0000 0.29450  0.62500  0.85670  Biso   1.000  H
  C228     1.0000 0.30413  0.81724  0.88366  Biso   1.000  C
  C229     1.0000 0.18895  0.67400  0.84349  Biso   1.000  C
  C230     1.0000 0.14283  0.71700  0.88947  Biso   1.000  C
  C231     1.0000 0.47670  0.68730  0.96101  Biso   1.000  C
  C232     1.0000 0.31210  0.52321  0.96088  Biso   1.000  C
  C233     1.0000 0.37930  0.64620  0.79830  Biso   1.000  C
  C234     1.0000 0.42960  0.71180  0.80520  Biso   1.000  C
  H103     1.0000 0.32820  0.60650  0.79090  Biso   1.000  H
  C235     1.0000 0.32660  0.81120  0.84387  Biso   1.000  C
  C236     1.0000 0.28350  0.85717  0.88938  Biso   1.000  C
  H104     1.0000 0.21590  0.65930  0.83810  Biso   1.000  H
  H105     1.0000 0.13750  0.73210  0.91620  Biso   1.000  H
  H106     1.0000 0.46150  0.68680  0.93380  Biso   1.000  H
  H107     1.0000 0.31230  0.53840  0.93370  Biso   1.000  H
  H108     1.0000 0.39520  0.63590  0.77360  Biso   1.000  H
  O107     1.0000 0.45060  0.70090  0.77070  Biso   1.000  O
  O108     1.0000 0.44770  0.73820  0.83240  Biso   1.000  O
  H109     1.0000 0.34250  0.78480  0.83910  Biso   1.000  H
  H110     1.0000 0.26910  0.86280  0.91640  Biso   1.000  H
  N22      1.0000 0.34080  0.65530  0.88120  Biso   1.000  N
  C237     1.0000 0.31520  0.62170  0.86490  Biso   1.000  C
  C238     1.0000 0.32080  0.60490  0.82280  Biso   1.000  C
  C239     1.0000 0.35760  0.61960  0.79900  Biso   1.000  C
  C240     1.0000 0.37630  0.65870  0.81080  Biso   1.000  C
  C241     1.0000 0.36820  0.67690  0.85200  Biso   1.000  C
  C242     1.0000 0.29060  0.56750  0.80560  Biso   1.000  C
  O109     1.0000 0.29900  0.54950  0.77040  Biso   1.000  O
  O110     1.0000 0.26180  0.55330  0.83000  Biso   1.000  O
  Ni12     1.0000 0.68236  0.68236  0.05843  Biso   1.000  Ni
  O111     1.0000 0.74542  0.67657  0.08774  Biso   1.000  O
  O112     1.0000 0.61624  0.68644  0.03708  Biso   1.000  O
  O113     1.0000 0.68680  0.61611  0.03707  Biso   1.000  O
  N23      1.0000 0.65600  0.66200  0.12120  Biso   1.000  N
  O114     1.0000 0.67670  0.74529  0.08770  Biso   1.000  O
  C243     1.0000 0.78123  0.69757  0.08098  Biso   1.000  C
  C244     1.0000 0.62180  0.68670  0.13610  Biso   1.000  C
  C245     1.0000 0.67730  0.63640  0.15030  Biso   1.000  C
  C246     1.0000 0.69728  0.78103  0.08109  Biso   1.000  C
  O115     1.0000 0.79017  0.72159  0.04780  Biso   1.000  O
  O116     1.0000 0.72165  0.79027  0.04762  Biso   1.000  O
  C247     1.0000 0.81729  0.69566  0.11663  Biso   1.000  C
  H111     1.0000 0.60920  0.70820  0.11740  Biso   1.000  H
  C248     1.0000 0.60530  0.68120  0.17760  Biso   1.000  C
  C249     1.0000 0.65820  0.62690  0.18990  Biso   1.000  C
  H112     1.0000 0.70550  0.62500  0.14330  Biso   1.000  H
  C250     1.0000 0.69587  0.81724  0.11634  Biso   1.000  C
  C251     1.0000 0.81105  0.67400  0.15651  Biso   1.000  C
  C252     1.0000 0.85717  0.71700  0.11053  Biso   1.000  C
  C253     1.0000 0.52330  0.68730  0.03899  Biso   1.000  C
  C254     1.0000 0.68790  0.52321  0.03912  Biso   1.000  C
  C255     1.0000 0.62070  0.64620  0.20170  Biso   1.000  C
  C256     1.0000 0.57040  0.71180  0.19480  Biso   1.000  C
  H113     1.0000 0.67180  0.60650  0.20910  Biso   1.000  H
  C257     1.0000 0.67340  0.81120  0.15613  Biso   1.000  C
  C258     1.0000 0.71650  0.85717  0.11062  Biso   1.000  C
  H114     1.0000 0.78410  0.65930  0.16190  Biso   1.000  H
  H115     1.0000 0.86250  0.73210  0.08380  Biso   1.000  H
  H116     1.0000 0.53850  0.68680  0.06620  Biso   1.000  H
  H117     1.0000 0.68770  0.53840  0.06630  Biso   1.000  H
  H118     1.0000 0.60480  0.63590  0.22640  Biso   1.000  H
  O117     1.0000 0.54940  0.70090  0.22930  Biso   1.000  O
  O118     1.0000 0.55230  0.73820  0.16760  Biso   1.000  O
  H119     1.0000 0.65750  0.78480  0.16090  Biso   1.000  H
  H120     1.0000 0.73090  0.86280  0.08360  Biso   1.000  H
  N24      1.0000 0.65920  0.65530  0.11880  Biso   1.000  N
  C259     1.0000 0.68480  0.62170  0.13510  Biso   1.000  C
  C260     1.0000 0.67920  0.60490  0.17720  Biso   1.000  C
  C261     1.0000 0.64240  0.61960  0.20100  Biso   1.000  C
  C262     1.0000 0.62370  0.65870  0.18920  Biso   1.000  C
  C263     1.0000 0.63180  0.67690  0.14800  Biso   1.000  C
  C264     1.0000 0.70940  0.56750  0.19440  Biso   1.000  C
  O119     1.0000 0.70100  0.54950  0.22960  Biso   1.000  O
  O120     1.0000 0.73820  0.55330  0.17000  Biso   1.000  O
  Ni13     1.0000 0.94157  0.68236  0.68236  Biso   1.000  Ni
  O121     1.0000 0.91226  0.74542  0.67657  Biso   1.000  O
  O122     1.0000 0.96292  0.61624  0.68644  Biso   1.000  O
  O123     1.0000 0.96293  0.68680  0.61611  Biso   1.000  O
  N25      1.0000 0.87880  0.65600  0.66200  Biso   1.000  N
  O124     1.0000 0.91230  0.67670  0.74529  Biso   1.000  O
  C265     1.0000 0.91902  0.78123  0.69757  Biso   1.000  C
  C266     1.0000 0.86390  0.62180  0.68670  Biso   1.000  C
  C267     1.0000 0.84970  0.67730  0.63640  Biso   1.000  C
  C268     1.0000 0.91891  0.69728  0.78103  Biso   1.000  C
  O125     1.0000 0.95220  0.79017  0.72159  Biso   1.000  O
  O126     1.0000 0.95238  0.72165  0.79027  Biso   1.000  O
  C269     1.0000 0.88337  0.81729  0.69566  Biso   1.000  C
  H121     1.0000 0.88260  0.60920  0.70820  Biso   1.000  H
  C270     1.0000 0.82240  0.60530  0.68120  Biso   1.000  C
  C271     1.0000 0.81010  0.65820  0.62690  Biso   1.000  C
  H122     1.0000 0.85670  0.70550  0.62500  Biso   1.000  H
  C272     1.0000 0.88366  0.69587  0.81724  Biso   1.000  C
  C273     1.0000 0.84349  0.81105  0.67400  Biso   1.000  C
  C274     1.0000 0.88947  0.85717  0.71700  Biso   1.000  C
  C275     1.0000 0.96101  0.52330  0.68730  Biso   1.000  C
  C276     1.0000 0.96088  0.68790  0.52321  Biso   1.000  C
  C277     1.0000 0.79830  0.62070  0.64620  Biso   1.000  C
  C278     1.0000 0.80520  0.57040  0.71180  Biso   1.000  C
  H123     1.0000 0.79090  0.67180  0.60650  Biso   1.000  H
  C279     1.0000 0.84387  0.67340  0.81120  Biso   1.000  C
  C280     1.0000 0.88938  0.71650  0.85717  Biso   1.000  C
  H124     1.0000 0.83810  0.78410  0.65930  Biso   1.000  H
  H125     1.0000 0.91620  0.86250  0.73210  Biso   1.000  H
  H126     1.0000 0.93380  0.53850  0.68680  Biso   1.000  H
  H127     1.0000 0.93370  0.68770  0.53840  Biso   1.000  H
  H128     1.0000 0.77360  0.60480  0.63590  Biso   1.000  H
  O127     1.0000 0.77070  0.54940  0.70090  Biso   1.000  O
  O128     1.0000 0.83240  0.55230  0.73820  Biso   1.000  O
  H129     1.0000 0.83910  0.65750  0.78480  Biso   1.000  H
  H130     1.0000 0.91640  0.73090  0.86280  Biso   1.000  H
  N26      1.0000 0.88120  0.65920  0.65530  Biso   1.000  N
  C281     1.0000 0.86490  0.68480  0.62170  Biso   1.000  C
  C282     1.0000 0.82280  0.67920  0.60490  Biso   1.000  C
  C283     1.0000 0.79900  0.64240  0.61960  Biso   1.000  C
  C284     1.0000 0.81080  0.62370  0.65870  Biso   1.000  C
  C285     1.0000 0.85200  0.63180  0.67690  Biso   1.000  C
  C286     1.0000 0.80560  0.70940  0.56750  Biso   1.000  C
  O129     1.0000 0.77040  0.70100  0.54950  Biso   1.000  O
  O130     1.0000 0.83000  0.73820  0.55330  Biso   1.000  O
  Ni14     1.0000 0.05843  0.31764  0.68236  Biso   1.000  Ni
  O131     1.0000 0.08774  0.25458  0.67657  Biso   1.000  O
  O132     1.0000 0.03708  0.38376  0.68644  Biso   1.000  O
  O133     1.0000 0.03707  0.31320  0.61611  Biso   1.000  O
  N27      1.0000 0.12120  0.34400  0.66200  Biso   1.000  N
  O134     1.0000 0.08770  0.32330  0.74529  Biso   1.000  O
  C287     1.0000 0.08098  0.21877  0.69757  Biso   1.000  C
  C288     1.0000 0.13610  0.37820  0.68670  Biso   1.000  C
  C289     1.0000 0.15030  0.32270  0.63640  Biso   1.000  C
  C290     1.0000 0.08109  0.30272  0.78103  Biso   1.000  C
  O135     1.0000 0.04780  0.20983  0.72159  Biso   1.000  O
  O136     1.0000 0.04762  0.27835  0.79027  Biso   1.000  O
  C291     1.0000 0.11663  0.18271  0.69566  Biso   1.000  C
  H131     1.0000 0.11740  0.39080  0.70820  Biso   1.000  H
  C292     1.0000 0.17760  0.39470  0.68120  Biso   1.000  C
  C293     1.0000 0.18990  0.34180  0.62690  Biso   1.000  C
  H132     1.0000 0.14330  0.29450  0.62500  Biso   1.000  H
  C294     1.0000 0.11634  0.30413  0.81724  Biso   1.000  C
  C295     1.0000 0.15651  0.18895  0.67400  Biso   1.000  C
  C296     1.0000 0.11053  0.14283  0.71700  Biso   1.000  C
  C297     1.0000 0.03899  0.47670  0.68730  Biso   1.000  C
  C298     1.0000 0.03912  0.31210  0.52321  Biso   1.000  C
  C299     1.0000 0.20170  0.37930  0.64620  Biso   1.000  C
  C300     1.0000 0.19480  0.42960  0.71180  Biso   1.000  C
  H133     1.0000 0.20910  0.32820  0.60650  Biso   1.000  H
  C301     1.0000 0.15613  0.32660  0.81120  Biso   1.000  C
  C302     1.0000 0.11062  0.28350  0.85717  Biso   1.000  C
  H134     1.0000 0.16190  0.21590  0.65930  Biso   1.000  H
  H135     1.0000 0.08380  0.13750  0.73210  Biso   1.000  H
  H136     1.0000 0.06620  0.46150  0.68680  Biso   1.000  H
  H137     1.0000 0.06630  0.31230  0.53840  Biso   1.000  H
  H138     1.0000 0.22640  0.39520  0.63590  Biso   1.000  H
  O137     1.0000 0.22930  0.45060  0.70090  Biso   1.000  O
  O138     1.0000 0.16760  0.44770  0.73820  Biso   1.000  O
  H139     1.0000 0.16090  0.34250  0.78480  Biso   1.000  H
  H140     1.0000 0.08360  0.26910  0.86280  Biso   1.000  H
  N28      1.0000 0.11880  0.34080  0.65530  Biso   1.000  N
  C303     1.0000 0.13510  0.31520  0.62170  Biso   1.000  C
  C304     1.0000 0.17720  0.32080  0.60490  Biso   1.000  C
  C305     1.0000 0.20100  0.35760  0.61960  Biso   1.000  C
  C306     1.0000 0.18920  0.37630  0.65870  Biso   1.000  C
  C307     1.0000 0.14800  0.36820  0.67690  Biso   1.000  C
  C308     1.0000 0.19440  0.29060  0.56750  Biso   1.000  C
  O139     1.0000 0.22960  0.29900  0.54950  Biso   1.000  O
  O140     1.0000 0.17000  0.26180  0.55330  Biso   1.000  O
  Ni15     1.0000 0.05843  0.68236  0.31764  Biso   1.000  Ni
  O141     1.0000 0.08774  0.74542  0.32343  Biso   1.000  O
  O142     1.0000 0.03708  0.61624  0.31356  Biso   1.000  O
  O143     1.0000 0.03707  0.68680  0.38389  Biso   1.000  O
  N29      1.0000 0.12120  0.65600  0.33800  Biso   1.000  N
  O144     1.0000 0.08770  0.67670  0.25471  Biso   1.000  O
  C309     1.0000 0.08098  0.78123  0.30243  Biso   1.000  C
  C310     1.0000 0.13610  0.62180  0.31330  Biso   1.000  C
  C311     1.0000 0.15030  0.67730  0.36360  Biso   1.000  C
  C312     1.0000 0.08109  0.69728  0.21897  Biso   1.000  C
  O145     1.0000 0.04780  0.79017  0.27841  Biso   1.000  O
  O146     1.0000 0.04762  0.72165  0.20973  Biso   1.000  O
  C313     1.0000 0.11663  0.81729  0.30434  Biso   1.000  C
  H141     1.0000 0.11740  0.60920  0.29180  Biso   1.000  H
  C314     1.0000 0.17760  0.60530  0.31880  Biso   1.000  C
  C315     1.0000 0.18990  0.65820  0.37310  Biso   1.000  C
  H142     1.0000 0.14330  0.70550  0.37500  Biso   1.000  H
  C316     1.0000 0.11634  0.69587  0.18276  Biso   1.000  C
  C317     1.0000 0.15651  0.81105  0.32600  Biso   1.000  C
  C318     1.0000 0.11053  0.85717  0.28300  Biso   1.000  C
  C319     1.0000 0.03899  0.52330  0.31270  Biso   1.000  C
  C320     1.0000 0.03912  0.68790  0.47679  Biso   1.000  C
  C321     1.0000 0.20170  0.62070  0.35380  Biso   1.000  C
  C322     1.0000 0.19480  0.57040  0.28820  Biso   1.000  C
  H143     1.0000 0.20910  0.67180  0.39350  Biso   1.000  H
  C323     1.0000 0.15613  0.67340  0.18880  Biso   1.000  C
  C324     1.0000 0.11062  0.71650  0.14283  Biso   1.000  C
  H144     1.0000 0.16190  0.78410  0.34070  Biso   1.000  H
  H145     1.0000 0.08380  0.86250  0.26790  Biso   1.000  H
  H146     1.0000 0.06620  0.53850  0.31320  Biso   1.000  H
  H147     1.0000 0.06630  0.68770  0.46160  Biso   1.000  H
  H148     1.0000 0.22640  0.60480  0.36410  Biso   1.000  H
  O147     1.0000 0.22930  0.54940  0.29910  Biso   1.000  O
  O148     1.0000 0.16760  0.55230  0.26180  Biso   1.000  O
  H149     1.0000 0.16090  0.65750  0.21520  Biso   1.000  H
  H150     1.0000 0.08360  0.73090  0.13720  Biso   1.000  H
  N30      1.0000 0.11880  0.65920  0.34470  Biso   1.000  N
  C325     1.0000 0.13510  0.68480  0.37830  Biso   1.000  C
  C326     1.0000 0.17720  0.67920  0.39510  Biso   1.000  C
  C327     1.0000 0.20100  0.64240  0.38040  Biso   1.000  C
  C328     1.0000 0.18920  0.62370  0.34130  Biso   1.000  C
  C329     1.0000 0.14800  0.63180  0.32310  Biso   1.000  C
  C330     1.0000 0.19440  0.70940  0.43250  Biso   1.000  C
  O149     1.0000 0.22960  0.70100  0.45050  Biso   1.000  O
  O150     1.0000 0.17000  0.73820  0.44670  Biso   1.000  O
  Ni16     1.0000 0.94157  0.31764  0.31764  Biso   1.000  Ni
  O151     1.0000 0.91226  0.25458  0.32343  Biso   1.000  O
  O152     1.0000 0.96292  0.38376  0.31356  Biso   1.000  O
  O153     1.0000 0.96293  0.31320  0.38389  Biso   1.000  O
  N31      1.0000 0.87880  0.34400  0.33800  Biso   1.000  N
  O154     1.0000 0.91230  0.32330  0.25471  Biso   1.000  O
  C331     1.0000 0.91902  0.21877  0.30243  Biso   1.000  C
  C332     1.0000 0.86390  0.37820  0.31330  Biso   1.000  C
  C333     1.0000 0.84970  0.32270  0.36360  Biso   1.000  C
  C334     1.0000 0.91891  0.30272  0.21897  Biso   1.000  C
  O155     1.0000 0.95220  0.20983  0.27841  Biso   1.000  O
  O156     1.0000 0.95238  0.27835  0.20973  Biso   1.000  O
  C335     1.0000 0.88337  0.18271  0.30434  Biso   1.000  C
  H151     1.0000 0.88260  0.39080  0.29180  Biso   1.000  H
  C336     1.0000 0.82240  0.39470  0.31880  Biso   1.000  C
  C337     1.0000 0.81010  0.34180  0.37310  Biso   1.000  C
  H152     1.0000 0.85670  0.29450  0.37500  Biso   1.000  H
  C338     1.0000 0.88366  0.30413  0.18276  Biso   1.000  C
  C339     1.0000 0.84349  0.18895  0.32600  Biso   1.000  C
  C340     1.0000 0.88947  0.14283  0.28300  Biso   1.000  C
  C341     1.0000 0.96101  0.47670  0.31270  Biso   1.000  C
  C342     1.0000 0.96088  0.31210  0.47679  Biso   1.000  C
  C343     1.0000 0.79830  0.37930  0.35380  Biso   1.000  C
  C344     1.0000 0.80520  0.42960  0.28820  Biso   1.000  C
  H153     1.0000 0.79090  0.32820  0.39350  Biso   1.000  H
  C345     1.0000 0.84387  0.32660  0.18880  Biso   1.000  C
  C346     1.0000 0.88938  0.28350  0.14283  Biso   1.000  C
  H154     1.0000 0.83810  0.21590  0.34070  Biso   1.000  H
  H155     1.0000 0.91620  0.13750  0.26790  Biso   1.000  H
  H156     1.0000 0.93380  0.46150  0.31320  Biso   1.000  H
  H157     1.0000 0.93370  0.31230  0.46160  Biso   1.000  H
  H158     1.0000 0.77360  0.39520  0.36410  Biso   1.000  H
  O157     1.0000 0.77070  0.45060  0.29910  Biso   1.000  O
  O158     1.0000 0.83240  0.44770  0.26180  Biso   1.000  O
  H159     1.0000 0.83910  0.34250  0.21520  Biso   1.000  H
  H160     1.0000 0.91640  0.26910  0.13720  Biso   1.000  H
  N32      1.0000 0.88120  0.34080  0.34470  Biso   1.000  N
  C347     1.0000 0.86490  0.31520  0.37830  Biso   1.000  C
  C348     1.0000 0.82280  0.32080  0.39510  Biso   1.000  C
  C349     1.0000 0.79900  0.35760  0.38040  Biso   1.000  C
  C350     1.0000 0.81080  0.37630  0.34130  Biso   1.000  C
  C351     1.0000 0.85200  0.36820  0.32310  Biso   1.000  C
  C352     1.0000 0.80560  0.29060  0.43250  Biso   1.000  C
  O159     1.0000 0.77040  0.29900  0.45050  Biso   1.000  O
  O160     1.0000 0.83000  0.26180  0.44670  Biso   1.000  O
  Ni17     1.0000 0.68236  0.94157  0.68236  Biso   1.000  Ni
  O161     1.0000 0.67657  0.91226  0.74542  Biso   1.000  O
  O162     1.0000 0.68644  0.96292  0.61624  Biso   1.000  O
  O163     1.0000 0.61611  0.96293  0.68680  Biso   1.000  O
  N33      1.0000 0.66200  0.87880  0.65600  Biso   1.000  N
  O164     1.0000 0.74529  0.91230  0.67670  Biso   1.000  O
  C353     1.0000 0.69757  0.91902  0.78123  Biso   1.000  C
  C354     1.0000 0.68670  0.86390  0.62180  Biso   1.000  C
  C355     1.0000 0.63640  0.84970  0.67730  Biso   1.000  C
  C356     1.0000 0.78103  0.91891  0.69728  Biso   1.000  C
  O165     1.0000 0.72159  0.95220  0.79017  Biso   1.000  O
  O166     1.0000 0.79027  0.95238  0.72165  Biso   1.000  O
  C357     1.0000 0.69566  0.88337  0.81729  Biso   1.000  C
  H161     1.0000 0.70820  0.88260  0.60920  Biso   1.000  H
  C358     1.0000 0.68120  0.82240  0.60530  Biso   1.000  C
  C359     1.0000 0.62690  0.81010  0.65820  Biso   1.000  C
  H162     1.0000 0.62500  0.85670  0.70550  Biso   1.000  H
  C360     1.0000 0.81724  0.88366  0.69587  Biso   1.000  C
  C361     1.0000 0.67400  0.84349  0.81105  Biso   1.000  C
  C362     1.0000 0.71700  0.88947  0.85717  Biso   1.000  C
  C363     1.0000 0.68730  0.96101  0.52330  Biso   1.000  C
  C364     1.0000 0.52321  0.96088  0.68790  Biso   1.000  C
  C365     1.0000 0.64620  0.79830  0.62070  Biso   1.000  C
  C366     1.0000 0.71180  0.80520  0.57040  Biso   1.000  C
  H163     1.0000 0.60650  0.79090  0.67180  Biso   1.000  H
  C367     1.0000 0.81120  0.84387  0.67340  Biso   1.000  C
  C368     1.0000 0.85717  0.88938  0.71650  Biso   1.000  C
  H164     1.0000 0.65930  0.83810  0.78410  Biso   1.000  H
  H165     1.0000 0.73210  0.91620  0.86250  Biso   1.000  H
  H166     1.0000 0.68680  0.93380  0.53850  Biso   1.000  H
  H167     1.0000 0.53840  0.93370  0.68770  Biso   1.000  H
  H168     1.0000 0.63590  0.77360  0.60480  Biso   1.000  H
  O167     1.0000 0.70090  0.77070  0.54940  Biso   1.000  O
  O168     1.0000 0.73820  0.83240  0.55230  Biso   1.000  O
  H169     1.0000 0.78480  0.83910  0.65750  Biso   1.000  H
  H170     1.0000 0.86280  0.91640  0.73090  Biso   1.000  H
  N34      1.0000 0.65530  0.88120  0.65920  Biso   1.000  N
  C369     1.0000 0.62170  0.86490  0.68480  Biso   1.000  C
  C370     1.0000 0.60490  0.82280  0.67920  Biso   1.000  C
  C371     1.0000 0.61960  0.79900  0.64240  Biso   1.000  C
  C372     1.0000 0.65870  0.81080  0.62370  Biso   1.000  C
  C373     1.0000 0.67690  0.85200  0.63180  Biso   1.000  C
  C374     1.0000 0.56750  0.80560  0.70940  Biso   1.000  C
  O169     1.0000 0.54950  0.77040  0.70100  Biso   1.000  O
  O170     1.0000 0.55330  0.83000  0.73820  Biso   1.000  O
  Ni18     1.0000 0.68236  0.05843  0.31764  Biso   1.000  Ni
  O171     1.0000 0.67657  0.08774  0.25458  Biso   1.000  O
  O172     1.0000 0.68644  0.03708  0.38376  Biso   1.000  O
  O173     1.0000 0.61611  0.03707  0.31320  Biso   1.000  O
  N35      1.0000 0.66200  0.12120  0.34400  Biso   1.000  N
  O174     1.0000 0.74529  0.08770  0.32330  Biso   1.000  O
  C375     1.0000 0.69757  0.08098  0.21877  Biso   1.000  C
  C376     1.0000 0.68670  0.13610  0.37820  Biso   1.000  C
  C377     1.0000 0.63640  0.15030  0.32270  Biso   1.000  C
  C378     1.0000 0.78103  0.08109  0.30272  Biso   1.000  C
  O175     1.0000 0.72159  0.04780  0.20983  Biso   1.000  O
  O176     1.0000 0.79027  0.04762  0.27835  Biso   1.000  O
  C379     1.0000 0.69566  0.11663  0.18271  Biso   1.000  C
  H171     1.0000 0.70820  0.11740  0.39080  Biso   1.000  H
  C380     1.0000 0.68120  0.17760  0.39470  Biso   1.000  C
  C381     1.0000 0.62690  0.18990  0.34180  Biso   1.000  C
  H172     1.0000 0.62500  0.14330  0.29450  Biso   1.000  H
  C382     1.0000 0.81724  0.11634  0.30413  Biso   1.000  C
  C383     1.0000 0.67400  0.15651  0.18895  Biso   1.000  C
  C384     1.0000 0.71700  0.11053  0.14283  Biso   1.000  C
  C385     1.0000 0.68730  0.03899  0.47670  Biso   1.000  C
  C386     1.0000 0.52321  0.03912  0.31210  Biso   1.000  C
  C387     1.0000 0.64620  0.20170  0.37930  Biso   1.000  C
  C388     1.0000 0.71180  0.19480  0.42960  Biso   1.000  C
  H173     1.0000 0.60650  0.20910  0.32820  Biso   1.000  H
  C389     1.0000 0.81120  0.15613  0.32660  Biso   1.000  C
  C390     1.0000 0.85717  0.11062  0.28350  Biso   1.000  C
  H174     1.0000 0.65930  0.16190  0.21590  Biso   1.000  H
  H175     1.0000 0.73210  0.08380  0.13750  Biso   1.000  H
  H176     1.0000 0.68680  0.06620  0.46150  Biso   1.000  H
  H177     1.0000 0.53840  0.06630  0.31230  Biso   1.000  H
  H178     1.0000 0.63590  0.22640  0.39520  Biso   1.000  H
  O177     1.0000 0.70090  0.22930  0.45060  Biso   1.000  O
  O178     1.0000 0.73820  0.16760  0.44770  Biso   1.000  O
  H179     1.0000 0.78480  0.16090  0.34250  Biso   1.000  H
  H180     1.0000 0.86280  0.08360  0.26910  Biso   1.000  H
  N36      1.0000 0.65530  0.11880  0.34080  Biso   1.000  N
  C391     1.0000 0.62170  0.13510  0.31520  Biso   1.000  C
  C392     1.0000 0.60490  0.17720  0.32080  Biso   1.000  C
  C393     1.0000 0.61960  0.20100  0.35760  Biso   1.000  C
  C394     1.0000 0.65870  0.18920  0.37630  Biso   1.000  C
  C395     1.0000 0.67690  0.14800  0.36820  Biso   1.000  C
  C396     1.0000 0.56750  0.19440  0.29060  Biso   1.000  C
  O179     1.0000 0.54950  0.22960  0.29900  Biso   1.000  O
  O180     1.0000 0.55330  0.17000  0.26180  Biso   1.000  O
  Ni19     1.0000 0.31764  0.05843  0.68236  Biso   1.000  Ni
  O181     1.0000 0.32343  0.08774  0.74542  Biso   1.000  O
  O182     1.0000 0.31356  0.03708  0.61624  Biso   1.000  O
  O183     1.0000 0.38389  0.03707  0.68680  Biso   1.000  O
  N37      1.0000 0.33800  0.12120  0.65600  Biso   1.000  N
  O184     1.0000 0.25471  0.08770  0.67670  Biso   1.000  O
  C397     1.0000 0.30243  0.08098  0.78123  Biso   1.000  C
  C398     1.0000 0.31330  0.13610  0.62180  Biso   1.000  C
  C399     1.0000 0.36360  0.15030  0.67730  Biso   1.000  C
  C400     1.0000 0.21897  0.08109  0.69728  Biso   1.000  C
  O185     1.0000 0.27841  0.04780  0.79017  Biso   1.000  O
  O186     1.0000 0.20973  0.04762  0.72165  Biso   1.000  O
  C401     1.0000 0.30434  0.11663  0.81729  Biso   1.000  C
  H181     1.0000 0.29180  0.11740  0.60920  Biso   1.000  H
  C402     1.0000 0.31880  0.17760  0.60530  Biso   1.000  C
  C403     1.0000 0.37310  0.18990  0.65820  Biso   1.000  C
  H182     1.0000 0.37500  0.14330  0.70550  Biso   1.000  H
  C404     1.0000 0.18276  0.11634  0.69587  Biso   1.000  C
  C405     1.0000 0.32600  0.15651  0.81105  Biso   1.000  C
  C406     1.0000 0.28300  0.11053  0.85717  Biso   1.000  C
  C407     1.0000 0.31270  0.03899  0.52330  Biso   1.000  C
  C408     1.0000 0.47679  0.03912  0.68790  Biso   1.000  C
  C409     1.0000 0.35380  0.20170  0.62070  Biso   1.000  C
  C410     1.0000 0.28820  0.19480  0.57040  Biso   1.000  C
  H183     1.0000 0.39350  0.20910  0.67180  Biso   1.000  H
  C411     1.0000 0.18880  0.15613  0.67340  Biso   1.000  C
  C412     1.0000 0.14283  0.11062  0.71650  Biso   1.000  C
  H184     1.0000 0.34070  0.16190  0.78410  Biso   1.000  H
  H185     1.0000 0.26790  0.08380  0.86250  Biso   1.000  H
  H186     1.0000 0.31320  0.06620  0.53850  Biso   1.000  H
  H187     1.0000 0.46160  0.06630  0.68770  Biso   1.000  H
  H188     1.0000 0.36410  0.22640  0.60480  Biso   1.000  H
  O187     1.0000 0.29910  0.22930  0.54940  Biso   1.000  O
  O188     1.0000 0.26180  0.16760  0.55230  Biso   1.000  O
  H189     1.0000 0.21520  0.16090  0.65750  Biso   1.000  H
  H190     1.0000 0.13720  0.08360  0.73090  Biso   1.000  H
  N38      1.0000 0.34470  0.11880  0.65920  Biso   1.000  N
  C413     1.0000 0.37830  0.13510  0.68480  Biso   1.000  C
  C414     1.0000 0.39510  0.17720  0.67920  Biso   1.000  C
  C415     1.0000 0.38040  0.20100  0.64240  Biso   1.000  C
  C416     1.0000 0.34130  0.18920  0.62370  Biso   1.000  C
  C417     1.0000 0.32310  0.14800  0.63180  Biso   1.000  C
  C418     1.0000 0.43250  0.19440  0.70940  Biso   1.000  C
  O189     1.0000 0.45050  0.22960  0.70100  Biso   1.000  O
  O190     1.0000 0.44670  0.17000  0.73820  Biso   1.000  O
  Ni20     1.0000 0.31764  0.94157  0.31764  Biso   1.000  Ni
  O191     1.0000 0.32343  0.91226  0.25458  Biso   1.000  O
  O192     1.0000 0.31356  0.96292  0.38376  Biso   1.000  O
  O193     1.0000 0.38389  0.96293  0.31320  Biso   1.000  O
  N39      1.0000 0.33800  0.87880  0.34400  Biso   1.000  N
  O194     1.0000 0.25471  0.91230  0.32330  Biso   1.000  O
  C419     1.0000 0.30243  0.91902  0.21877  Biso   1.000  C
  C420     1.0000 0.31330  0.86390  0.37820  Biso   1.000  C
  C421     1.0000 0.36360  0.84970  0.32270  Biso   1.000  C
  C422     1.0000 0.21897  0.91891  0.30272  Biso   1.000  C
  O195     1.0000 0.27841  0.95220  0.20983  Biso   1.000  O
  O196     1.0000 0.20973  0.95238  0.27835  Biso   1.000  O
  C423     1.0000 0.30434  0.88337  0.18271  Biso   1.000  C
  H191     1.0000 0.29180  0.88260  0.39080  Biso   1.000  H
  C424     1.0000 0.31880  0.82240  0.39470  Biso   1.000  C
  C425     1.0000 0.37310  0.81010  0.34180  Biso   1.000  C
  H192     1.0000 0.37500  0.85670  0.29450  Biso   1.000  H
  C426     1.0000 0.18276  0.88366  0.30413  Biso   1.000  C
  C427     1.0000 0.32600  0.84349  0.18895  Biso   1.000  C
  C428     1.0000 0.28300  0.88947  0.14283  Biso   1.000  C
  C429     1.0000 0.31270  0.96101  0.47670  Biso   1.000  C
  C430     1.0000 0.47679  0.96088  0.31210  Biso   1.000  C
  C431     1.0000 0.35380  0.79830  0.37930  Biso   1.000  C
  C432     1.0000 0.28820  0.80520  0.42960  Biso   1.000  C
  H193     1.0000 0.39350  0.79090  0.32820  Biso   1.000  H
  C433     1.0000 0.18880  0.84387  0.32660  Biso   1.000  C
  C434     1.0000 0.14283  0.88938  0.28350  Biso   1.000  C
  H194     1.0000 0.34070  0.83810  0.21590  Biso   1.000  H
  H195     1.0000 0.26790  0.91620  0.13750  Biso   1.000  H
  H196     1.0000 0.31320  0.93380  0.46150  Biso   1.000  H
  H197     1.0000 0.46160  0.93370  0.31230  Biso   1.000  H
  H198     1.0000 0.36410  0.77360  0.39520  Biso   1.000  H
  O197     1.0000 0.29910  0.77070  0.45060  Biso   1.000  O
  O198     1.0000 0.26180  0.83240  0.44770  Biso   1.000  O
  H199     1.0000 0.21520  0.83910  0.34250  Biso   1.000  H
  H200     1.0000 0.13720  0.91640  0.26910  Biso   1.000  H
  N40      1.0000 0.34470  0.88120  0.34080  Biso   1.000  N
  C435     1.0000 0.37830  0.86490  0.31520  Biso   1.000  C
  C436     1.0000 0.39510  0.82280  0.32080  Biso   1.000  C
  C437     1.0000 0.38040  0.79900  0.35760  Biso   1.000  C
  C438     1.0000 0.34130  0.81080  0.37630  Biso   1.000  C
  C439     1.0000 0.32310  0.85200  0.36820  Biso   1.000  C
  C440     1.0000 0.43250  0.80560  0.29060  Biso   1.000  C
  O199     1.0000 0.45050  0.77040  0.29900  Biso   1.000  O
  O200     1.0000 0.44670  0.83000  0.26180  Biso   1.000  O
  Ni21     1.0000 0.68236  0.68236  0.94157  Biso   1.000  Ni
  O201     1.0000 0.74542  0.67657  0.91226  Biso   1.000  O
  O202     1.0000 0.61624  0.68644  0.96292  Biso   1.000  O
  O203     1.0000 0.68680  0.61611  0.96293  Biso   1.000  O
  N41      1.0000 0.65600  0.66200  0.87880  Biso   1.000  N
  O204     1.0000 0.67670  0.74529  0.91230  Biso   1.000  O
  C441     1.0000 0.78123  0.69757  0.91902  Biso   1.000  C
  C442     1.0000 0.62180  0.68670  0.86390  Biso   1.000  C
  C443     1.0000 0.67730  0.63640  0.84970  Biso   1.000  C
  C444     1.0000 0.69728  0.78103  0.91891  Biso   1.000  C
  O205     1.0000 0.79017  0.72159  0.95220  Biso   1.000  O
  O206     1.0000 0.72165  0.79027  0.95238  Biso   1.000  O
  C445     1.0000 0.81729  0.69566  0.88337  Biso   1.000  C
  H201     1.0000 0.60920  0.70820  0.88260  Biso   1.000  H
  C446     1.0000 0.60530  0.68120  0.82240  Biso   1.000  C
  C447     1.0000 0.65820  0.62690  0.81010  Biso   1.000  C
  H202     1.0000 0.70550  0.62500  0.85670  Biso   1.000  H
  C448     1.0000 0.69587  0.81724  0.88366  Biso   1.000  C
  C449     1.0000 0.81105  0.67400  0.84349  Biso   1.000  C
  C450     1.0000 0.85717  0.71700  0.88947  Biso   1.000  C
  C451     1.0000 0.52330  0.68730  0.96101  Biso   1.000  C
  C452     1.0000 0.68790  0.52321  0.96088  Biso   1.000  C
  C453     1.0000 0.62070  0.64620  0.79830  Biso   1.000  C
  C454     1.0000 0.57040  0.71180  0.80520  Biso   1.000  C
  H203     1.0000 0.67180  0.60650  0.79090  Biso   1.000  H
  C455     1.0000 0.67340  0.81120  0.84387  Biso   1.000  C
  C456     1.0000 0.71650  0.85717  0.88938  Biso   1.000  C
  H204     1.0000 0.78410  0.65930  0.83810  Biso   1.000  H
  H205     1.0000 0.86250  0.73210  0.91620  Biso   1.000  H
  H206     1.0000 0.53850  0.68680  0.93380  Biso   1.000  H
  H207     1.0000 0.68770  0.53840  0.93370  Biso   1.000  H
  H208     1.0000 0.60480  0.63590  0.77360  Biso   1.000  H
  O207     1.0000 0.54940  0.70090  0.77070  Biso   1.000  O
  O208     1.0000 0.55230  0.73820  0.83240  Biso   1.000  O
  H209     1.0000 0.65750  0.78480  0.83910  Biso   1.000  H
  H210     1.0000 0.73090  0.86280  0.91640  Biso   1.000  H
  N42      1.0000 0.65920  0.65530  0.88120  Biso   1.000  N
  C457     1.0000 0.68480  0.62170  0.86490  Biso   1.000  C
  C458     1.0000 0.67920  0.60490  0.82280  Biso   1.000  C
  C459     1.0000 0.64240  0.61960  0.79900  Biso   1.000  C
  C460     1.0000 0.62370  0.65870  0.81080  Biso   1.000  C
  C461     1.0000 0.63180  0.67690  0.85200  Biso   1.000  C
  C462     1.0000 0.70940  0.56750  0.80560  Biso   1.000  C
  O209     1.0000 0.70100  0.54950  0.77040  Biso   1.000  O
  O210     1.0000 0.73820  0.55330  0.83000  Biso   1.000  O
  Ni22     1.0000 0.31764  0.68236  0.05843  Biso   1.000  Ni
  O211     1.0000 0.25458  0.67657  0.08774  Biso   1.000  O
  O212     1.0000 0.38376  0.68644  0.03708  Biso   1.000  O
  O213     1.0000 0.31320  0.61611  0.03707  Biso   1.000  O
  N43      1.0000 0.34400  0.66200  0.12120  Biso   1.000  N
  O214     1.0000 0.32330  0.74529  0.08770  Biso   1.000  O
  C463     1.0000 0.21877  0.69757  0.08098  Biso   1.000  C
  C464     1.0000 0.37820  0.68670  0.13610  Biso   1.000  C
  C465     1.0000 0.32270  0.63640  0.15030  Biso   1.000  C
  C466     1.0000 0.30272  0.78103  0.08109  Biso   1.000  C
  O215     1.0000 0.20983  0.72159  0.04780  Biso   1.000  O
  O216     1.0000 0.27835  0.79027  0.04762  Biso   1.000  O
  C467     1.0000 0.18271  0.69566  0.11663  Biso   1.000  C
  H211     1.0000 0.39080  0.70820  0.11740  Biso   1.000  H
  C468     1.0000 0.39470  0.68120  0.17760  Biso   1.000  C
  C469     1.0000 0.34180  0.62690  0.18990  Biso   1.000  C
  H212     1.0000 0.29450  0.62500  0.14330  Biso   1.000  H
  C470     1.0000 0.30413  0.81724  0.11634  Biso   1.000  C
  C471     1.0000 0.18895  0.67400  0.15651  Biso   1.000  C
  C472     1.0000 0.14283  0.71700  0.11053  Biso   1.000  C
  C473     1.0000 0.47670  0.68730  0.03899  Biso   1.000  C
  C474     1.0000 0.31210  0.52321  0.03912  Biso   1.000  C
  C475     1.0000 0.37930  0.64620  0.20170  Biso   1.000  C
  C476     1.0000 0.42960  0.71180  0.19480  Biso   1.000  C
  H213     1.0000 0.32820  0.60650  0.20910  Biso   1.000  H
  C477     1.0000 0.32660  0.81120  0.15613  Biso   1.000  C
  C478     1.0000 0.28350  0.85717  0.11062  Biso   1.000  C
  H214     1.0000 0.21590  0.65930  0.16190  Biso   1.000  H
  H215     1.0000 0.13750  0.73210  0.08380  Biso   1.000  H
  H216     1.0000 0.46150  0.68680  0.06620  Biso   1.000  H
  H217     1.0000 0.31230  0.53840  0.06630  Biso   1.000  H
  H218     1.0000 0.39520  0.63590  0.22640  Biso   1.000  H
  O217     1.0000 0.45060  0.70090  0.22930  Biso   1.000  O
  O218     1.0000 0.44770  0.73820  0.16760  Biso   1.000  O
  H219     1.0000 0.34250  0.78480  0.16090  Biso   1.000  H
  H220     1.0000 0.26910  0.86280  0.08360  Biso   1.000  H
  N44      1.0000 0.34080  0.65530  0.11880  Biso   1.000  N
  C479     1.0000 0.31520  0.62170  0.13510  Biso   1.000  C
  C480     1.0000 0.32080  0.60490  0.17720  Biso   1.000  C
  C481     1.0000 0.35760  0.61960  0.20100  Biso   1.000  C
  C482     1.0000 0.37630  0.65870  0.18920  Biso   1.000  C
  C483     1.0000 0.36820  0.67690  0.14800  Biso   1.000  C
  C484     1.0000 0.29060  0.56750  0.19440  Biso   1.000  C
  O219     1.0000 0.29900  0.54950  0.22960  Biso   1.000  O
  O220     1.0000 0.26180  0.55330  0.17000  Biso   1.000  O
  Ni23     1.0000 0.68236  0.31764  0.05843  Biso   1.000  Ni
  O221     1.0000 0.74542  0.32343  0.08774  Biso   1.000  O
  O222     1.0000 0.61624  0.31356  0.03708  Biso   1.000  O
  O223     1.0000 0.68680  0.38389  0.03707  Biso   1.000  O
  N45      1.0000 0.65600  0.33800  0.12120  Biso   1.000  N
  O224     1.0000 0.67670  0.25471  0.08770  Biso   1.000  O
  C485     1.0000 0.78123  0.30243  0.08098  Biso   1.000  C
  C486     1.0000 0.62180  0.31330  0.13610  Biso   1.000  C
  C487     1.0000 0.67730  0.36360  0.15030  Biso   1.000  C
  C488     1.0000 0.69728  0.21897  0.08109  Biso   1.000  C
  O225     1.0000 0.79017  0.27841  0.04780  Biso   1.000  O
  O226     1.0000 0.72165  0.20973  0.04762  Biso   1.000  O
  C489     1.0000 0.81729  0.30434  0.11663  Biso   1.000  C
  H221     1.0000 0.60920  0.29180  0.11740  Biso   1.000  H
  C490     1.0000 0.60530  0.31880  0.17760  Biso   1.000  C
  C491     1.0000 0.65820  0.37310  0.18990  Biso   1.000  C
  H222     1.0000 0.70550  0.37500  0.14330  Biso   1.000  H
  C492     1.0000 0.69587  0.18276  0.11634  Biso   1.000  C
  C493     1.0000 0.81105  0.32600  0.15651  Biso   1.000  C
  C494     1.0000 0.85717  0.28300  0.11053  Biso   1.000  C
  C495     1.0000 0.52330  0.31270  0.03899  Biso   1.000  C
  C496     1.0000 0.68790  0.47679  0.03912  Biso   1.000  C
  C497     1.0000 0.62070  0.35380  0.20170  Biso   1.000  C
  C498     1.0000 0.57040  0.28820  0.19480  Biso   1.000  C
  H223     1.0000 0.67180  0.39350  0.20910  Biso   1.000  H
  C499     1.0000 0.67340  0.18880  0.15613  Biso   1.000  C
  C500     1.0000 0.71650  0.14283  0.11062  Biso   1.000  C
  H224     1.0000 0.78410  0.34070  0.16190  Biso   1.000  H
  H225     1.0000 0.86250  0.26790  0.08380  Biso   1.000  H
  H226     1.0000 0.53850  0.31320  0.06620  Biso   1.000  H
  H227     1.0000 0.68770  0.46160  0.06630  Biso   1.000  H
  H228     1.0000 0.60480  0.36410  0.22640  Biso   1.000  H
  O227     1.0000 0.54940  0.29910  0.22930  Biso   1.000  O
  O228     1.0000 0.55230  0.26180  0.16760  Biso   1.000  O
  H229     1.0000 0.65750  0.21520  0.16090  Biso   1.000  H
  H230     1.0000 0.73090  0.13720  0.08360  Biso   1.000  H
  N46      1.0000 0.65920  0.34470  0.11880  Biso   1.000  N
  C501     1.0000 0.68480  0.37830  0.13510  Biso   1.000  C
  C502     1.0000 0.67920  0.39510  0.17720  Biso   1.000  C
  C503     1.0000 0.64240  0.38040  0.20100  Biso   1.000  C
  C504     1.0000 0.62370  0.34130  0.18920  Biso   1.000  C
  C505     1.0000 0.63180  0.32310  0.14800  Biso   1.000  C
  C506     1.0000 0.70940  0.43250  0.19440  Biso   1.000  C
  O229     1.0000 0.70100  0.45050  0.22960  Biso   1.000  O
  O230     1.0000 0.73820  0.44670  0.17000  Biso   1.000  O
  Ni24     1.0000 0.31764  0.31764  0.94157  Biso   1.000  Ni
  O231     1.0000 0.25458  0.32343  0.91226  Biso   1.000  O
  O232     1.0000 0.38376  0.31356  0.96292  Biso   1.000  O
  O233     1.0000 0.31320  0.38389  0.96293  Biso   1.000  O
  N47      1.0000 0.34400  0.33800  0.87880  Biso   1.000  N
  O234     1.0000 0.32330  0.25471  0.91230  Biso   1.000  O
  C507     1.0000 0.21877  0.30243  0.91902  Biso   1.000  C
  C508     1.0000 0.37820  0.31330  0.86390  Biso   1.000  C
  C509     1.0000 0.32270  0.36360  0.84970  Biso   1.000  C
  C510     1.0000 0.30272  0.21897  0.91891  Biso   1.000  C
  O235     1.0000 0.20983  0.27841  0.95220  Biso   1.000  O
  O236     1.0000 0.27835  0.20973  0.95238  Biso   1.000  O
  C511     1.0000 0.18271  0.30434  0.88337  Biso   1.000  C
  H231     1.0000 0.39080  0.29180  0.88260  Biso   1.000  H
  C512     1.0000 0.39470  0.31880  0.82240  Biso   1.000  C
  C513     1.0000 0.34180  0.37310  0.81010  Biso   1.000  C
  H232     1.0000 0.29450  0.37500  0.85670  Biso   1.000  H
  C514     1.0000 0.30413  0.18276  0.88366  Biso   1.000  C
  C515     1.0000 0.18895  0.32600  0.84349  Biso   1.000  C
  C516     1.0000 0.14283  0.28300  0.88947  Biso   1.000  C
  C517     1.0000 0.47670  0.31270  0.96101  Biso   1.000  C
  C518     1.0000 0.31210  0.47679  0.96088  Biso   1.000  C
  C519     1.0000 0.37930  0.35380  0.79830  Biso   1.000  C
  C520     1.0000 0.42960  0.28820  0.80520  Biso   1.000  C
  H233     1.0000 0.32820  0.39350  0.79090  Biso   1.000  H
  C521     1.0000 0.32660  0.18880  0.84387  Biso   1.000  C
  C522     1.0000 0.28350  0.14283  0.88938  Biso   1.000  C
  H234     1.0000 0.21590  0.34070  0.83810  Biso   1.000  H
  H235     1.0000 0.13750  0.26790  0.91620  Biso   1.000  H
  H236     1.0000 0.46150  0.31320  0.93380  Biso   1.000  H
  H237     1.0000 0.31230  0.46160  0.93370  Biso   1.000  H
  H238     1.0000 0.39520  0.36410  0.77360  Biso   1.000  H
  O237     1.0000 0.45060  0.29910  0.77070  Biso   1.000  O
  O238     1.0000 0.44770  0.26180  0.83240  Biso   1.000  O
  H239     1.0000 0.34250  0.21520  0.83910  Biso   1.000  H
  H240     1.0000 0.26910  0.13720  0.91640  Biso   1.000  H
  N48      1.0000 0.34080  0.34470  0.88120  Biso   1.000  N
  C523     1.0000 0.31520  0.37830  0.86490  Biso   1.000  C
  C524     1.0000 0.32080  0.39510  0.82280  Biso   1.000  C
  C525     1.0000 0.35760  0.38040  0.79900  Biso   1.000  C
  C526     1.0000 0.37630  0.34130  0.81080  Biso   1.000  C
  C527     1.0000 0.36820  0.32310  0.85200  Biso   1.000  C
  C528     1.0000 0.29060  0.43250  0.80560  Biso   1.000  C
  O239     1.0000 0.29900  0.45050  0.77040  Biso   1.000  O
  O240     1.0000 0.26180  0.44670  0.83000  Biso   1.000  O
  O241     1.0000 0.00000  0.29460  0.29446  Biso   1.000  O
  Ni25     1.0000 0.00000  0.24760  0.24761  Biso   1.000  Ni
  C529     1.0000 0.00000  0.40199  0.31270  Biso   1.000  C
  C530     1.0000 0.00000  0.31270  0.40212  Biso   1.000  C
  C531     1.0000 0.00000  0.45250  0.31180  Biso   1.000  C
  C532     1.0000 0.00000  0.31180  0.45270  Biso   1.000  C
  O242     1.0000 0.00000  0.70540  0.29446  Biso   1.000  O
  Ni26     1.0000 0.00000  0.75240  0.24761  Biso   1.000  Ni
  C533     1.0000 0.00000  0.59801  0.31270  Biso   1.000  C
  C534     1.0000 0.00000  0.68730  0.40212  Biso   1.000  C
  C535     1.0000 0.00000  0.54750  0.31180  Biso   1.000  C
  C536     1.0000 0.00000  0.68820  0.45270  Biso   1.000  C
  O243     1.0000 0.00000  0.29460  0.70554  Biso   1.000  O
  Ni27     1.0000 0.00000  0.24760  0.75239  Biso   1.000  Ni
  C537     1.0000 0.00000  0.40199  0.68730  Biso   1.000  C
  C538     1.0000 0.00000  0.31270  0.59788  Biso   1.000  C
  C539     1.0000 0.00000  0.45250  0.68820  Biso   1.000  C
  C540     1.0000 0.00000  0.31180  0.54730  Biso   1.000  C
  O244     1.0000 0.00000  0.70540  0.70554  Biso   1.000  O
  Ni28     1.0000 0.00000  0.75240  0.75239  Biso   1.000  Ni
  C541     1.0000 0.00000  0.59801  0.68730  Biso   1.000  C
  C542     1.0000 0.00000  0.68730  0.59788  Biso   1.000  C
  C543     1.0000 0.00000  0.54750  0.68820  Biso   1.000  C
  C544     1.0000 0.00000  0.68820  0.54730  Biso   1.000  C
  O245     1.0000 0.29446  0.00000  0.29460  Biso   1.000  O
  Ni29     1.0000 0.24761  0.00000  0.24760  Biso   1.000  Ni
  C545     1.0000 0.31270  0.00000  0.40199  Biso   1.000  C
  C546     1.0000 0.40212  0.00000  0.31270  Biso   1.000  C
  C547     1.0000 0.31180  0.00000  0.45250  Biso   1.000  C
  C548     1.0000 0.45270  0.00000  0.31180  Biso   1.000  C
  O246     1.0000 0.29446  0.00000  0.70540  Biso   1.000  O
  Ni30     1.0000 0.24761  0.00000  0.75240  Biso   1.000  Ni
  C549     1.0000 0.31270  0.00000  0.59801  Biso   1.000  C
  C550     1.0000 0.40212  0.00000  0.68730  Biso   1.000  C
  C551     1.0000 0.31180  0.00000  0.54750  Biso   1.000  C
  C552     1.0000 0.45270  0.00000  0.68820  Biso   1.000  C
  O247     1.0000 0.70554  0.00000  0.29460  Biso   1.000  O
  Ni31     1.0000 0.75239  0.00000  0.24760  Biso   1.000  Ni
  C553     1.0000 0.68730  0.00000  0.40199  Biso   1.000  C
  C554     1.0000 0.59788  0.00000  0.31270  Biso   1.000  C
  C555     1.0000 0.68820  0.00000  0.45250  Biso   1.000  C
  C556     1.0000 0.54730  0.00000  0.31180  Biso   1.000  C
  O248     1.0000 0.70554  0.00000  0.70540  Biso   1.000  O
  Ni32     1.0000 0.75239  0.00000  0.75240  Biso   1.000  Ni
  C557     1.0000 0.68730  0.00000  0.59801  Biso   1.000  C
  C558     1.0000 0.59788  0.00000  0.68730  Biso   1.000  C
  C559     1.0000 0.68820  0.00000  0.54750  Biso   1.000  C
  C560     1.0000 0.54730  0.00000  0.68820  Biso   1.000  C
  O249     1.0000 0.29460  0.29446  0.00000  Biso   1.000  O
  Ni33     1.0000 0.24760  0.24761  0.00000  Biso   1.000  Ni
  C561     1.0000 0.40199  0.31270  0.00000  Biso   1.000  C
  C562     1.0000 0.31270  0.40212  0.00000  Biso   1.000  C
  C563     1.0000 0.45250  0.31180  0.00000  Biso   1.000  C
  C564     1.0000 0.31180  0.45270  0.00000  Biso   1.000  C
  O250     1.0000 0.70540  0.29446  0.00000  Biso   1.000  O
  Ni34     1.0000 0.75240  0.24761  0.00000  Biso   1.000  Ni
  C565     1.0000 0.59801  0.31270  0.00000  Biso   1.000  C
  C566     1.0000 0.68730  0.40212  0.00000  Biso   1.000  C
  C567     1.0000 0.54750  0.31180  0.00000  Biso   1.000  C
  C568     1.0000 0.68820  0.45270  0.00000  Biso   1.000  C
  O251     1.0000 0.29460  0.70554  0.00000  Biso   1.000  O
  Ni35     1.0000 0.24760  0.75239  0.00000  Biso   1.000  Ni
  C569     1.0000 0.40199  0.68730  0.00000  Biso   1.000  C
  C570     1.0000 0.31270  0.59788  0.00000  Biso   1.000  C
  C571     1.0000 0.45250  0.68820  0.00000  Biso   1.000  C
  C572     1.0000 0.31180  0.54730  0.00000  Biso   1.000  C
  O252     1.0000 0.70540  0.70554  0.00000  Biso   1.000  O
  Ni36     1.0000 0.75240  0.75239  0.00000  Biso   1.000  Ni
  C573     1.0000 0.59801  0.68730  0.00000  Biso   1.000  C
  C574     1.0000 0.68730  0.59788  0.00000  Biso   1.000  C
  C575     1.0000 0.54750  0.68820  0.00000  Biso   1.000  C
  C576     1.0000 0.68820  0.54730  0.00000  Biso   1.000  C
  Ni37     1.0000 0.26428  0.50000  0.26432  Biso   1.000  Ni
  Ni38     1.0000 0.73572  0.50000  0.26432  Biso   1.000  Ni
  Ni39     1.0000 0.73572  0.50000  0.73568  Biso   1.000  Ni
  Ni40     1.0000 0.26428  0.50000  0.73568  Biso   1.000  Ni
  Ni41     1.0000 0.26432  0.26428  0.50000  Biso   1.000  Ni
  Ni42     1.0000 0.26432  0.73572  0.50000  Biso   1.000  Ni
  Ni43     1.0000 0.73568  0.73572  0.50000  Biso   1.000  Ni
  Ni44     1.0000 0.73568  0.26428  0.50000  Biso   1.000  Ni
  Ni45     1.0000 0.50000  0.26432  0.26428  Biso   1.000  Ni
  Ni46     1.0000 0.50000  0.26432  0.73572  Biso   1.000  Ni
  Ni47     1.0000 0.50000  0.73568  0.73572  Biso   1.000  Ni
  Ni48     1.0000 0.50000  0.73568  0.26428  Biso   1.000  Ni
