data_image0
_cell_length_a       17.5632
_cell_length_b       17.5632
_cell_length_c       17.5632
_cell_angle_alpha    90
_cell_angle_beta     90
_cell_angle_gamma    90

_symmetry_space_group_name_H-M    "P 1"
_symmetry_int_tables_number       1

loop_
  _symmetry_equiv_pos_as_xyz
  'x, y, z'

loop_
  _atom_site_label
  _atom_site_occupancy
  _atom_site_fract_x
  _atom_site_fract_y
  _atom_site_fract_z
  _atom_site_thermal_displace_type
  _atom_site_B_iso_or_equiv
  _atom_site_type_symbol
  H1       1.0000 0.47780  0.46300  0.73350  Biso   1.000  H
  H2       1.0000 0.14410  0.45970  0.49100  Biso   1.000  H
  H3       1.0000 0.18030  0.52690  0.45680  Biso   1.000  H
  H4       1.0000 0.46290  0.59780  0.79220  Biso   1.000  H
  H5       1.0000 0.43300  0.64480  0.67550  Biso   1.000  H
  H6       1.0000 0.31860  0.58860  0.71280  Biso   1.000  H
  H7       1.0000 0.32460  0.50150  0.69210  Biso   1.000  H
  H8       1.0000 0.31980  0.63600  0.58160  Biso   1.000  H
  H9       1.0000 0.25710  0.57560  0.59790  Biso   1.000  H
  H10      1.0000 0.35960  0.50620  0.56360  Biso   1.000  H
  H11      1.0000 0.32250  0.54840  0.49530  Biso   1.000  H
  H12      1.0000 0.26870  0.43440  0.48940  Biso   1.000  H
  H13      1.0000 0.23990  0.43740  0.57310  Biso   1.000  H
  H14      1.0000 0.52220  0.53700  0.73350  Biso   1.000  H
  H15      1.0000 0.85590  0.54030  0.49100  Biso   1.000  H
  H16      1.0000 0.81970  0.47310  0.45680  Biso   1.000  H
  H17      1.0000 0.53710  0.40220  0.79220  Biso   1.000  H
  H18      1.0000 0.56700  0.35520  0.67550  Biso   1.000  H
  H19      1.0000 0.68140  0.41140  0.71280  Biso   1.000  H
  H20      1.0000 0.67540  0.49850  0.69210  Biso   1.000  H
  H21      1.0000 0.68020  0.36400  0.58160  Biso   1.000  H
  H22      1.0000 0.74290  0.42440  0.59790  Biso   1.000  H
  H23      1.0000 0.64040  0.49380  0.56360  Biso   1.000  H
  H24      1.0000 0.67750  0.45160  0.49530  Biso   1.000  H
  H25      1.0000 0.73130  0.56560  0.48940  Biso   1.000  H
  H26      1.0000 0.76010  0.56260  0.57310  Biso   1.000  H
  H27      1.0000 0.52220  0.46300  0.26650  Biso   1.000  H
  H28      1.0000 0.85590  0.45970  0.50900  Biso   1.000  H
  H29      1.0000 0.81970  0.52690  0.54320  Biso   1.000  H
  H30      1.0000 0.53710  0.59780  0.20780  Biso   1.000  H
  H31      1.0000 0.56700  0.64480  0.32450  Biso   1.000  H
  H32      1.0000 0.68140  0.58860  0.28720  Biso   1.000  H
  H33      1.0000 0.67540  0.50150  0.30790  Biso   1.000  H
  H34      1.0000 0.68020  0.63600  0.41840  Biso   1.000  H
  H35      1.0000 0.74290  0.57560  0.40210  Biso   1.000  H
  H36      1.0000 0.64040  0.50620  0.43640  Biso   1.000  H
  H37      1.0000 0.67750  0.54840  0.50470  Biso   1.000  H
  H38      1.0000 0.73130  0.43440  0.51060  Biso   1.000  H
  H39      1.0000 0.76010  0.43740  0.42690  Biso   1.000  H
  H40      1.0000 0.47780  0.53700  0.26650  Biso   1.000  H
  H41      1.0000 0.14410  0.54030  0.50900  Biso   1.000  H
  H42      1.0000 0.18030  0.47310  0.54320  Biso   1.000  H
  H43      1.0000 0.46290  0.40220  0.20780  Biso   1.000  H
  H44      1.0000 0.43300  0.35520  0.32450  Biso   1.000  H
  H45      1.0000 0.31860  0.41140  0.28720  Biso   1.000  H
  H46      1.0000 0.32460  0.49850  0.30790  Biso   1.000  H
  H47      1.0000 0.31980  0.36400  0.41840  Biso   1.000  H
  H48      1.0000 0.25710  0.42440  0.40210  Biso   1.000  H
  H49      1.0000 0.35960  0.49380  0.43640  Biso   1.000  H
  H50      1.0000 0.32250  0.45160  0.50470  Biso   1.000  H
  H51      1.0000 0.26870  0.56560  0.51060  Biso   1.000  H
  H52      1.0000 0.23990  0.56260  0.42690  Biso   1.000  H
  H53      1.0000 0.73350  0.47780  0.46300  Biso   1.000  H
  H54      1.0000 0.49100  0.14410  0.45970  Biso   1.000  H
  H55      1.0000 0.45680  0.18030  0.52690  Biso   1.000  H
  H56      1.0000 0.79220  0.46290  0.59780  Biso   1.000  H
  H57      1.0000 0.67550  0.43300  0.64480  Biso   1.000  H
  H58      1.0000 0.71280  0.31860  0.58860  Biso   1.000  H
  H59      1.0000 0.69210  0.32460  0.50150  Biso   1.000  H
  H60      1.0000 0.58160  0.31980  0.63600  Biso   1.000  H
  H61      1.0000 0.59790  0.25710  0.57560  Biso   1.000  H
  H62      1.0000 0.56360  0.35960  0.50620  Biso   1.000  H
  H63      1.0000 0.49530  0.32250  0.54840  Biso   1.000  H
  H64      1.0000 0.48940  0.26870  0.43440  Biso   1.000  H
  H65      1.0000 0.57310  0.23990  0.43740  Biso   1.000  H
  H66      1.0000 0.73350  0.52220  0.53700  Biso   1.000  H
  H67      1.0000 0.49100  0.85590  0.54030  Biso   1.000  H
  H68      1.0000 0.45680  0.81970  0.47310  Biso   1.000  H
  H69      1.0000 0.79220  0.53710  0.40220  Biso   1.000  H
  H70      1.0000 0.67550  0.56700  0.35520  Biso   1.000  H
  H71      1.0000 0.71280  0.68140  0.41140  Biso   1.000  H
  H72      1.0000 0.69210  0.67540  0.49850  Biso   1.000  H
  H73      1.0000 0.58160  0.68020  0.36400  Biso   1.000  H
  H74      1.0000 0.59790  0.74290  0.42440  Biso   1.000  H
  H75      1.0000 0.56360  0.64040  0.49380  Biso   1.000  H
  H76      1.0000 0.49530  0.67750  0.45160  Biso   1.000  H
  H77      1.0000 0.48940  0.73130  0.56560  Biso   1.000  H
  H78      1.0000 0.57310  0.76010  0.56260  Biso   1.000  H
  H79      1.0000 0.26650  0.52220  0.46300  Biso   1.000  H
  H80      1.0000 0.50900  0.85590  0.45970  Biso   1.000  H
  H81      1.0000 0.54320  0.81970  0.52690  Biso   1.000  H
  H82      1.0000 0.20780  0.53710  0.59780  Biso   1.000  H
  H83      1.0000 0.32450  0.56700  0.64480  Biso   1.000  H
  H84      1.0000 0.28720  0.68140  0.58860  Biso   1.000  H
  H85      1.0000 0.30790  0.67540  0.50150  Biso   1.000  H
  H86      1.0000 0.41840  0.68020  0.63600  Biso   1.000  H
  H87      1.0000 0.40210  0.74290  0.57560  Biso   1.000  H
  H88      1.0000 0.43640  0.64040  0.50620  Biso   1.000  H
  H89      1.0000 0.50470  0.67750  0.54840  Biso   1.000  H
  H90      1.0000 0.51060  0.73130  0.43440  Biso   1.000  H
  H91      1.0000 0.42690  0.76010  0.43740  Biso   1.000  H
  H92      1.0000 0.26650  0.47780  0.53700  Biso   1.000  H
  H93      1.0000 0.50900  0.14410  0.54030  Biso   1.000  H
  H94      1.0000 0.54320  0.18030  0.47310  Biso   1.000  H
  H95      1.0000 0.20780  0.46290  0.40220  Biso   1.000  H
  H96      1.0000 0.32450  0.43300  0.35520  Biso   1.000  H
  H97      1.0000 0.28720  0.31860  0.41140  Biso   1.000  H
  H98      1.0000 0.30790  0.32460  0.49850  Biso   1.000  H
  H99      1.0000 0.41840  0.31980  0.36400  Biso   1.000  H
  H100     1.0000 0.40210  0.25710  0.42440  Biso   1.000  H
  H101     1.0000 0.43640  0.35960  0.49380  Biso   1.000  H
  H102     1.0000 0.50470  0.32250  0.45160  Biso   1.000  H
  H103     1.0000 0.51060  0.26870  0.56560  Biso   1.000  H
  H104     1.0000 0.42690  0.23990  0.56260  Biso   1.000  H
  H105     1.0000 0.46300  0.73350  0.47780  Biso   1.000  H
  H106     1.0000 0.45970  0.49100  0.14410  Biso   1.000  H
  H107     1.0000 0.52690  0.45680  0.18030  Biso   1.000  H
  H108     1.0000 0.59780  0.79220  0.46290  Biso   1.000  H
  H109     1.0000 0.64480  0.67550  0.43300  Biso   1.000  H
  H110     1.0000 0.58860  0.71280  0.31860  Biso   1.000  H
  H111     1.0000 0.50150  0.69210  0.32460  Biso   1.000  H
  H112     1.0000 0.63600  0.58160  0.31980  Biso   1.000  H
  H113     1.0000 0.57560  0.59790  0.25710  Biso   1.000  H
  H114     1.0000 0.50620  0.56360  0.35960  Biso   1.000  H
  H115     1.0000 0.54840  0.49530  0.32250  Biso   1.000  H
  H116     1.0000 0.43440  0.48940  0.26870  Biso   1.000  H
  H117     1.0000 0.43740  0.57310  0.23990  Biso   1.000  H
  H118     1.0000 0.53700  0.73350  0.52220  Biso   1.000  H
  H119     1.0000 0.54030  0.49100  0.85590  Biso   1.000  H
  H120     1.0000 0.47310  0.45680  0.81970  Biso   1.000  H
  H121     1.0000 0.40220  0.79220  0.53710  Biso   1.000  H
  H122     1.0000 0.35520  0.67550  0.56700  Biso   1.000  H
  H123     1.0000 0.41140  0.71280  0.68140  Biso   1.000  H
  H124     1.0000 0.49850  0.69210  0.67540  Biso   1.000  H
  H125     1.0000 0.36400  0.58160  0.68020  Biso   1.000  H
  H126     1.0000 0.42440  0.59790  0.74290  Biso   1.000  H
  H127     1.0000 0.49380  0.56360  0.64040  Biso   1.000  H
  H128     1.0000 0.45160  0.49530  0.67750  Biso   1.000  H
  H129     1.0000 0.56560  0.48940  0.73130  Biso   1.000  H
  H130     1.0000 0.56260  0.57310  0.76010  Biso   1.000  H
  H131     1.0000 0.46300  0.26650  0.52220  Biso   1.000  H
  H132     1.0000 0.45970  0.50900  0.85590  Biso   1.000  H
  H133     1.0000 0.52690  0.54320  0.81970  Biso   1.000  H
  H134     1.0000 0.59780  0.20780  0.53710  Biso   1.000  H
  H135     1.0000 0.64480  0.32450  0.56700  Biso   1.000  H
  H136     1.0000 0.58860  0.28720  0.68140  Biso   1.000  H
  H137     1.0000 0.50150  0.30790  0.67540  Biso   1.000  H
  H138     1.0000 0.63600  0.41840  0.68020  Biso   1.000  H
  H139     1.0000 0.57560  0.40210  0.74290  Biso   1.000  H
  H140     1.0000 0.50620  0.43640  0.64040  Biso   1.000  H
  H141     1.0000 0.54840  0.50470  0.67750  Biso   1.000  H
  H142     1.0000 0.43440  0.51060  0.73130  Biso   1.000  H
  H143     1.0000 0.43740  0.42690  0.76010  Biso   1.000  H
  H144     1.0000 0.53700  0.26650  0.47780  Biso   1.000  H
  H145     1.0000 0.54030  0.50900  0.14410  Biso   1.000  H
  H146     1.0000 0.47310  0.54320  0.18030  Biso   1.000  H
  H147     1.0000 0.40220  0.20780  0.46290  Biso   1.000  H
  H148     1.0000 0.35520  0.32450  0.43300  Biso   1.000  H
  H149     1.0000 0.41140  0.28720  0.31860  Biso   1.000  H
  H150     1.0000 0.49850  0.30790  0.32460  Biso   1.000  H
  H151     1.0000 0.36400  0.41840  0.31980  Biso   1.000  H
  H152     1.0000 0.42440  0.40210  0.25710  Biso   1.000  H
  H153     1.0000 0.49380  0.43640  0.35960  Biso   1.000  H
  H154     1.0000 0.45160  0.50470  0.32250  Biso   1.000  H
  H155     1.0000 0.56560  0.51060  0.26870  Biso   1.000  H
  H156     1.0000 0.56260  0.42690  0.23990  Biso   1.000  H
  H157     1.0000 0.46300  0.47780  0.73350  Biso   1.000  H
  H158     1.0000 0.45970  0.14410  0.49100  Biso   1.000  H
  H159     1.0000 0.52690  0.18030  0.45680  Biso   1.000  H
  H160     1.0000 0.59780  0.46290  0.79220  Biso   1.000  H
  H161     1.0000 0.64480  0.43300  0.67550  Biso   1.000  H
  H162     1.0000 0.58860  0.31860  0.71280  Biso   1.000  H
  H163     1.0000 0.50150  0.32460  0.69210  Biso   1.000  H
  H164     1.0000 0.63600  0.31980  0.58160  Biso   1.000  H
  H165     1.0000 0.57560  0.25710  0.59790  Biso   1.000  H
  H166     1.0000 0.50620  0.35960  0.56360  Biso   1.000  H
  H167     1.0000 0.54840  0.32250  0.49530  Biso   1.000  H
  H168     1.0000 0.43440  0.26870  0.48940  Biso   1.000  H
  H169     1.0000 0.43740  0.23990  0.57310  Biso   1.000  H
  H170     1.0000 0.53700  0.52220  0.73350  Biso   1.000  H
  H171     1.0000 0.54030  0.85590  0.49100  Biso   1.000  H
  H172     1.0000 0.47310  0.81970  0.45680  Biso   1.000  H
  H173     1.0000 0.40220  0.53710  0.79220  Biso   1.000  H
  H174     1.0000 0.35520  0.56700  0.67550  Biso   1.000  H
  H175     1.0000 0.41140  0.68140  0.71280  Biso   1.000  H
  H176     1.0000 0.49850  0.67540  0.69210  Biso   1.000  H
  H177     1.0000 0.36400  0.68020  0.58160  Biso   1.000  H
  H178     1.0000 0.42440  0.74290  0.59790  Biso   1.000  H
  H179     1.0000 0.49380  0.64040  0.56360  Biso   1.000  H
  H180     1.0000 0.45160  0.67750  0.49530  Biso   1.000  H
  H181     1.0000 0.56560  0.73130  0.48940  Biso   1.000  H
  H182     1.0000 0.56260  0.76010  0.57310  Biso   1.000  H
  H183     1.0000 0.46300  0.52220  0.26650  Biso   1.000  H
  H184     1.0000 0.45970  0.85590  0.50900  Biso   1.000  H
  H185     1.0000 0.52690  0.81970  0.54320  Biso   1.000  H
  H186     1.0000 0.59780  0.53710  0.20780  Biso   1.000  H
  H187     1.0000 0.64480  0.56700  0.32450  Biso   1.000  H
  H188     1.0000 0.58860  0.68140  0.28720  Biso   1.000  H
  H189     1.0000 0.50150  0.67540  0.30790  Biso   1.000  H
  H190     1.0000 0.63600  0.68020  0.41840  Biso   1.000  H
  H191     1.0000 0.57560  0.74290  0.40210  Biso   1.000  H
  H192     1.0000 0.50620  0.64040  0.43640  Biso   1.000  H
  H193     1.0000 0.54840  0.67750  0.50470  Biso   1.000  H
  H194     1.0000 0.43440  0.73130  0.51060  Biso   1.000  H
  H195     1.0000 0.43740  0.76010  0.42690  Biso   1.000  H
  H196     1.0000 0.53700  0.47780  0.26650  Biso   1.000  H
  H197     1.0000 0.54030  0.14410  0.50900  Biso   1.000  H
  H198     1.0000 0.47310  0.18030  0.54320  Biso   1.000  H
  H199     1.0000 0.40220  0.46290  0.20780  Biso   1.000  H
  H200     1.0000 0.35520  0.43300  0.32450  Biso   1.000  H
  H201     1.0000 0.41140  0.31860  0.28720  Biso   1.000  H
  H202     1.0000 0.49850  0.32460  0.30790  Biso   1.000  H
  H203     1.0000 0.36400  0.31980  0.41840  Biso   1.000  H
  H204     1.0000 0.42440  0.25710  0.40210  Biso   1.000  H
  H205     1.0000 0.49380  0.35960  0.43640  Biso   1.000  H
  H206     1.0000 0.45160  0.32250  0.50470  Biso   1.000  H
  H207     1.0000 0.56560  0.26870  0.51060  Biso   1.000  H
  H208     1.0000 0.56260  0.23990  0.42690  Biso   1.000  H
  H209     1.0000 0.47780  0.73350  0.46300  Biso   1.000  H
  H210     1.0000 0.14410  0.49100  0.45970  Biso   1.000  H
  H211     1.0000 0.18030  0.45680  0.52690  Biso   1.000  H
  H212     1.0000 0.46290  0.79220  0.59780  Biso   1.000  H
  H213     1.0000 0.43300  0.67550  0.64480  Biso   1.000  H
  H214     1.0000 0.31860  0.71280  0.58860  Biso   1.000  H
  H215     1.0000 0.32460  0.69210  0.50150  Biso   1.000  H
  H216     1.0000 0.31980  0.58160  0.63600  Biso   1.000  H
  H217     1.0000 0.25710  0.59790  0.57560  Biso   1.000  H
  H218     1.0000 0.35960  0.56360  0.50620  Biso   1.000  H
  H219     1.0000 0.32250  0.49530  0.54840  Biso   1.000  H
  H220     1.0000 0.26870  0.48940  0.43440  Biso   1.000  H
  H221     1.0000 0.23990  0.57310  0.43740  Biso   1.000  H
  H222     1.0000 0.52220  0.73350  0.53700  Biso   1.000  H
  H223     1.0000 0.85590  0.49100  0.54030  Biso   1.000  H
  H224     1.0000 0.81970  0.45680  0.47310  Biso   1.000  H
  H225     1.0000 0.53710  0.79220  0.40220  Biso   1.000  H
  H226     1.0000 0.56700  0.67550  0.35520  Biso   1.000  H
  H227     1.0000 0.68140  0.71280  0.41140  Biso   1.000  H
  H228     1.0000 0.67540  0.69210  0.49850  Biso   1.000  H
  H229     1.0000 0.68020  0.58160  0.36400  Biso   1.000  H
  H230     1.0000 0.74290  0.59790  0.42440  Biso   1.000  H
  H231     1.0000 0.64040  0.56360  0.49380  Biso   1.000  H
  H232     1.0000 0.67750  0.49530  0.45160  Biso   1.000  H
  H233     1.0000 0.73130  0.48940  0.56560  Biso   1.000  H
  H234     1.0000 0.76010  0.57310  0.56260  Biso   1.000  H
  H235     1.0000 0.52220  0.26650  0.46300  Biso   1.000  H
  H236     1.0000 0.85590  0.50900  0.45970  Biso   1.000  H
  H237     1.0000 0.81970  0.54320  0.52690  Biso   1.000  H
  H238     1.0000 0.53710  0.20780  0.59780  Biso   1.000  H
  H239     1.0000 0.56700  0.32450  0.64480  Biso   1.000  H
  H240     1.0000 0.68140  0.28720  0.58860  Biso   1.000  H
  H241     1.0000 0.67540  0.30790  0.50150  Biso   1.000  H
  H242     1.0000 0.68020  0.41840  0.63600  Biso   1.000  H
  H243     1.0000 0.74290  0.40210  0.57560  Biso   1.000  H
  H244     1.0000 0.64040  0.43640  0.50620  Biso   1.000  H
  H245     1.0000 0.67750  0.50470  0.54840  Biso   1.000  H
  H246     1.0000 0.73130  0.51060  0.43440  Biso   1.000  H
  H247     1.0000 0.76010  0.42690  0.43740  Biso   1.000  H
  H248     1.0000 0.47780  0.26650  0.53700  Biso   1.000  H
  H249     1.0000 0.14410  0.50900  0.54030  Biso   1.000  H
  H250     1.0000 0.18030  0.54320  0.47310  Biso   1.000  H
  H251     1.0000 0.46290  0.20780  0.40220  Biso   1.000  H
  H252     1.0000 0.43300  0.32450  0.35520  Biso   1.000  H
  H253     1.0000 0.31860  0.28720  0.41140  Biso   1.000  H
  H254     1.0000 0.32460  0.30790  0.49850  Biso   1.000  H
  H255     1.0000 0.31980  0.41840  0.36400  Biso   1.000  H
  H256     1.0000 0.25710  0.40210  0.42440  Biso   1.000  H
  H257     1.0000 0.35960  0.43640  0.49380  Biso   1.000  H
  H258     1.0000 0.32250  0.50470  0.45160  Biso   1.000  H
  H259     1.0000 0.26870  0.51060  0.56560  Biso   1.000  H
  H260     1.0000 0.23990  0.42690  0.56260  Biso   1.000  H
  H261     1.0000 0.73350  0.46300  0.47780  Biso   1.000  H
  H262     1.0000 0.49100  0.45970  0.14410  Biso   1.000  H
  H263     1.0000 0.45680  0.52690  0.18030  Biso   1.000  H
  H264     1.0000 0.79220  0.59780  0.46290  Biso   1.000  H
  H265     1.0000 0.67550  0.64480  0.43300  Biso   1.000  H
  H266     1.0000 0.71280  0.58860  0.31860  Biso   1.000  H
  H267     1.0000 0.69210  0.50150  0.32460  Biso   1.000  H
  H268     1.0000 0.58160  0.63600  0.31980  Biso   1.000  H
  H269     1.0000 0.59790  0.57560  0.25710  Biso   1.000  H
  H270     1.0000 0.56360  0.50620  0.35960  Biso   1.000  H
  H271     1.0000 0.49530  0.54840  0.32250  Biso   1.000  H
  H272     1.0000 0.48940  0.43440  0.26870  Biso   1.000  H
  H273     1.0000 0.57310  0.43740  0.23990  Biso   1.000  H
  H274     1.0000 0.73350  0.53700  0.52220  Biso   1.000  H
  H275     1.0000 0.49100  0.54030  0.85590  Biso   1.000  H
  H276     1.0000 0.45680  0.47310  0.81970  Biso   1.000  H
  H277     1.0000 0.79220  0.40220  0.53710  Biso   1.000  H
  H278     1.0000 0.67550  0.35520  0.56700  Biso   1.000  H
  H279     1.0000 0.71280  0.41140  0.68140  Biso   1.000  H
  H280     1.0000 0.69210  0.49850  0.67540  Biso   1.000  H
  H281     1.0000 0.58160  0.36400  0.68020  Biso   1.000  H
  H282     1.0000 0.59790  0.42440  0.74290  Biso   1.000  H
  H283     1.0000 0.56360  0.49380  0.64040  Biso   1.000  H
  H284     1.0000 0.49530  0.45160  0.67750  Biso   1.000  H
  H285     1.0000 0.48940  0.56560  0.73130  Biso   1.000  H
  H286     1.0000 0.57310  0.56260  0.76010  Biso   1.000  H
  H287     1.0000 0.26650  0.46300  0.52220  Biso   1.000  H
  H288     1.0000 0.50900  0.45970  0.85590  Biso   1.000  H
  H289     1.0000 0.54320  0.52690  0.81970  Biso   1.000  H
  H290     1.0000 0.20780  0.59780  0.53710  Biso   1.000  H
  H291     1.0000 0.32450  0.64480  0.56700  Biso   1.000  H
  H292     1.0000 0.28720  0.58860  0.68140  Biso   1.000  H
  H293     1.0000 0.30790  0.50150  0.67540  Biso   1.000  H
  H294     1.0000 0.41840  0.63600  0.68020  Biso   1.000  H
  H295     1.0000 0.40210  0.57560  0.74290  Biso   1.000  H
  H296     1.0000 0.43640  0.50620  0.64040  Biso   1.000  H
  H297     1.0000 0.50470  0.54840  0.67750  Biso   1.000  H
  H298     1.0000 0.51060  0.43440  0.73130  Biso   1.000  H
  H299     1.0000 0.42690  0.43740  0.76010  Biso   1.000  H
  H300     1.0000 0.26650  0.53700  0.47780  Biso   1.000  H
  H301     1.0000 0.50900  0.54030  0.14410  Biso   1.000  H
  H302     1.0000 0.54320  0.47310  0.18030  Biso   1.000  H
  H303     1.0000 0.20780  0.40220  0.46290  Biso   1.000  H
  H304     1.0000 0.32450  0.35520  0.43300  Biso   1.000  H
  H305     1.0000 0.28720  0.41140  0.31860  Biso   1.000  H
  H306     1.0000 0.30790  0.49850  0.32460  Biso   1.000  H
  H307     1.0000 0.41840  0.36400  0.31980  Biso   1.000  H
  H308     1.0000 0.40210  0.42440  0.25710  Biso   1.000  H
  H309     1.0000 0.43640  0.49380  0.35960  Biso   1.000  H
  H310     1.0000 0.50470  0.45160  0.32250  Biso   1.000  H
  H311     1.0000 0.51060  0.56560  0.26870  Biso   1.000  H
  H312     1.0000 0.42690  0.56260  0.23990  Biso   1.000  H
  O1       1.0000 0.37010  0.62990  0.62990  Biso   1.000  O
  O2       1.0000 0.62990  0.37010  0.62990  Biso   1.000  O
  O3       1.0000 0.62990  0.62990  0.37010  Biso   1.000  O
  O4       1.0000 0.37010  0.37010  0.37010  Biso   1.000  O
  H313     1.0000 0.52030  0.47970  0.80360  Biso   1.000  H
  C1       1.0000 0.43970  0.56030  0.76240  Biso   1.000  C
  C2       1.0000 0.41840  0.58160  0.68000  Biso   1.000  C
  H314     1.0000 0.43780  0.56220  0.63650  Biso   1.000  H
  H315     1.0000 0.47970  0.52030  0.80360  Biso   1.000  H
  C3       1.0000 0.56030  0.43970  0.76240  Biso   1.000  C
  C4       1.0000 0.58160  0.41840  0.68000  Biso   1.000  C
  H316     1.0000 0.56220  0.43780  0.63650  Biso   1.000  H
  H317     1.0000 0.47970  0.47970  0.19640  Biso   1.000  H
  C5       1.0000 0.56030  0.56030  0.23760  Biso   1.000  C
  C6       1.0000 0.58160  0.58160  0.32000  Biso   1.000  C
  H318     1.0000 0.56220  0.56220  0.36350  Biso   1.000  H
  H319     1.0000 0.52030  0.52030  0.19640  Biso   1.000  H
  C7       1.0000 0.43970  0.43970  0.23760  Biso   1.000  C
  C8       1.0000 0.41840  0.41840  0.32000  Biso   1.000  C
  H320     1.0000 0.43780  0.43780  0.36350  Biso   1.000  H
  H321     1.0000 0.80360  0.52030  0.47970  Biso   1.000  H
  C9       1.0000 0.76240  0.43970  0.56030  Biso   1.000  C
  C10      1.0000 0.68000  0.41840  0.58160  Biso   1.000  C
  H322     1.0000 0.63650  0.43780  0.56220  Biso   1.000  H
  H323     1.0000 0.80360  0.47970  0.52030  Biso   1.000  H
  C11      1.0000 0.76240  0.56030  0.43970  Biso   1.000  C
  C12      1.0000 0.68000  0.58160  0.41840  Biso   1.000  C
  H324     1.0000 0.63650  0.56220  0.43780  Biso   1.000  H
  H325     1.0000 0.19640  0.47970  0.47970  Biso   1.000  H
  C13      1.0000 0.23760  0.56030  0.56030  Biso   1.000  C
  C14      1.0000 0.32000  0.58160  0.58160  Biso   1.000  C
  H326     1.0000 0.36350  0.56220  0.56220  Biso   1.000  H
  H327     1.0000 0.19640  0.52030  0.52030  Biso   1.000  H
  C15      1.0000 0.23760  0.43970  0.43970  Biso   1.000  C
  C16      1.0000 0.32000  0.41840  0.41840  Biso   1.000  C
  H328     1.0000 0.36350  0.43780  0.43780  Biso   1.000  H
  H329     1.0000 0.47970  0.80360  0.52030  Biso   1.000  H
  C17      1.0000 0.56030  0.76240  0.43970  Biso   1.000  C
  C18      1.0000 0.58160  0.68000  0.41840  Biso   1.000  C
  H330     1.0000 0.56220  0.63650  0.43780  Biso   1.000  H
  H331     1.0000 0.52030  0.80360  0.47970  Biso   1.000  H
  C19      1.0000 0.43970  0.76240  0.56030  Biso   1.000  C
  C20      1.0000 0.41840  0.68000  0.58160  Biso   1.000  C
  H332     1.0000 0.43780  0.63650  0.56220  Biso   1.000  H
  H333     1.0000 0.47970  0.19640  0.47970  Biso   1.000  H
  C21      1.0000 0.56030  0.23760  0.56030  Biso   1.000  C
  C22      1.0000 0.58160  0.32000  0.58160  Biso   1.000  C
  H334     1.0000 0.56220  0.36350  0.56220  Biso   1.000  H
  H335     1.0000 0.52030  0.19640  0.52030  Biso   1.000  H
  C23      1.0000 0.43970  0.23760  0.43970  Biso   1.000  C
  C24      1.0000 0.41840  0.32000  0.41840  Biso   1.000  C
  H336     1.0000 0.43780  0.36350  0.43780  Biso   1.000  H
  C25      1.0000 0.33900  0.55100  0.66100  Biso   1.000  C
  C26      1.0000 0.66100  0.44900  0.66100  Biso   1.000  C
  C27      1.0000 0.66100  0.55100  0.33900  Biso   1.000  C
  C28      1.0000 0.33900  0.44900  0.33900  Biso   1.000  C
  C29      1.0000 0.66100  0.33900  0.55100  Biso   1.000  C
  C30      1.0000 0.66100  0.66100  0.44900  Biso   1.000  C
  C31      1.0000 0.33900  0.66100  0.55100  Biso   1.000  C
  C32      1.0000 0.33900  0.33900  0.44900  Biso   1.000  C
  C33      1.0000 0.55100  0.66100  0.33900  Biso   1.000  C
  C34      1.0000 0.44900  0.66100  0.66100  Biso   1.000  C
  C35      1.0000 0.55100  0.33900  0.66100  Biso   1.000  C
  C36      1.0000 0.44900  0.33900  0.33900  Biso   1.000  C
  N1       1.0000 0.50000  0.50000  0.76100  Biso   1.000  N
  O5       1.0000 0.50000  0.50000  0.78280  Biso   1.000  O
  N2       1.0000 0.50000  0.50000  0.23900  Biso   1.000  N
  O6       1.0000 0.50000  0.50000  0.21720  Biso   1.000  O
  N3       1.0000 0.76100  0.50000  0.50000  Biso   1.000  N
  O7       1.0000 0.78280  0.50000  0.50000  Biso   1.000  O
  N4       1.0000 0.23900  0.50000  0.50000  Biso   1.000  N
  O8       1.0000 0.21720  0.50000  0.50000  Biso   1.000  O
  N5       1.0000 0.50000  0.76100  0.50000  Biso   1.000  N
  O9       1.0000 0.50000  0.78280  0.50000  Biso   1.000  O
  N6       1.0000 0.50000  0.23900  0.50000  Biso   1.000  N
  O10      1.0000 0.50000  0.21720  0.50000  Biso   1.000  O
  N7       1.0000 0.17400  0.50000  0.50000  Biso   1.000  N
  N8       1.0000 0.82600  0.50000  0.50000  Biso   1.000  N
  N9       1.0000 0.50000  0.17400  0.50000  Biso   1.000  N
  N10      1.0000 0.50000  0.82600  0.50000  Biso   1.000  N
  N11      1.0000 0.50000  0.50000  0.17400  Biso   1.000  N
  N12      1.0000 0.50000  0.50000  0.82600  Biso   1.000  N
  H337     1.0000 0.15310  0.52970  0.52970  Biso   1.000  H
  C37      1.0000 0.31100  0.58450  0.58450  Biso   1.000  C
  C38      1.0000 0.31200  0.52280  0.52280  Biso   1.000  C
  H338     1.0000 0.84690  0.47030  0.52970  Biso   1.000  H
  C39      1.0000 0.68900  0.41550  0.58450  Biso   1.000  C
  C40      1.0000 0.68800  0.47720  0.52280  Biso   1.000  C
  H339     1.0000 0.84690  0.52970  0.47030  Biso   1.000  H
  C41      1.0000 0.68900  0.58450  0.41550  Biso   1.000  C
  C42      1.0000 0.68800  0.52280  0.47720  Biso   1.000  C
  H340     1.0000 0.15310  0.47030  0.47030  Biso   1.000  H
  C43      1.0000 0.31100  0.41550  0.41550  Biso   1.000  C
  C44      1.0000 0.31200  0.47720  0.47720  Biso   1.000  C
  H341     1.0000 0.52970  0.15310  0.52970  Biso   1.000  H
  C45      1.0000 0.58450  0.31100  0.58450  Biso   1.000  C
  C46      1.0000 0.52280  0.31200  0.52280  Biso   1.000  C
  H342     1.0000 0.52970  0.84690  0.47030  Biso   1.000  H
  C47      1.0000 0.58450  0.68900  0.41550  Biso   1.000  C
  C48      1.0000 0.52280  0.68800  0.47720  Biso   1.000  C
  H343     1.0000 0.47030  0.84690  0.52970  Biso   1.000  H
  C49      1.0000 0.41550  0.68900  0.58450  Biso   1.000  C
  C50      1.0000 0.47720  0.68800  0.52280  Biso   1.000  C
  H344     1.0000 0.47030  0.15310  0.47030  Biso   1.000  H
  C51      1.0000 0.41550  0.31100  0.41550  Biso   1.000  C
  C52      1.0000 0.47720  0.31200  0.47720  Biso   1.000  C
  H345     1.0000 0.52970  0.52970  0.15310  Biso   1.000  H
  C53      1.0000 0.58450  0.58450  0.31100  Biso   1.000  C
  C54      1.0000 0.52280  0.52280  0.31200  Biso   1.000  C
  H346     1.0000 0.47030  0.52970  0.84690  Biso   1.000  H
  C55      1.0000 0.41550  0.58450  0.68900  Biso   1.000  C
  C56      1.0000 0.47720  0.52280  0.68800  Biso   1.000  C
  H347     1.0000 0.52970  0.47030  0.84690  Biso   1.000  H
  C57      1.0000 0.58450  0.41550  0.68900  Biso   1.000  C
  C58      1.0000 0.52280  0.47720  0.68800  Biso   1.000  C
  H348     1.0000 0.47030  0.47030  0.15310  Biso   1.000  H
  C59      1.0000 0.41550  0.41550  0.31100  Biso   1.000  C
  C60      1.0000 0.47720  0.47720  0.31200  Biso   1.000  C
  C61      1.0000 0.24600  0.46650  0.53350  Biso   1.000  C
  C62      1.0000 0.75400  0.53350  0.53350  Biso   1.000  C
  C63      1.0000 0.75400  0.46650  0.46650  Biso   1.000  C
  C64      1.0000 0.24600  0.53350  0.46650  Biso   1.000  C
  C65      1.0000 0.53350  0.24600  0.46650  Biso   1.000  C
  C66      1.0000 0.53350  0.75400  0.53350  Biso   1.000  C
  C67      1.0000 0.46650  0.75400  0.46650  Biso   1.000  C
  C68      1.0000 0.46650  0.24600  0.53350  Biso   1.000  C
  C69      1.0000 0.46650  0.53350  0.24600  Biso   1.000  C
  C70      1.0000 0.53350  0.53350  0.75400  Biso   1.000  C
  C71      1.0000 0.46650  0.46650  0.75400  Biso   1.000  C
  C72      1.0000 0.53350  0.46650  0.24600  Biso   1.000  C
  O11      1.0000 0.45460  0.45460  0.72500  Biso   1.000  O
  O12      1.0000 0.54540  0.54540  0.72500  Biso   1.000  O
  O13      1.0000 0.54540  0.45460  0.27500  Biso   1.000  O
  O14      1.0000 0.45460  0.54540  0.27500  Biso   1.000  O
  O15      1.0000 0.72500  0.45460  0.45460  Biso   1.000  O
  O16      1.0000 0.72500  0.54540  0.54540  Biso   1.000  O
  O17      1.0000 0.27500  0.54540  0.45460  Biso   1.000  O
  O18      1.0000 0.27500  0.45460  0.54540  Biso   1.000  O
  O19      1.0000 0.45460  0.72500  0.45460  Biso   1.000  O
  O20      1.0000 0.54540  0.72500  0.54540  Biso   1.000  O
  O21      1.0000 0.45460  0.27500  0.54540  Biso   1.000  O
  O22      1.0000 0.54540  0.27500  0.45460  Biso   1.000  O
  Al1      1.0000 0.31801  0.92304  0.56191  Biso   1.000  Al
  O23      1.0000 0.25388  0.95530  0.64490  Biso   1.000  O
  O24      1.0000 0.48010  0.10760  0.62020  Biso   1.000  O
  O25      1.0000 0.24810  0.84880  0.53710  Biso   1.000  O
  Al2      1.0000 0.68199  0.07696  0.56191  Biso   1.000  Al
  O26      1.0000 0.74612  0.04470  0.64490  Biso   1.000  O
  O27      1.0000 0.51990  0.89240  0.62020  Biso   1.000  O
  O28      1.0000 0.75190  0.15120  0.53710  Biso   1.000  O
  Al3      1.0000 0.68199  0.92304  0.43809  Biso   1.000  Al
  O29      1.0000 0.74612  0.95530  0.35510  Biso   1.000  O
  O30      1.0000 0.51990  0.10760  0.37980  Biso   1.000  O
  O31      1.0000 0.75190  0.84880  0.46290  Biso   1.000  O
  Al4      1.0000 0.31801  0.07696  0.43809  Biso   1.000  Al
  O32      1.0000 0.25388  0.04470  0.35510  Biso   1.000  O
  O33      1.0000 0.48010  0.89240  0.37980  Biso   1.000  O
  O34      1.0000 0.24810  0.15120  0.46290  Biso   1.000  O
  Al5      1.0000 0.56191  0.31801  0.92304  Biso   1.000  Al
  O35      1.0000 0.64490  0.25388  0.95530  Biso   1.000  O
  O36      1.0000 0.62020  0.48010  0.10760  Biso   1.000  O
  O37      1.0000 0.53710  0.24810  0.84880  Biso   1.000  O
  Al6      1.0000 0.56191  0.68199  0.07696  Biso   1.000  Al
  O38      1.0000 0.64490  0.74612  0.04470  Biso   1.000  O
  O39      1.0000 0.62020  0.51990  0.89240  Biso   1.000  O
  O40      1.0000 0.53710  0.75190  0.15120  Biso   1.000  O
  Al7      1.0000 0.43809  0.68199  0.92304  Biso   1.000  Al
  O41      1.0000 0.35510  0.74612  0.95530  Biso   1.000  O
  O42      1.0000 0.37980  0.51990  0.10760  Biso   1.000  O
  O43      1.0000 0.46290  0.75190  0.84880  Biso   1.000  O
  Al8      1.0000 0.43809  0.31801  0.07696  Biso   1.000  Al
  O44      1.0000 0.35510  0.25388  0.04470  Biso   1.000  O
  O45      1.0000 0.37980  0.48010  0.89240  Biso   1.000  O
  O46      1.0000 0.46290  0.24810  0.15120  Biso   1.000  O
  Al9      1.0000 0.92304  0.56191  0.31801  Biso   1.000  Al
  O47      1.0000 0.95530  0.64490  0.25388  Biso   1.000  O
  O48      1.0000 0.10760  0.62020  0.48010  Biso   1.000  O
  O49      1.0000 0.84880  0.53710  0.24810  Biso   1.000  O
  Al10     1.0000 0.07696  0.56191  0.68199  Biso   1.000  Al
  O50      1.0000 0.04470  0.64490  0.74612  Biso   1.000  O
  O51      1.0000 0.89240  0.62020  0.51990  Biso   1.000  O
  O52      1.0000 0.15120  0.53710  0.75190  Biso   1.000  O
  Al11     1.0000 0.92304  0.43809  0.68199  Biso   1.000  Al
  O53      1.0000 0.95530  0.35510  0.74612  Biso   1.000  O
  O54      1.0000 0.10760  0.37980  0.51990  Biso   1.000  O
  O55      1.0000 0.84880  0.46290  0.75190  Biso   1.000  O
  Al12     1.0000 0.07696  0.43809  0.31801  Biso   1.000  Al
  O56      1.0000 0.04470  0.35510  0.25388  Biso   1.000  O
  O57      1.0000 0.89240  0.37980  0.48010  Biso   1.000  O
  O58      1.0000 0.15120  0.46290  0.24810  Biso   1.000  O
  Al13     1.0000 0.92304  0.31801  0.56191  Biso   1.000  Al
  O59      1.0000 0.95530  0.25388  0.64490  Biso   1.000  O
  O60      1.0000 0.10760  0.48010  0.62020  Biso   1.000  O
  O61      1.0000 0.84880  0.24810  0.53710  Biso   1.000  O
  Al14     1.0000 0.07696  0.68199  0.56191  Biso   1.000  Al
  O62      1.0000 0.04470  0.74612  0.64490  Biso   1.000  O
  O63      1.0000 0.89240  0.51990  0.62020  Biso   1.000  O
  O64      1.0000 0.15120  0.75190  0.53710  Biso   1.000  O
  Al15     1.0000 0.92304  0.68199  0.43809  Biso   1.000  Al
  O65      1.0000 0.95530  0.74612  0.35510  Biso   1.000  O
  O66      1.0000 0.10760  0.51990  0.37980  Biso   1.000  O
  O67      1.0000 0.84880  0.75190  0.46290  Biso   1.000  O
  Al16     1.0000 0.07696  0.31801  0.43809  Biso   1.000  Al
  O68      1.0000 0.04470  0.25388  0.35510  Biso   1.000  O
  O69      1.0000 0.89240  0.48010  0.37980  Biso   1.000  O
  O70      1.0000 0.15120  0.24810  0.46290  Biso   1.000  O
  Al17     1.0000 0.31801  0.56191  0.92304  Biso   1.000  Al
  O71      1.0000 0.25388  0.64490  0.95530  Biso   1.000  O
  O72      1.0000 0.48010  0.62020  0.10760  Biso   1.000  O
  O73      1.0000 0.24810  0.53710  0.84880  Biso   1.000  O
  Al18     1.0000 0.68199  0.56191  0.07696  Biso   1.000  Al
  O74      1.0000 0.74612  0.64490  0.04470  Biso   1.000  O
  O75      1.0000 0.51990  0.62020  0.89240  Biso   1.000  O
  O76      1.0000 0.75190  0.53710  0.15120  Biso   1.000  O
  Al19     1.0000 0.68199  0.43809  0.92304  Biso   1.000  Al
  O77      1.0000 0.74612  0.35510  0.95530  Biso   1.000  O
  O78      1.0000 0.51990  0.37980  0.10760  Biso   1.000  O
  O79      1.0000 0.75190  0.46290  0.84880  Biso   1.000  O
  Al20     1.0000 0.31801  0.43809  0.07696  Biso   1.000  Al
  O80      1.0000 0.25388  0.35510  0.04470  Biso   1.000  O
  O81      1.0000 0.48010  0.37980  0.89240  Biso   1.000  O
  O82      1.0000 0.24810  0.46290  0.15120  Biso   1.000  O
  Al21     1.0000 0.56191  0.92304  0.31801  Biso   1.000  Al
  O83      1.0000 0.64490  0.95530  0.25388  Biso   1.000  O
  O84      1.0000 0.62020  0.10760  0.48010  Biso   1.000  O
  O85      1.0000 0.53710  0.84880  0.24810  Biso   1.000  O
  Al22     1.0000 0.56191  0.07696  0.68199  Biso   1.000  Al
  O86      1.0000 0.64490  0.04470  0.74612  Biso   1.000  O
  O87      1.0000 0.62020  0.89240  0.51990  Biso   1.000  O
  O88      1.0000 0.53710  0.15120  0.75190  Biso   1.000  O
  Al23     1.0000 0.43809  0.92304  0.68199  Biso   1.000  Al
  O89      1.0000 0.35510  0.95530  0.74612  Biso   1.000  O
  O90      1.0000 0.37980  0.10760  0.51990  Biso   1.000  O
  O91      1.0000 0.46290  0.84880  0.75190  Biso   1.000  O
  Al24     1.0000 0.43809  0.07696  0.31801  Biso   1.000  Al
  O92      1.0000 0.35510  0.04470  0.25388  Biso   1.000  O
  O93      1.0000 0.37980  0.89240  0.48010  Biso   1.000  O
  O94      1.0000 0.46290  0.15120  0.24810  Biso   1.000  O
  Al25     1.0000 0.23632  0.76368  0.76368  Biso   1.000  Al
  Al26     1.0000 0.76368  0.23632  0.76368  Biso   1.000  Al
  Al27     1.0000 0.76368  0.76368  0.23632  Biso   1.000  Al
  Al28     1.0000 0.23632  0.23632  0.23632  Biso   1.000  Al
  P1       1.0000 0.19518  0.80482  0.58967  Biso   1.000  P
  H349     1.0000 0.14810  0.85190  0.62130  Biso   1.000  H
  O95      1.0000 0.23720  0.76280  0.65380  Biso   1.000  O
  P2       1.0000 0.80482  0.19518  0.58967  Biso   1.000  P
  H350     1.0000 0.85190  0.14810  0.62130  Biso   1.000  H
  O96      1.0000 0.76280  0.23720  0.65380  Biso   1.000  O
  P3       1.0000 0.80482  0.80482  0.41033  Biso   1.000  P
  H351     1.0000 0.85190  0.85190  0.37870  Biso   1.000  H
  O97      1.0000 0.76280  0.76280  0.34620  Biso   1.000  O
  P4       1.0000 0.19518  0.19518  0.41033  Biso   1.000  P
  H352     1.0000 0.14810  0.14810  0.37870  Biso   1.000  H
  O98      1.0000 0.23720  0.23720  0.34620  Biso   1.000  O
  P5       1.0000 0.58967  0.19518  0.80482  Biso   1.000  P
  H353     1.0000 0.62130  0.14810  0.85190  Biso   1.000  H
  O99      1.0000 0.65380  0.23720  0.76280  Biso   1.000  O
  P6       1.0000 0.58967  0.80482  0.19518  Biso   1.000  P
  H354     1.0000 0.62130  0.85190  0.14810  Biso   1.000  H
  O100     1.0000 0.65380  0.76280  0.23720  Biso   1.000  O
  P7       1.0000 0.41033  0.80482  0.80482  Biso   1.000  P
  H355     1.0000 0.37870  0.85190  0.85190  Biso   1.000  H
  O101     1.0000 0.34620  0.76280  0.76280  Biso   1.000  O
  P8       1.0000 0.41033  0.19518  0.19518  Biso   1.000  P
  H356     1.0000 0.37870  0.14810  0.14810  Biso   1.000  H
  O102     1.0000 0.34620  0.23720  0.23720  Biso   1.000  O
  P9       1.0000 0.80482  0.58967  0.19518  Biso   1.000  P
  H357     1.0000 0.85190  0.62130  0.14810  Biso   1.000  H
  O103     1.0000 0.76280  0.65380  0.23720  Biso   1.000  O
  P10      1.0000 0.19518  0.58967  0.80482  Biso   1.000  P
  H358     1.0000 0.14810  0.62130  0.85190  Biso   1.000  H
  O104     1.0000 0.23720  0.65380  0.76280  Biso   1.000  O
  P11      1.0000 0.80482  0.41033  0.80482  Biso   1.000  P
  H359     1.0000 0.85190  0.37870  0.85190  Biso   1.000  H
  O105     1.0000 0.76280  0.34620  0.76280  Biso   1.000  O
  P12      1.0000 0.19518  0.41033  0.19518  Biso   1.000  P
  H360     1.0000 0.14810  0.37870  0.14810  Biso   1.000  H
  O106     1.0000 0.23720  0.34620  0.23720  Biso   1.000  O
  P13      1.0000 0.26979  0.94465  0.73021  Biso   1.000  P
  H361     1.0000 0.23540  0.00120  0.76460  Biso   1.000  H
  P14      1.0000 0.40229  0.07897  0.59771  Biso   1.000  P
  H362     1.0000 0.35310  0.10450  0.64690  Biso   1.000  H
  P15      1.0000 0.43790  0.05930  0.56210  Biso   1.000  P
  H363     1.0000 0.48600  0.03120  0.51400  Biso   1.000  H
  O107     1.0000 0.39825  0.99090  0.60175  Biso   1.000  O
  O108     1.0000 0.37390  0.85930  0.62610  Biso   1.000  O
  O109     1.0000 0.23700  0.87150  0.76300  Biso   1.000  O
  P16      1.0000 0.73021  0.05535  0.73021  Biso   1.000  P
  H364     1.0000 0.76460  0.99880  0.76460  Biso   1.000  H
  P17      1.0000 0.59771  0.92103  0.59771  Biso   1.000  P
  H365     1.0000 0.64690  0.89550  0.64690  Biso   1.000  H
  P18      1.0000 0.56210  0.94070  0.56210  Biso   1.000  P
  H366     1.0000 0.51400  0.96880  0.51400  Biso   1.000  H
  O110     1.0000 0.60175  0.00910  0.60175  Biso   1.000  O
  O111     1.0000 0.62610  0.14070  0.62610  Biso   1.000  O
  O112     1.0000 0.76300  0.12850  0.76300  Biso   1.000  O
  P19      1.0000 0.73021  0.94465  0.26979  Biso   1.000  P
  H367     1.0000 0.76460  0.00120  0.23540  Biso   1.000  H
  P20      1.0000 0.59771  0.07897  0.40229  Biso   1.000  P
  H368     1.0000 0.64690  0.10450  0.35310  Biso   1.000  H
  P21      1.0000 0.56210  0.05930  0.43790  Biso   1.000  P
  H369     1.0000 0.51400  0.03120  0.48600  Biso   1.000  H
  O113     1.0000 0.60175  0.99090  0.39825  Biso   1.000  O
  O114     1.0000 0.62610  0.85930  0.37390  Biso   1.000  O
  O115     1.0000 0.76300  0.87150  0.23700  Biso   1.000  O
  P22      1.0000 0.26979  0.05535  0.26979  Biso   1.000  P
  H370     1.0000 0.23540  0.99880  0.23540  Biso   1.000  H
  P23      1.0000 0.40229  0.92103  0.40229  Biso   1.000  P
  H371     1.0000 0.35310  0.89550  0.35310  Biso   1.000  H
  P24      1.0000 0.43790  0.94070  0.43790  Biso   1.000  P
  H372     1.0000 0.48600  0.96880  0.48600  Biso   1.000  H
  O116     1.0000 0.39825  0.00910  0.39825  Biso   1.000  O
  O117     1.0000 0.37390  0.14070  0.37390  Biso   1.000  O
  O118     1.0000 0.23700  0.12850  0.23700  Biso   1.000  O
  P25      1.0000 0.73021  0.26979  0.94465  Biso   1.000  P
  H373     1.0000 0.76460  0.23540  0.00120  Biso   1.000  H
  P26      1.0000 0.59771  0.40229  0.07897  Biso   1.000  P
  H374     1.0000 0.64690  0.35310  0.10450  Biso   1.000  H
  P27      1.0000 0.56210  0.43790  0.05930  Biso   1.000  P
  H375     1.0000 0.51400  0.48600  0.03120  Biso   1.000  H
  O119     1.0000 0.60175  0.39825  0.99090  Biso   1.000  O
  O120     1.0000 0.62610  0.37390  0.85930  Biso   1.000  O
  O121     1.0000 0.76300  0.23700  0.87150  Biso   1.000  O
  P28      1.0000 0.73021  0.73021  0.05535  Biso   1.000  P
  H376     1.0000 0.76460  0.76460  0.99880  Biso   1.000  H
  P29      1.0000 0.59771  0.59771  0.92103  Biso   1.000  P
  H377     1.0000 0.64690  0.64690  0.89550  Biso   1.000  H
  P30      1.0000 0.56210  0.56210  0.94070  Biso   1.000  P
  H378     1.0000 0.51400  0.51400  0.96880  Biso   1.000  H
  O122     1.0000 0.60175  0.60175  0.00910  Biso   1.000  O
  O123     1.0000 0.62610  0.62610  0.14070  Biso   1.000  O
  O124     1.0000 0.76300  0.76300  0.12850  Biso   1.000  O
  P31      1.0000 0.26979  0.73021  0.94465  Biso   1.000  P
  H379     1.0000 0.23540  0.76460  0.00120  Biso   1.000  H
  P32      1.0000 0.40229  0.59771  0.07897  Biso   1.000  P
  H380     1.0000 0.35310  0.64690  0.10450  Biso   1.000  H
  P33      1.0000 0.43790  0.56210  0.05930  Biso   1.000  P
  H381     1.0000 0.48600  0.51400  0.03120  Biso   1.000  H
  O125     1.0000 0.39825  0.60175  0.99090  Biso   1.000  O
  O126     1.0000 0.37390  0.62610  0.85930  Biso   1.000  O
  O127     1.0000 0.23700  0.76300  0.87150  Biso   1.000  O
  P34      1.0000 0.26979  0.26979  0.05535  Biso   1.000  P
  H382     1.0000 0.23540  0.23540  0.99880  Biso   1.000  H
  P35      1.0000 0.40229  0.40229  0.92103  Biso   1.000  P
  H383     1.0000 0.35310  0.35310  0.89550  Biso   1.000  H
  P36      1.0000 0.43790  0.43790  0.94070  Biso   1.000  P
  H384     1.0000 0.48600  0.48600  0.96880  Biso   1.000  H
  O128     1.0000 0.39825  0.39825  0.00910  Biso   1.000  O
  O129     1.0000 0.37390  0.37390  0.14070  Biso   1.000  O
  O130     1.0000 0.23700  0.23700  0.12850  Biso   1.000  O
  P37      1.0000 0.94465  0.73021  0.26979  Biso   1.000  P
  H385     1.0000 0.00120  0.76460  0.23540  Biso   1.000  H
  P38      1.0000 0.07897  0.59771  0.40229  Biso   1.000  P
  H386     1.0000 0.10450  0.64690  0.35310  Biso   1.000  H
  P39      1.0000 0.05930  0.56210  0.43790  Biso   1.000  P
  H387     1.0000 0.03120  0.51400  0.48600  Biso   1.000  H
  O131     1.0000 0.99090  0.60175  0.39825  Biso   1.000  O
  O132     1.0000 0.85930  0.62610  0.37390  Biso   1.000  O
  O133     1.0000 0.87150  0.76300  0.23700  Biso   1.000  O
  P40      1.0000 0.05535  0.73021  0.73021  Biso   1.000  P
  H388     1.0000 0.99880  0.76460  0.76460  Biso   1.000  H
  P41      1.0000 0.92103  0.59771  0.59771  Biso   1.000  P
  H389     1.0000 0.89550  0.64690  0.64690  Biso   1.000  H
  P42      1.0000 0.94070  0.56210  0.56210  Biso   1.000  P
  H390     1.0000 0.96880  0.51400  0.51400  Biso   1.000  H
  O134     1.0000 0.00910  0.60175  0.60175  Biso   1.000  O
  O135     1.0000 0.14070  0.62610  0.62610  Biso   1.000  O
  O136     1.0000 0.12850  0.76300  0.76300  Biso   1.000  O
  P43      1.0000 0.94465  0.26979  0.73021  Biso   1.000  P
  H391     1.0000 0.00120  0.23540  0.76460  Biso   1.000  H
  P44      1.0000 0.07897  0.40229  0.59771  Biso   1.000  P
  H392     1.0000 0.10450  0.35310  0.64690  Biso   1.000  H
  P45      1.0000 0.05930  0.43790  0.56210  Biso   1.000  P
  H393     1.0000 0.03120  0.48600  0.51400  Biso   1.000  H
  O137     1.0000 0.99090  0.39825  0.60175  Biso   1.000  O
  O138     1.0000 0.85930  0.37390  0.62610  Biso   1.000  O
  O139     1.0000 0.87150  0.23700  0.76300  Biso   1.000  O
  P46      1.0000 0.05535  0.26979  0.26979  Biso   1.000  P
  H394     1.0000 0.99880  0.23540  0.23540  Biso   1.000  H
  P47      1.0000 0.92103  0.40229  0.40229  Biso   1.000  P
  H395     1.0000 0.89550  0.35310  0.35310  Biso   1.000  H
  P48      1.0000 0.94070  0.43790  0.43790  Biso   1.000  P
  H396     1.0000 0.96880  0.48600  0.48600  Biso   1.000  H
  O140     1.0000 0.00910  0.39825  0.39825  Biso   1.000  O
  O141     1.0000 0.14070  0.37390  0.37390  Biso   1.000  O
  O142     1.0000 0.12850  0.23700  0.23700  Biso   1.000  O
  O143     1.0000 0.27580  0.00000  0.50000  Biso   1.000  O
  O144     1.0000 0.72420  0.00000  0.50000  Biso   1.000  O
  O145     1.0000 0.50000  0.27580  0.00000  Biso   1.000  O
  O146     1.0000 0.50000  0.72420  0.00000  Biso   1.000  O
  O147     1.0000 0.00000  0.50000  0.27580  Biso   1.000  O
  O148     1.0000 0.00000  0.50000  0.72420  Biso   1.000  O
  O149     1.0000 0.00000  0.27580  0.50000  Biso   1.000  O
  O150     1.0000 0.00000  0.72420  0.50000  Biso   1.000  O
  O151     1.0000 0.27580  0.50000  0.00000  Biso   1.000  O
  O152     1.0000 0.72420  0.50000  0.00000  Biso   1.000  O
  O153     1.0000 0.50000  0.00000  0.27580  Biso   1.000  O
  O154     1.0000 0.50000  0.00000  0.72420  Biso   1.000  O
