data_image0
_cell_length_a       24.211
_cell_length_b       24.211
_cell_length_c       23.327
_cell_angle_alpha    90
_cell_angle_beta     90
_cell_angle_gamma    90

_symmetry_space_group_name_H-M    "P 1"
_symmetry_int_tables_number       1

loop_
  _symmetry_equiv_pos_as_xyz
  'x, y, z'

loop_
  _atom_site_label
  _atom_site_occupancy
  _atom_site_fract_x
  _atom_site_fract_y
  _atom_site_fract_z
  _atom_site_thermal_displace_type
  _atom_site_B_iso_or_equiv
  _atom_site_type_symbol
  N1       1.0000 0.17110  0.86360  0.00480  Biso   1.000  N
  N2       1.0000 0.07880  0.79790  0.99530  Biso   1.000  N
  N3       1.0000 0.18150  0.95490  0.94000  Biso   1.000  N
  N4       1.0000 0.18160  0.00720  0.91380  Biso   1.000  N
  C1       1.0000 0.16890  0.81670  0.03100  Biso   1.000  C
  H1       1.0000 0.19890  0.80500  0.05270  Biso   1.000  H
  C2       1.0000 0.12090  0.78250  0.02700  Biso   1.000  C
  H2       1.0000 0.11940  0.74930  0.04690  Biso   1.000  H
  C3       1.0000 0.08330  0.84500  0.96820  Biso   1.000  C
  H3       1.0000 0.05390  0.85640  0.94550  Biso   1.000  H
  C4       1.0000 0.12890  0.87850  0.97140  Biso   1.000  C
  C5       1.0000 0.13280  0.93070  0.94000  Biso   1.000  C
  C6       1.0000 0.08250  0.95540  0.91220  Biso   1.000  C
  H4       1.0000 0.09250  0.98930  0.89350  Biso   1.000  H
  H5       1.0000 0.05510  0.96270  0.94090  Biso   1.000  H
  H6       1.0000 0.06790  0.93000  0.88450  Biso   1.000  H
  C7       1.0000 0.22450  0.01680  0.88210  Biso   1.000  C
  C8       1.0000 0.23040  0.07310  0.85710  Biso   1.000  C
  C9       1.0000 0.27000  0.08240  0.81790  Biso   1.000  C
  H7       1.0000 0.29310  0.05410  0.80560  Biso   1.000  H
  C10      1.0000 0.27550  0.13550  0.79640  Biso   1.000  C
  H8       1.0000 0.30340  0.14370  0.77030  Biso   1.000  H
  C11      1.0000 0.23980  0.17560  0.81380  Biso   1.000  C
  H9       1.0000 0.24350  0.21080  0.79820  Biso   1.000  H
  C12      1.0000 0.19800  0.16630  0.85370  Biso   1.000  C
  H10      1.0000 0.17440  0.19440  0.86540  Biso   1.000  H
  C13      1.0000 0.19350  0.11430  0.87480  Biso   1.000  C
  H11      1.0000 0.16590  0.10600  0.90110  Biso   1.000  H
  N5       1.0000 0.95740  0.86110  0.06570  Biso   1.000  N
  O1       1.0000 0.95470  0.91150  0.06090  Biso   1.000  O
  O2       1.0000 0.99690  0.84090  0.09110  Biso   1.000  O
  O3       1.0000 0.93100  0.83240  0.03250  Biso   1.000  O
  O4       1.0000 0.94140  0.90300  0.09060  Biso   1.000  O
  O5       1.0000 0.95180  0.81650  0.09030  Biso   1.000  O
  O6       1.0000 0.96050  0.86160  0.01330  Biso   1.000  O
  N6       1.0000 0.67110  0.36360  0.50480  Biso   1.000  N
  N7       1.0000 0.57880  0.29790  0.49530  Biso   1.000  N
  N8       1.0000 0.68150  0.45490  0.44000  Biso   1.000  N
  N9       1.0000 0.68160  0.50720  0.41380  Biso   1.000  N
  C14      1.0000 0.66890  0.31670  0.53100  Biso   1.000  C
  H12      1.0000 0.69890  0.30500  0.55270  Biso   1.000  H
  C15      1.0000 0.62090  0.28250  0.52700  Biso   1.000  C
  H13      1.0000 0.61940  0.24930  0.54690  Biso   1.000  H
  C16      1.0000 0.58330  0.34500  0.46820  Biso   1.000  C
  H14      1.0000 0.55390  0.35640  0.44550  Biso   1.000  H
  C17      1.0000 0.62890  0.37850  0.47140  Biso   1.000  C
  C18      1.0000 0.63280  0.43070  0.44000  Biso   1.000  C
  C19      1.0000 0.58250  0.45540  0.41220  Biso   1.000  C
  H15      1.0000 0.59250  0.48930  0.39350  Biso   1.000  H
  H16      1.0000 0.55510  0.46270  0.44090  Biso   1.000  H
  H17      1.0000 0.56790  0.43000  0.38450  Biso   1.000  H
  C20      1.0000 0.72450  0.51680  0.38210  Biso   1.000  C
  C21      1.0000 0.73040  0.57310  0.35710  Biso   1.000  C
  C22      1.0000 0.77000  0.58240  0.31790  Biso   1.000  C
  H18      1.0000 0.79310  0.55410  0.30560  Biso   1.000  H
  C23      1.0000 0.77550  0.63550  0.29640  Biso   1.000  C
  H19      1.0000 0.80340  0.64370  0.27030  Biso   1.000  H
  C24      1.0000 0.73980  0.67560  0.31380  Biso   1.000  C
  H20      1.0000 0.74350  0.71080  0.29820  Biso   1.000  H
  C25      1.0000 0.69800  0.66630  0.35370  Biso   1.000  C
  H21      1.0000 0.67440  0.69440  0.36540  Biso   1.000  H
  C26      1.0000 0.69350  0.61430  0.37480  Biso   1.000  C
  H22      1.0000 0.66590  0.60600  0.40110  Biso   1.000  H
  N10      1.0000 0.45740  0.36110  0.56570  Biso   1.000  N
  O7       1.0000 0.45470  0.41150  0.56090  Biso   1.000  O
  O8       1.0000 0.49690  0.34090  0.59110  Biso   1.000  O
  O9       1.0000 0.43100  0.33240  0.53250  Biso   1.000  O
  O10      1.0000 0.44140  0.40300  0.59060  Biso   1.000  O
  O11      1.0000 0.45180  0.31650  0.59030  Biso   1.000  O
  O12      1.0000 0.46050  0.36160  0.51330  Biso   1.000  O
  N11      1.0000 0.32890  0.13640  0.50480  Biso   1.000  N
  N12      1.0000 0.42120  0.20210  0.49530  Biso   1.000  N
  N13      1.0000 0.31850  0.04510  0.44000  Biso   1.000  N
  N14      1.0000 0.31840  0.99280  0.41380  Biso   1.000  N
  C27      1.0000 0.33110  0.18330  0.53100  Biso   1.000  C
  H23      1.0000 0.30110  0.19500  0.55270  Biso   1.000  H
  C28      1.0000 0.37910  0.21750  0.52700  Biso   1.000  C
  H24      1.0000 0.38060  0.25070  0.54690  Biso   1.000  H
  C29      1.0000 0.41670  0.15500  0.46820  Biso   1.000  C
  H25      1.0000 0.44610  0.14360  0.44550  Biso   1.000  H
  C30      1.0000 0.37110  0.12150  0.47140  Biso   1.000  C
  C31      1.0000 0.36720  0.06930  0.44000  Biso   1.000  C
  C32      1.0000 0.41750  0.04460  0.41220  Biso   1.000  C
  H26      1.0000 0.40750  0.01070  0.39350  Biso   1.000  H
  H27      1.0000 0.44490  0.03730  0.44090  Biso   1.000  H
  H28      1.0000 0.43210  0.07000  0.38450  Biso   1.000  H
  C33      1.0000 0.27550  0.98320  0.38210  Biso   1.000  C
  C34      1.0000 0.26960  0.92690  0.35710  Biso   1.000  C
  C35      1.0000 0.23000  0.91760  0.31790  Biso   1.000  C
  H29      1.0000 0.20690  0.94590  0.30560  Biso   1.000  H
  C36      1.0000 0.22450  0.86450  0.29640  Biso   1.000  C
  H30      1.0000 0.19660  0.85630  0.27030  Biso   1.000  H
  C37      1.0000 0.26020  0.82440  0.31380  Biso   1.000  C
  H31      1.0000 0.25650  0.78920  0.29820  Biso   1.000  H
  C38      1.0000 0.30200  0.83370  0.35370  Biso   1.000  C
  H32      1.0000 0.32560  0.80560  0.36540  Biso   1.000  H
  C39      1.0000 0.30650  0.88570  0.37480  Biso   1.000  C
  H33      1.0000 0.33410  0.89400  0.40110  Biso   1.000  H
  N15      1.0000 0.54260  0.13890  0.56570  Biso   1.000  N
  O13      1.0000 0.54530  0.08850  0.56090  Biso   1.000  O
  O14      1.0000 0.50310  0.15910  0.59110  Biso   1.000  O
  O15      1.0000 0.56900  0.16760  0.53250  Biso   1.000  O
  O16      1.0000 0.55860  0.09700  0.59060  Biso   1.000  O
  O17      1.0000 0.54820  0.18350  0.59030  Biso   1.000  O
  O18      1.0000 0.53950  0.13840  0.51330  Biso   1.000  O
  N16      1.0000 0.82890  0.63640  0.00480  Biso   1.000  N
  N17      1.0000 0.92120  0.70210  0.99530  Biso   1.000  N
  N18      1.0000 0.81850  0.54510  0.94000  Biso   1.000  N
  N19      1.0000 0.81840  0.49280  0.91380  Biso   1.000  N
  C40      1.0000 0.83110  0.68330  0.03100  Biso   1.000  C
  H34      1.0000 0.80110  0.69500  0.05270  Biso   1.000  H
  C41      1.0000 0.87910  0.71750  0.02700  Biso   1.000  C
  H35      1.0000 0.88060  0.75070  0.04690  Biso   1.000  H
  C42      1.0000 0.91670  0.65500  0.96820  Biso   1.000  C
  H36      1.0000 0.94610  0.64360  0.94550  Biso   1.000  H
  C43      1.0000 0.87110  0.62150  0.97140  Biso   1.000  C
  C44      1.0000 0.86720  0.56930  0.94000  Biso   1.000  C
  C45      1.0000 0.91750  0.54460  0.91220  Biso   1.000  C
  H37      1.0000 0.90750  0.51070  0.89350  Biso   1.000  H
  H38      1.0000 0.94490  0.53730  0.94090  Biso   1.000  H
  H39      1.0000 0.93210  0.57000  0.88450  Biso   1.000  H
  C46      1.0000 0.77550  0.48320  0.88210  Biso   1.000  C
  C47      1.0000 0.76960  0.42690  0.85710  Biso   1.000  C
  C48      1.0000 0.73000  0.41760  0.81790  Biso   1.000  C
  H40      1.0000 0.70690  0.44590  0.80560  Biso   1.000  H
  C49      1.0000 0.72450  0.36450  0.79640  Biso   1.000  C
  H41      1.0000 0.69660  0.35630  0.77030  Biso   1.000  H
  C50      1.0000 0.76020  0.32440  0.81380  Biso   1.000  C
  H42      1.0000 0.75650  0.28920  0.79820  Biso   1.000  H
  C51      1.0000 0.80200  0.33370  0.85370  Biso   1.000  C
  H43      1.0000 0.82560  0.30560  0.86540  Biso   1.000  H
  C52      1.0000 0.80650  0.38570  0.87480  Biso   1.000  C
  H44      1.0000 0.83410  0.39400  0.90110  Biso   1.000  H
  N20      1.0000 0.04260  0.63890  0.06570  Biso   1.000  N
  O19      1.0000 0.04530  0.58850  0.06090  Biso   1.000  O
  O20      1.0000 0.00310  0.65910  0.09110  Biso   1.000  O
  O21      1.0000 0.06900  0.66760  0.03250  Biso   1.000  O
  O22      1.0000 0.05860  0.59700  0.09060  Biso   1.000  O
  O23      1.0000 0.04820  0.68350  0.09030  Biso   1.000  O
  O24      1.0000 0.03950  0.63840  0.01330  Biso   1.000  O
  N21      1.0000 0.38640  0.92110  0.25480  Biso   1.000  N
  N22      1.0000 0.45210  0.82880  0.24530  Biso   1.000  N
  N23      1.0000 0.29510  0.93150  0.19000  Biso   1.000  N
  N24      1.0000 0.24280  0.93160  0.16380  Biso   1.000  N
  C53      1.0000 0.43330  0.91890  0.28100  Biso   1.000  C
  H45      1.0000 0.44500  0.94890  0.30270  Biso   1.000  H
  C54      1.0000 0.46750  0.87090  0.27700  Biso   1.000  C
  H46      1.0000 0.50070  0.86940  0.29690  Biso   1.000  H
  C55      1.0000 0.40500  0.83330  0.21820  Biso   1.000  C
  H47      1.0000 0.39360  0.80390  0.19550  Biso   1.000  H
  C56      1.0000 0.37150  0.87890  0.22140  Biso   1.000  C
  C57      1.0000 0.31930  0.88280  0.19000  Biso   1.000  C
  C58      1.0000 0.29460  0.83250  0.16220  Biso   1.000  C
  H48      1.0000 0.26070  0.84250  0.14350  Biso   1.000  H
  H49      1.0000 0.28730  0.80510  0.19090  Biso   1.000  H
  H50      1.0000 0.32000  0.81790  0.13450  Biso   1.000  H
  C59      1.0000 0.23320  0.97450  0.13210  Biso   1.000  C
  C60      1.0000 0.17690  0.98040  0.10710  Biso   1.000  C
  C61      1.0000 0.16760  0.02000  0.06790  Biso   1.000  C
  H51      1.0000 0.19590  0.04310  0.05560  Biso   1.000  H
  C62      1.0000 0.11450  0.02550  0.04640  Biso   1.000  C
  H52      1.0000 0.10630  0.05340  0.02030  Biso   1.000  H
  C63      1.0000 0.07440  0.98980  0.06380  Biso   1.000  C
  H53      1.0000 0.03920  0.99350  0.04820  Biso   1.000  H
  C64      1.0000 0.08370  0.94800  0.10370  Biso   1.000  C
  H54      1.0000 0.05560  0.92440  0.11540  Biso   1.000  H
  C65      1.0000 0.13570  0.94350  0.12480  Biso   1.000  C
  H55      1.0000 0.14400  0.91590  0.15110  Biso   1.000  H
  N25      1.0000 0.38890  0.70740  0.31570  Biso   1.000  N
  O25      1.0000 0.33850  0.70470  0.31090  Biso   1.000  O
  O26      1.0000 0.40910  0.74690  0.34110  Biso   1.000  O
  O27      1.0000 0.41760  0.68100  0.28250  Biso   1.000  O
  O28      1.0000 0.34700  0.69140  0.34060  Biso   1.000  O
  O29      1.0000 0.43350  0.70180  0.34030  Biso   1.000  O
  O30      1.0000 0.38840  0.71050  0.26330  Biso   1.000  O
  N26      1.0000 0.88640  0.42110  0.75480  Biso   1.000  N
  N27      1.0000 0.95210  0.32880  0.74530  Biso   1.000  N
  N28      1.0000 0.79510  0.43150  0.69000  Biso   1.000  N
  N29      1.0000 0.74280  0.43160  0.66380  Biso   1.000  N
  C66      1.0000 0.93330  0.41890  0.78100  Biso   1.000  C
  H56      1.0000 0.94500  0.44890  0.80270  Biso   1.000  H
  C67      1.0000 0.96750  0.37090  0.77700  Biso   1.000  C
  H57      1.0000 0.00070  0.36940  0.79690  Biso   1.000  H
  C68      1.0000 0.90500  0.33330  0.71820  Biso   1.000  C
  H58      1.0000 0.89360  0.30390  0.69550  Biso   1.000  H
  C69      1.0000 0.87150  0.37890  0.72140  Biso   1.000  C
  C70      1.0000 0.81930  0.38280  0.69000  Biso   1.000  C
  C71      1.0000 0.79460  0.33250  0.66220  Biso   1.000  C
  H59      1.0000 0.76070  0.34250  0.64350  Biso   1.000  H
  H60      1.0000 0.78730  0.30510  0.69090  Biso   1.000  H
  H61      1.0000 0.82000  0.31790  0.63450  Biso   1.000  H
  C72      1.0000 0.73320  0.47450  0.63210  Biso   1.000  C
  C73      1.0000 0.67690  0.48040  0.60710  Biso   1.000  C
  C74      1.0000 0.66760  0.52000  0.56790  Biso   1.000  C
  H62      1.0000 0.69590  0.54310  0.55560  Biso   1.000  H
  C75      1.0000 0.61450  0.52550  0.54640  Biso   1.000  C
  H63      1.0000 0.60630  0.55340  0.52030  Biso   1.000  H
  C76      1.0000 0.57440  0.48980  0.56380  Biso   1.000  C
  H64      1.0000 0.53920  0.49350  0.54820  Biso   1.000  H
  C77      1.0000 0.58370  0.44800  0.60370  Biso   1.000  C
  H65      1.0000 0.55560  0.42440  0.61540  Biso   1.000  H
  C78      1.0000 0.63570  0.44350  0.62480  Biso   1.000  C
  H66      1.0000 0.64400  0.41590  0.65110  Biso   1.000  H
  N30      1.0000 0.88890  0.20740  0.81570  Biso   1.000  N
  O31      1.0000 0.83850  0.20470  0.81090  Biso   1.000  O
  O32      1.0000 0.90910  0.24690  0.84110  Biso   1.000  O
  O33      1.0000 0.91760  0.18100  0.78250  Biso   1.000  O
  O34      1.0000 0.84700  0.19140  0.84060  Biso   1.000  O
  O35      1.0000 0.93350  0.20180  0.84030  Biso   1.000  O
  O36      1.0000 0.88840  0.21050  0.76330  Biso   1.000  O
  N31      1.0000 0.11360  0.07890  0.75480  Biso   1.000  N
  N32      1.0000 0.04790  0.17120  0.74530  Biso   1.000  N
  N33      1.0000 0.20490  0.06850  0.69000  Biso   1.000  N
  N34      1.0000 0.25720  0.06840  0.66380  Biso   1.000  N
  C79      1.0000 0.06670  0.08110  0.78100  Biso   1.000  C
  H67      1.0000 0.05500  0.05110  0.80270  Biso   1.000  H
  C80      1.0000 0.03250  0.12910  0.77700  Biso   1.000  C
  H68      1.0000 0.99930  0.13060  0.79690  Biso   1.000  H
  C81      1.0000 0.09500  0.16670  0.71820  Biso   1.000  C
  H69      1.0000 0.10640  0.19610  0.69550  Biso   1.000  H
  C82      1.0000 0.12850  0.12110  0.72140  Biso   1.000  C
  C83      1.0000 0.18070  0.11720  0.69000  Biso   1.000  C
  C84      1.0000 0.20540  0.16750  0.66220  Biso   1.000  C
  H70      1.0000 0.23930  0.15750  0.64350  Biso   1.000  H
  H71      1.0000 0.21270  0.19490  0.69090  Biso   1.000  H
  H72      1.0000 0.18000  0.18210  0.63450  Biso   1.000  H
  C85      1.0000 0.26680  0.02550  0.63210  Biso   1.000  C
  C86      1.0000 0.32310  0.01960  0.60710  Biso   1.000  C
  C87      1.0000 0.33240  0.98000  0.56790  Biso   1.000  C
  H73      1.0000 0.30410  0.95690  0.55560  Biso   1.000  H
  C88      1.0000 0.38550  0.97450  0.54640  Biso   1.000  C
  H74      1.0000 0.39370  0.94660  0.52030  Biso   1.000  H
  C89      1.0000 0.42560  0.01020  0.56380  Biso   1.000  C
  H75      1.0000 0.46080  0.00650  0.54820  Biso   1.000  H
  C90      1.0000 0.41630  0.05200  0.60370  Biso   1.000  C
  H76      1.0000 0.44440  0.07560  0.61540  Biso   1.000  H
  C91      1.0000 0.36430  0.05650  0.62480  Biso   1.000  C
  H77      1.0000 0.35600  0.08410  0.65110  Biso   1.000  H
  N35      1.0000 0.11110  0.29260  0.81570  Biso   1.000  N
  O37      1.0000 0.16150  0.29530  0.81090  Biso   1.000  O
  O38      1.0000 0.09090  0.25310  0.84110  Biso   1.000  O
  O39      1.0000 0.08240  0.31900  0.78250  Biso   1.000  O
  O40      1.0000 0.15300  0.30860  0.84060  Biso   1.000  O
  O41      1.0000 0.06650  0.29820  0.84030  Biso   1.000  O
  O42      1.0000 0.11160  0.28950  0.76330  Biso   1.000  O
  N36      1.0000 0.61360  0.57890  0.25480  Biso   1.000  N
  N37      1.0000 0.54790  0.67120  0.24530  Biso   1.000  N
  N38      1.0000 0.70490  0.56850  0.19000  Biso   1.000  N
  N39      1.0000 0.75720  0.56840  0.16380  Biso   1.000  N
  C92      1.0000 0.56670  0.58110  0.28100  Biso   1.000  C
  H78      1.0000 0.55500  0.55110  0.30270  Biso   1.000  H
  C93      1.0000 0.53250  0.62910  0.27700  Biso   1.000  C
  H79      1.0000 0.49930  0.63060  0.29690  Biso   1.000  H
  C94      1.0000 0.59500  0.66670  0.21820  Biso   1.000  C
  H80      1.0000 0.60640  0.69610  0.19550  Biso   1.000  H
  C95      1.0000 0.62850  0.62110  0.22140  Biso   1.000  C
  C96      1.0000 0.68070  0.61720  0.19000  Biso   1.000  C
  C97      1.0000 0.70540  0.66750  0.16220  Biso   1.000  C
  H81      1.0000 0.73930  0.65750  0.14350  Biso   1.000  H
  H82      1.0000 0.71270  0.69490  0.19090  Biso   1.000  H
  H83      1.0000 0.68000  0.68210  0.13450  Biso   1.000  H
  C98      1.0000 0.76680  0.52550  0.13210  Biso   1.000  C
  C99      1.0000 0.82310  0.51960  0.10710  Biso   1.000  C
  C100     1.0000 0.83240  0.48000  0.06790  Biso   1.000  C
  H84      1.0000 0.80410  0.45690  0.05560  Biso   1.000  H
  C101     1.0000 0.88550  0.47450  0.04640  Biso   1.000  C
  H85      1.0000 0.89370  0.44660  0.02030  Biso   1.000  H
  C102     1.0000 0.92560  0.51020  0.06380  Biso   1.000  C
  H86      1.0000 0.96080  0.50650  0.04820  Biso   1.000  H
  C103     1.0000 0.91630  0.55200  0.10370  Biso   1.000  C
  H87      1.0000 0.94440  0.57560  0.11540  Biso   1.000  H
  C104     1.0000 0.86430  0.55650  0.12480  Biso   1.000  C
  H88      1.0000 0.85600  0.58410  0.15110  Biso   1.000  H
  N40      1.0000 0.61110  0.79260  0.31570  Biso   1.000  N
  O43      1.0000 0.66150  0.79530  0.31090  Biso   1.000  O
  O44      1.0000 0.59090  0.75310  0.34110  Biso   1.000  O
  O45      1.0000 0.58240  0.81900  0.28250  Biso   1.000  O
  O46      1.0000 0.65300  0.80860  0.34060  Biso   1.000  O
  O47      1.0000 0.56650  0.79820  0.34030  Biso   1.000  O
  O48      1.0000 0.61160  0.78950  0.26330  Biso   1.000  O
  N41      1.0000 0.32890  0.86360  0.99520  Biso   1.000  N
  N42      1.0000 0.42120  0.79790  0.00470  Biso   1.000  N
  N43      1.0000 0.31850  0.95490  0.06000  Biso   1.000  N
  N44      1.0000 0.31840  0.00720  0.08620  Biso   1.000  N
  C105     1.0000 0.33110  0.81670  0.96900  Biso   1.000  C
  H89      1.0000 0.30110  0.80500  0.94730  Biso   1.000  H
  C106     1.0000 0.37910  0.78250  0.97300  Biso   1.000  C
  H90      1.0000 0.38060  0.74930  0.95310  Biso   1.000  H
  C107     1.0000 0.41670  0.84500  0.03180  Biso   1.000  C
  H91      1.0000 0.44610  0.85640  0.05450  Biso   1.000  H
  C108     1.0000 0.37110  0.87850  0.02860  Biso   1.000  C
  C109     1.0000 0.36720  0.93070  0.06000  Biso   1.000  C
  C110     1.0000 0.41750  0.95540  0.08780  Biso   1.000  C
  H92      1.0000 0.40750  0.98930  0.10650  Biso   1.000  H
  H93      1.0000 0.44490  0.96270  0.05910  Biso   1.000  H
  H94      1.0000 0.43210  0.93000  0.11550  Biso   1.000  H
  C111     1.0000 0.27550  0.01680  0.11790  Biso   1.000  C
  C112     1.0000 0.26960  0.07310  0.14290  Biso   1.000  C
  C113     1.0000 0.23000  0.08240  0.18210  Biso   1.000  C
  H95      1.0000 0.20690  0.05410  0.19440  Biso   1.000  H
  C114     1.0000 0.22450  0.13550  0.20360  Biso   1.000  C
  H96      1.0000 0.19660  0.14370  0.22970  Biso   1.000  H
  C115     1.0000 0.26020  0.17560  0.18620  Biso   1.000  C
  H97      1.0000 0.25650  0.21080  0.20180  Biso   1.000  H
  C116     1.0000 0.30200  0.16630  0.14630  Biso   1.000  C
  H98      1.0000 0.32560  0.19440  0.13460  Biso   1.000  H
  C117     1.0000 0.30650  0.11430  0.12520  Biso   1.000  C
  H99      1.0000 0.33410  0.10600  0.09890  Biso   1.000  H
  N45      1.0000 0.54260  0.86110  0.93430  Biso   1.000  N
  O49      1.0000 0.54530  0.91150  0.93910  Biso   1.000  O
  O50      1.0000 0.50310  0.84090  0.90890  Biso   1.000  O
  O51      1.0000 0.56900  0.83240  0.96750  Biso   1.000  O
  O52      1.0000 0.55860  0.90300  0.90940  Biso   1.000  O
  O53      1.0000 0.54820  0.81650  0.90970  Biso   1.000  O
  O54      1.0000 0.53950  0.86160  0.98670  Biso   1.000  O
  N46      1.0000 0.82890  0.36360  0.49520  Biso   1.000  N
  N47      1.0000 0.92120  0.29790  0.50470  Biso   1.000  N
  N48      1.0000 0.81850  0.45490  0.56000  Biso   1.000  N
  N49      1.0000 0.81840  0.50720  0.58620  Biso   1.000  N
  C118     1.0000 0.83110  0.31670  0.46900  Biso   1.000  C
  H100     1.0000 0.80110  0.30500  0.44730  Biso   1.000  H
  C119     1.0000 0.87910  0.28250  0.47300  Biso   1.000  C
  H101     1.0000 0.88060  0.24930  0.45310  Biso   1.000  H
  C120     1.0000 0.91670  0.34500  0.53180  Biso   1.000  C
  H102     1.0000 0.94610  0.35640  0.55450  Biso   1.000  H
  C121     1.0000 0.87110  0.37850  0.52860  Biso   1.000  C
  C122     1.0000 0.86720  0.43070  0.56000  Biso   1.000  C
  C123     1.0000 0.91750  0.45540  0.58780  Biso   1.000  C
  H103     1.0000 0.90750  0.48930  0.60650  Biso   1.000  H
  H104     1.0000 0.94490  0.46270  0.55910  Biso   1.000  H
  H105     1.0000 0.93210  0.43000  0.61550  Biso   1.000  H
  C124     1.0000 0.77550  0.51680  0.61790  Biso   1.000  C
  C125     1.0000 0.76960  0.57310  0.64290  Biso   1.000  C
  C126     1.0000 0.73000  0.58240  0.68210  Biso   1.000  C
  H106     1.0000 0.70690  0.55410  0.69440  Biso   1.000  H
  C127     1.0000 0.72450  0.63550  0.70360  Biso   1.000  C
  H107     1.0000 0.69660  0.64370  0.72970  Biso   1.000  H
  C128     1.0000 0.76020  0.67560  0.68620  Biso   1.000  C
  H108     1.0000 0.75650  0.71080  0.70180  Biso   1.000  H
  C129     1.0000 0.80200  0.66630  0.64630  Biso   1.000  C
  H109     1.0000 0.82560  0.69440  0.63460  Biso   1.000  H
  C130     1.0000 0.80650  0.61430  0.62520  Biso   1.000  C
  H110     1.0000 0.83410  0.60600  0.59890  Biso   1.000  H
  N50      1.0000 0.04260  0.36110  0.43430  Biso   1.000  N
  O55      1.0000 0.04530  0.41150  0.43910  Biso   1.000  O
  O56      1.0000 0.00310  0.34090  0.40890  Biso   1.000  O
  O57      1.0000 0.06900  0.33240  0.46750  Biso   1.000  O
  O58      1.0000 0.05860  0.40300  0.40940  Biso   1.000  O
  O59      1.0000 0.04820  0.31650  0.40970  Biso   1.000  O
  O60      1.0000 0.03950  0.36160  0.48670  Biso   1.000  O
  N51      1.0000 0.17110  0.13640  0.49520  Biso   1.000  N
  N52      1.0000 0.07880  0.20210  0.50470  Biso   1.000  N
  N53      1.0000 0.18150  0.04510  0.56000  Biso   1.000  N
  N54      1.0000 0.18160  0.99280  0.58620  Biso   1.000  N
  C131     1.0000 0.16890  0.18330  0.46900  Biso   1.000  C
  H111     1.0000 0.19890  0.19500  0.44730  Biso   1.000  H
  C132     1.0000 0.12090  0.21750  0.47300  Biso   1.000  C
  H112     1.0000 0.11940  0.25070  0.45310  Biso   1.000  H
  C133     1.0000 0.08330  0.15500  0.53180  Biso   1.000  C
  H113     1.0000 0.05390  0.14360  0.55450  Biso   1.000  H
  C134     1.0000 0.12890  0.12150  0.52860  Biso   1.000  C
  C135     1.0000 0.13280  0.06930  0.56000  Biso   1.000  C
  C136     1.0000 0.08250  0.04460  0.58780  Biso   1.000  C
  H114     1.0000 0.09250  0.01070  0.60650  Biso   1.000  H
  H115     1.0000 0.05510  0.03730  0.55910  Biso   1.000  H
  H116     1.0000 0.06790  0.07000  0.61550  Biso   1.000  H
  C137     1.0000 0.22450  0.98320  0.61790  Biso   1.000  C
  C138     1.0000 0.23040  0.92690  0.64290  Biso   1.000  C
  C139     1.0000 0.27000  0.91760  0.68210  Biso   1.000  C
  H117     1.0000 0.29310  0.94590  0.69440  Biso   1.000  H
  C140     1.0000 0.27550  0.86450  0.70360  Biso   1.000  C
  H118     1.0000 0.30340  0.85630  0.72970  Biso   1.000  H
  C141     1.0000 0.23980  0.82440  0.68620  Biso   1.000  C
  H119     1.0000 0.24350  0.78920  0.70180  Biso   1.000  H
  C142     1.0000 0.19800  0.83370  0.64630  Biso   1.000  C
  H120     1.0000 0.17440  0.80560  0.63460  Biso   1.000  H
  C143     1.0000 0.19350  0.88570  0.62520  Biso   1.000  C
  H121     1.0000 0.16590  0.89400  0.59890  Biso   1.000  H
  N55      1.0000 0.95740  0.13890  0.43430  Biso   1.000  N
  O61      1.0000 0.95470  0.08850  0.43910  Biso   1.000  O
  O62      1.0000 0.99690  0.15910  0.40890  Biso   1.000  O
  O63      1.0000 0.93100  0.16760  0.46750  Biso   1.000  O
  O64      1.0000 0.94140  0.09700  0.40940  Biso   1.000  O
  O65      1.0000 0.95180  0.18350  0.40970  Biso   1.000  O
  O66      1.0000 0.96050  0.13840  0.48670  Biso   1.000  O
  N56      1.0000 0.67110  0.63640  0.99520  Biso   1.000  N
  N57      1.0000 0.57880  0.70210  0.00470  Biso   1.000  N
  N58      1.0000 0.68150  0.54510  0.06000  Biso   1.000  N
  N59      1.0000 0.68160  0.49280  0.08620  Biso   1.000  N
  C144     1.0000 0.66890  0.68330  0.96900  Biso   1.000  C
  H122     1.0000 0.69890  0.69500  0.94730  Biso   1.000  H
  C145     1.0000 0.62090  0.71750  0.97300  Biso   1.000  C
  H123     1.0000 0.61940  0.75070  0.95310  Biso   1.000  H
  C146     1.0000 0.58330  0.65500  0.03180  Biso   1.000  C
  H124     1.0000 0.55390  0.64360  0.05450  Biso   1.000  H
  C147     1.0000 0.62890  0.62150  0.02860  Biso   1.000  C
  C148     1.0000 0.63280  0.56930  0.06000  Biso   1.000  C
  C149     1.0000 0.58250  0.54460  0.08780  Biso   1.000  C
  H125     1.0000 0.59250  0.51070  0.10650  Biso   1.000  H
  H126     1.0000 0.55510  0.53730  0.05910  Biso   1.000  H
  H127     1.0000 0.56790  0.57000  0.11550  Biso   1.000  H
  C150     1.0000 0.72450  0.48320  0.11790  Biso   1.000  C
  C151     1.0000 0.73040  0.42690  0.14290  Biso   1.000  C
  C152     1.0000 0.77000  0.41760  0.18210  Biso   1.000  C
  H128     1.0000 0.79310  0.44590  0.19440  Biso   1.000  H
  C153     1.0000 0.77550  0.36450  0.20360  Biso   1.000  C
  H129     1.0000 0.80340  0.35630  0.22970  Biso   1.000  H
  C154     1.0000 0.73980  0.32440  0.18620  Biso   1.000  C
  H130     1.0000 0.74350  0.28920  0.20180  Biso   1.000  H
  C155     1.0000 0.69800  0.33370  0.14630  Biso   1.000  C
  H131     1.0000 0.67440  0.30560  0.13460  Biso   1.000  H
  C156     1.0000 0.69350  0.38570  0.12520  Biso   1.000  C
  H132     1.0000 0.66590  0.39400  0.09890  Biso   1.000  H
  N60      1.0000 0.45740  0.63890  0.93430  Biso   1.000  N
  O67      1.0000 0.45470  0.58850  0.93910  Biso   1.000  O
  O68      1.0000 0.49690  0.65910  0.90890  Biso   1.000  O
  O69      1.0000 0.43100  0.66760  0.96750  Biso   1.000  O
  O70      1.0000 0.44140  0.59700  0.90940  Biso   1.000  O
  O71      1.0000 0.45180  0.68350  0.90970  Biso   1.000  O
  O72      1.0000 0.46050  0.63840  0.98670  Biso   1.000  O
  N61      1.0000 0.11360  0.92110  0.74520  Biso   1.000  N
  N62      1.0000 0.04790  0.82880  0.75470  Biso   1.000  N
  N63      1.0000 0.20490  0.93150  0.81000  Biso   1.000  N
  N64      1.0000 0.25720  0.93160  0.83620  Biso   1.000  N
  C157     1.0000 0.06670  0.91890  0.71900  Biso   1.000  C
  H133     1.0000 0.05500  0.94890  0.69730  Biso   1.000  H
  C158     1.0000 0.03250  0.87090  0.72300  Biso   1.000  C
  H134     1.0000 0.99930  0.86940  0.70310  Biso   1.000  H
  C159     1.0000 0.09500  0.83330  0.78180  Biso   1.000  C
  H135     1.0000 0.10640  0.80390  0.80450  Biso   1.000  H
  C160     1.0000 0.12850  0.87890  0.77860  Biso   1.000  C
  C161     1.0000 0.18070  0.88280  0.81000  Biso   1.000  C
  C162     1.0000 0.20540  0.83250  0.83780  Biso   1.000  C
  H136     1.0000 0.23930  0.84250  0.85650  Biso   1.000  H
  H137     1.0000 0.21270  0.80510  0.80910  Biso   1.000  H
  H138     1.0000 0.18000  0.81790  0.86550  Biso   1.000  H
  C163     1.0000 0.26680  0.97450  0.86790  Biso   1.000  C
  C164     1.0000 0.32310  0.98040  0.89290  Biso   1.000  C
  C165     1.0000 0.33240  0.02000  0.93210  Biso   1.000  C
  H139     1.0000 0.30410  0.04310  0.94440  Biso   1.000  H
  C166     1.0000 0.38550  0.02550  0.95360  Biso   1.000  C
  H140     1.0000 0.39370  0.05340  0.97970  Biso   1.000  H
  C167     1.0000 0.42560  0.98980  0.93620  Biso   1.000  C
  H141     1.0000 0.46080  0.99350  0.95180  Biso   1.000  H
  C168     1.0000 0.41630  0.94800  0.89630  Biso   1.000  C
  H142     1.0000 0.44440  0.92440  0.88460  Biso   1.000  H
  C169     1.0000 0.36430  0.94350  0.87520  Biso   1.000  C
  H143     1.0000 0.35600  0.91590  0.84890  Biso   1.000  H
  N65      1.0000 0.11110  0.70740  0.68430  Biso   1.000  N
  O73      1.0000 0.16150  0.70470  0.68910  Biso   1.000  O
  O74      1.0000 0.09090  0.74690  0.65890  Biso   1.000  O
  O75      1.0000 0.08240  0.68100  0.71750  Biso   1.000  O
  O76      1.0000 0.15300  0.69140  0.65940  Biso   1.000  O
  O77      1.0000 0.06650  0.70180  0.65970  Biso   1.000  O
  O78      1.0000 0.11160  0.71050  0.73670  Biso   1.000  O
  N66      1.0000 0.61360  0.42110  0.24520  Biso   1.000  N
  N67      1.0000 0.54790  0.32880  0.25470  Biso   1.000  N
  N68      1.0000 0.70490  0.43150  0.31000  Biso   1.000  N
  N69      1.0000 0.75720  0.43160  0.33620  Biso   1.000  N
  C170     1.0000 0.56670  0.41890  0.21900  Biso   1.000  C
  H144     1.0000 0.55500  0.44890  0.19730  Biso   1.000  H
  C171     1.0000 0.53250  0.37090  0.22300  Biso   1.000  C
  H145     1.0000 0.49930  0.36940  0.20310  Biso   1.000  H
  C172     1.0000 0.59500  0.33330  0.28180  Biso   1.000  C
  H146     1.0000 0.60640  0.30390  0.30450  Biso   1.000  H
  C173     1.0000 0.62850  0.37890  0.27860  Biso   1.000  C
  C174     1.0000 0.68070  0.38280  0.31000  Biso   1.000  C
  C175     1.0000 0.70540  0.33250  0.33780  Biso   1.000  C
  H147     1.0000 0.73930  0.34250  0.35650  Biso   1.000  H
  H148     1.0000 0.71270  0.30510  0.30910  Biso   1.000  H
  H149     1.0000 0.68000  0.31790  0.36550  Biso   1.000  H
  C176     1.0000 0.76680  0.47450  0.36790  Biso   1.000  C
  C177     1.0000 0.82310  0.48040  0.39290  Biso   1.000  C
  C178     1.0000 0.83240  0.52000  0.43210  Biso   1.000  C
  H150     1.0000 0.80410  0.54310  0.44440  Biso   1.000  H
  C179     1.0000 0.88550  0.52550  0.45360  Biso   1.000  C
  H151     1.0000 0.89370  0.55340  0.47970  Biso   1.000  H
  C180     1.0000 0.92560  0.48980  0.43620  Biso   1.000  C
  H152     1.0000 0.96080  0.49350  0.45180  Biso   1.000  H
  C181     1.0000 0.91630  0.44800  0.39630  Biso   1.000  C
  H153     1.0000 0.94440  0.42440  0.38460  Biso   1.000  H
  C182     1.0000 0.86430  0.44350  0.37520  Biso   1.000  C
  H154     1.0000 0.85600  0.41590  0.34890  Biso   1.000  H
  N70      1.0000 0.61110  0.20740  0.18430  Biso   1.000  N
  O79      1.0000 0.66150  0.20470  0.18910  Biso   1.000  O
  O80      1.0000 0.59090  0.24690  0.15890  Biso   1.000  O
  O81      1.0000 0.58240  0.18100  0.21750  Biso   1.000  O
  O82      1.0000 0.65300  0.19140  0.15940  Biso   1.000  O
  O83      1.0000 0.56650  0.20180  0.15970  Biso   1.000  O
  O84      1.0000 0.61160  0.21050  0.23670  Biso   1.000  O
  N71      1.0000 0.38640  0.07890  0.24520  Biso   1.000  N
  N72      1.0000 0.45210  0.17120  0.25470  Biso   1.000  N
  N73      1.0000 0.29510  0.06850  0.31000  Biso   1.000  N
  N74      1.0000 0.24280  0.06840  0.33620  Biso   1.000  N
  C183     1.0000 0.43330  0.08110  0.21900  Biso   1.000  C
  H155     1.0000 0.44500  0.05110  0.19730  Biso   1.000  H
  C184     1.0000 0.46750  0.12910  0.22300  Biso   1.000  C
  H156     1.0000 0.50070  0.13060  0.20310  Biso   1.000  H
  C185     1.0000 0.40500  0.16670  0.28180  Biso   1.000  C
  H157     1.0000 0.39360  0.19610  0.30450  Biso   1.000  H
  C186     1.0000 0.37150  0.12110  0.27860  Biso   1.000  C
  C187     1.0000 0.31930  0.11720  0.31000  Biso   1.000  C
  C188     1.0000 0.29460  0.16750  0.33780  Biso   1.000  C
  H158     1.0000 0.26070  0.15750  0.35650  Biso   1.000  H
  H159     1.0000 0.28730  0.19490  0.30910  Biso   1.000  H
  H160     1.0000 0.32000  0.18210  0.36550  Biso   1.000  H
  C189     1.0000 0.23320  0.02550  0.36790  Biso   1.000  C
  C190     1.0000 0.17690  0.01960  0.39290  Biso   1.000  C
  C191     1.0000 0.16760  0.98000  0.43210  Biso   1.000  C
  H161     1.0000 0.19590  0.95690  0.44440  Biso   1.000  H
  C192     1.0000 0.11450  0.97450  0.45360  Biso   1.000  C
  H162     1.0000 0.10630  0.94660  0.47970  Biso   1.000  H
  C193     1.0000 0.07440  0.01020  0.43620  Biso   1.000  C
  H163     1.0000 0.03920  0.00650  0.45180  Biso   1.000  H
  C194     1.0000 0.08370  0.05200  0.39630  Biso   1.000  C
  H164     1.0000 0.05560  0.07560  0.38460  Biso   1.000  H
  C195     1.0000 0.13570  0.05650  0.37520  Biso   1.000  C
  H165     1.0000 0.14400  0.08410  0.34890  Biso   1.000  H
  N75      1.0000 0.38890  0.29260  0.18430  Biso   1.000  N
  O85      1.0000 0.33850  0.29530  0.18910  Biso   1.000  O
  O86      1.0000 0.40910  0.25310  0.15890  Biso   1.000  O
  O87      1.0000 0.41760  0.31900  0.21750  Biso   1.000  O
  O88      1.0000 0.34700  0.30860  0.15940  Biso   1.000  O
  O89      1.0000 0.43350  0.29820  0.15970  Biso   1.000  O
  O90      1.0000 0.38840  0.28950  0.23670  Biso   1.000  O
  N76      1.0000 0.88640  0.57890  0.74520  Biso   1.000  N
  N77      1.0000 0.95210  0.67120  0.75470  Biso   1.000  N
  N78      1.0000 0.79510  0.56850  0.81000  Biso   1.000  N
  N79      1.0000 0.74280  0.56840  0.83620  Biso   1.000  N
  C196     1.0000 0.93330  0.58110  0.71900  Biso   1.000  C
  H166     1.0000 0.94500  0.55110  0.69730  Biso   1.000  H
  C197     1.0000 0.96750  0.62910  0.72300  Biso   1.000  C
  H167     1.0000 0.00070  0.63060  0.70310  Biso   1.000  H
  C198     1.0000 0.90500  0.66670  0.78180  Biso   1.000  C
  H168     1.0000 0.89360  0.69610  0.80450  Biso   1.000  H
  C199     1.0000 0.87150  0.62110  0.77860  Biso   1.000  C
  C200     1.0000 0.81930  0.61720  0.81000  Biso   1.000  C
  C201     1.0000 0.79460  0.66750  0.83780  Biso   1.000  C
  H169     1.0000 0.76070  0.65750  0.85650  Biso   1.000  H
  H170     1.0000 0.78730  0.69490  0.80910  Biso   1.000  H
  H171     1.0000 0.82000  0.68210  0.86550  Biso   1.000  H
  C202     1.0000 0.73320  0.52550  0.86790  Biso   1.000  C
  C203     1.0000 0.67690  0.51960  0.89290  Biso   1.000  C
  C204     1.0000 0.66760  0.48000  0.93210  Biso   1.000  C
  H172     1.0000 0.69590  0.45690  0.94440  Biso   1.000  H
  C205     1.0000 0.61450  0.47450  0.95360  Biso   1.000  C
  H173     1.0000 0.60630  0.44660  0.97970  Biso   1.000  H
  C206     1.0000 0.57440  0.51020  0.93620  Biso   1.000  C
  H174     1.0000 0.53920  0.50650  0.95180  Biso   1.000  H
  C207     1.0000 0.58370  0.55200  0.89630  Biso   1.000  C
  H175     1.0000 0.55560  0.57560  0.88460  Biso   1.000  H
  C208     1.0000 0.63570  0.55650  0.87520  Biso   1.000  C
  H176     1.0000 0.64400  0.58410  0.84890  Biso   1.000  H
  N80      1.0000 0.88890  0.79260  0.68430  Biso   1.000  N
  O91      1.0000 0.83850  0.79530  0.68910  Biso   1.000  O
  O92      1.0000 0.90910  0.75310  0.65890  Biso   1.000  O
  O93      1.0000 0.91760  0.81900  0.71750  Biso   1.000  O
  O94      1.0000 0.84700  0.80860  0.65940  Biso   1.000  O
  O95      1.0000 0.93350  0.79820  0.65970  Biso   1.000  O
  O96      1.0000 0.88840  0.78950  0.73670  Biso   1.000  O
  N81      1.0000 0.82890  0.13640  0.99520  Biso   1.000  N
  N82      1.0000 0.92120  0.20210  0.00470  Biso   1.000  N
  N83      1.0000 0.81850  0.04510  0.06000  Biso   1.000  N
  N84      1.0000 0.81840  0.99280  0.08620  Biso   1.000  N
  C209     1.0000 0.83110  0.18330  0.96900  Biso   1.000  C
  H177     1.0000 0.80110  0.19500  0.94730  Biso   1.000  H
  C210     1.0000 0.87910  0.21750  0.97300  Biso   1.000  C
  H178     1.0000 0.88060  0.25070  0.95310  Biso   1.000  H
  C211     1.0000 0.91670  0.15500  0.03180  Biso   1.000  C
  H179     1.0000 0.94610  0.14360  0.05450  Biso   1.000  H
  C212     1.0000 0.87110  0.12150  0.02860  Biso   1.000  C
  C213     1.0000 0.86720  0.06930  0.06000  Biso   1.000  C
  C214     1.0000 0.91750  0.04460  0.08780  Biso   1.000  C
  H180     1.0000 0.90750  0.01070  0.10650  Biso   1.000  H
  H181     1.0000 0.94490  0.03730  0.05910  Biso   1.000  H
  H182     1.0000 0.93210  0.07000  0.11550  Biso   1.000  H
  C215     1.0000 0.77550  0.98320  0.11790  Biso   1.000  C
  C216     1.0000 0.76960  0.92690  0.14290  Biso   1.000  C
  C217     1.0000 0.73000  0.91760  0.18210  Biso   1.000  C
  H183     1.0000 0.70690  0.94590  0.19440  Biso   1.000  H
  C218     1.0000 0.72450  0.86450  0.20360  Biso   1.000  C
  H184     1.0000 0.69660  0.85630  0.22970  Biso   1.000  H
  C219     1.0000 0.76020  0.82440  0.18620  Biso   1.000  C
  H185     1.0000 0.75650  0.78920  0.20180  Biso   1.000  H
  C220     1.0000 0.80200  0.83370  0.14630  Biso   1.000  C
  H186     1.0000 0.82560  0.80560  0.13460  Biso   1.000  H
  C221     1.0000 0.80650  0.88570  0.12520  Biso   1.000  C
  H187     1.0000 0.83410  0.89400  0.09890  Biso   1.000  H
  N85      1.0000 0.04260  0.13890  0.93430  Biso   1.000  N
  O97      1.0000 0.04530  0.08850  0.93910  Biso   1.000  O
  O98      1.0000 0.00310  0.15910  0.90890  Biso   1.000  O
  O99      1.0000 0.06900  0.16760  0.96750  Biso   1.000  O
  O100     1.0000 0.05860  0.09700  0.90940  Biso   1.000  O
  O101     1.0000 0.04820  0.18350  0.90970  Biso   1.000  O
  O102     1.0000 0.03950  0.13840  0.98670  Biso   1.000  O
  N86      1.0000 0.32890  0.63640  0.49520  Biso   1.000  N
  N87      1.0000 0.42120  0.70210  0.50470  Biso   1.000  N
  N88      1.0000 0.31850  0.54510  0.56000  Biso   1.000  N
  N89      1.0000 0.31840  0.49280  0.58620  Biso   1.000  N
  C222     1.0000 0.33110  0.68330  0.46900  Biso   1.000  C
  H188     1.0000 0.30110  0.69500  0.44730  Biso   1.000  H
  C223     1.0000 0.37910  0.71750  0.47300  Biso   1.000  C
  H189     1.0000 0.38060  0.75070  0.45310  Biso   1.000  H
  C224     1.0000 0.41670  0.65500  0.53180  Biso   1.000  C
  H190     1.0000 0.44610  0.64360  0.55450  Biso   1.000  H
  C225     1.0000 0.37110  0.62150  0.52860  Biso   1.000  C
  C226     1.0000 0.36720  0.56930  0.56000  Biso   1.000  C
  C227     1.0000 0.41750  0.54460  0.58780  Biso   1.000  C
  H191     1.0000 0.40750  0.51070  0.60650  Biso   1.000  H
  H192     1.0000 0.44490  0.53730  0.55910  Biso   1.000  H
  H193     1.0000 0.43210  0.57000  0.61550  Biso   1.000  H
  C228     1.0000 0.27550  0.48320  0.61790  Biso   1.000  C
  C229     1.0000 0.26960  0.42690  0.64290  Biso   1.000  C
  C230     1.0000 0.23000  0.41760  0.68210  Biso   1.000  C
  H194     1.0000 0.20690  0.44590  0.69440  Biso   1.000  H
  C231     1.0000 0.22450  0.36450  0.70360  Biso   1.000  C
  H195     1.0000 0.19660  0.35630  0.72970  Biso   1.000  H
  C232     1.0000 0.26020  0.32440  0.68620  Biso   1.000  C
  H196     1.0000 0.25650  0.28920  0.70180  Biso   1.000  H
  C233     1.0000 0.30200  0.33370  0.64630  Biso   1.000  C
  H197     1.0000 0.32560  0.30560  0.63460  Biso   1.000  H
  C234     1.0000 0.30650  0.38570  0.62520  Biso   1.000  C
  H198     1.0000 0.33410  0.39400  0.59890  Biso   1.000  H
  N90      1.0000 0.54260  0.63890  0.43430  Biso   1.000  N
  O103     1.0000 0.54530  0.58850  0.43910  Biso   1.000  O
  O104     1.0000 0.50310  0.65910  0.40890  Biso   1.000  O
  O105     1.0000 0.56900  0.66760  0.46750  Biso   1.000  O
  O106     1.0000 0.55860  0.59700  0.40940  Biso   1.000  O
  O107     1.0000 0.54820  0.68350  0.40970  Biso   1.000  O
  O108     1.0000 0.53950  0.63840  0.48670  Biso   1.000  O
  N91      1.0000 0.67110  0.86360  0.49520  Biso   1.000  N
  N92      1.0000 0.57880  0.79790  0.50470  Biso   1.000  N
  N93      1.0000 0.68150  0.95490  0.56000  Biso   1.000  N
  N94      1.0000 0.68160  0.00720  0.58620  Biso   1.000  N
  C235     1.0000 0.66890  0.81670  0.46900  Biso   1.000  C
  H199     1.0000 0.69890  0.80500  0.44730  Biso   1.000  H
  C236     1.0000 0.62090  0.78250  0.47300  Biso   1.000  C
  H200     1.0000 0.61940  0.74930  0.45310  Biso   1.000  H
  C237     1.0000 0.58330  0.84500  0.53180  Biso   1.000  C
  H201     1.0000 0.55390  0.85640  0.55450  Biso   1.000  H
  C238     1.0000 0.62890  0.87850  0.52860  Biso   1.000  C
  C239     1.0000 0.63280  0.93070  0.56000  Biso   1.000  C
  C240     1.0000 0.58250  0.95540  0.58780  Biso   1.000  C
  H202     1.0000 0.59250  0.98930  0.60650  Biso   1.000  H
  H203     1.0000 0.55510  0.96270  0.55910  Biso   1.000  H
  H204     1.0000 0.56790  0.93000  0.61550  Biso   1.000  H
  C241     1.0000 0.72450  0.01680  0.61790  Biso   1.000  C
  C242     1.0000 0.73040  0.07310  0.64290  Biso   1.000  C
  C243     1.0000 0.77000  0.08240  0.68210  Biso   1.000  C
  H205     1.0000 0.79310  0.05410  0.69440  Biso   1.000  H
  C244     1.0000 0.77550  0.13550  0.70360  Biso   1.000  C
  H206     1.0000 0.80340  0.14370  0.72970  Biso   1.000  H
  C245     1.0000 0.73980  0.17560  0.68620  Biso   1.000  C
  H207     1.0000 0.74350  0.21080  0.70180  Biso   1.000  H
  C246     1.0000 0.69800  0.16630  0.64630  Biso   1.000  C
  H208     1.0000 0.67440  0.19440  0.63460  Biso   1.000  H
  C247     1.0000 0.69350  0.11430  0.62520  Biso   1.000  C
  H209     1.0000 0.66590  0.10600  0.59890  Biso   1.000  H
  N95      1.0000 0.45740  0.86110  0.43430  Biso   1.000  N
  O109     1.0000 0.45470  0.91150  0.43910  Biso   1.000  O
  O110     1.0000 0.49690  0.84090  0.40890  Biso   1.000  O
  O111     1.0000 0.43100  0.83240  0.46750  Biso   1.000  O
  O112     1.0000 0.44140  0.90300  0.40940  Biso   1.000  O
  O113     1.0000 0.45180  0.81650  0.40970  Biso   1.000  O
  O114     1.0000 0.46050  0.86160  0.48670  Biso   1.000  O
  N96      1.0000 0.17110  0.36360  0.99520  Biso   1.000  N
  N97      1.0000 0.07880  0.29790  0.00470  Biso   1.000  N
  N98      1.0000 0.18150  0.45490  0.06000  Biso   1.000  N
  N99      1.0000 0.18160  0.50720  0.08620  Biso   1.000  N
  C248     1.0000 0.16890  0.31670  0.96900  Biso   1.000  C
  H210     1.0000 0.19890  0.30500  0.94730  Biso   1.000  H
  C249     1.0000 0.12090  0.28250  0.97300  Biso   1.000  C
  H211     1.0000 0.11940  0.24930  0.95310  Biso   1.000  H
  C250     1.0000 0.08330  0.34500  0.03180  Biso   1.000  C
  H212     1.0000 0.05390  0.35640  0.05450  Biso   1.000  H
  C251     1.0000 0.12890  0.37850  0.02860  Biso   1.000  C
  C252     1.0000 0.13280  0.43070  0.06000  Biso   1.000  C
  C253     1.0000 0.08250  0.45540  0.08780  Biso   1.000  C
  H213     1.0000 0.09250  0.48930  0.10650  Biso   1.000  H
  H214     1.0000 0.05510  0.46270  0.05910  Biso   1.000  H
  H215     1.0000 0.06790  0.43000  0.11550  Biso   1.000  H
  C254     1.0000 0.22450  0.51680  0.11790  Biso   1.000  C
  C255     1.0000 0.23040  0.57310  0.14290  Biso   1.000  C
  C256     1.0000 0.27000  0.58240  0.18210  Biso   1.000  C
  H216     1.0000 0.29310  0.55410  0.19440  Biso   1.000  H
  C257     1.0000 0.27550  0.63550  0.20360  Biso   1.000  C
  H217     1.0000 0.30340  0.64370  0.22970  Biso   1.000  H
  C258     1.0000 0.23980  0.67560  0.18620  Biso   1.000  C
  H218     1.0000 0.24350  0.71080  0.20180  Biso   1.000  H
  C259     1.0000 0.19800  0.66630  0.14630  Biso   1.000  C
  H219     1.0000 0.17440  0.69440  0.13460  Biso   1.000  H
  C260     1.0000 0.19350  0.61430  0.12520  Biso   1.000  C
  H220     1.0000 0.16590  0.60600  0.09890  Biso   1.000  H
  N100     1.0000 0.95740  0.36110  0.93430  Biso   1.000  N
  O115     1.0000 0.95470  0.41150  0.93910  Biso   1.000  O
  O116     1.0000 0.99690  0.34090  0.90890  Biso   1.000  O
  O117     1.0000 0.93100  0.33240  0.96750  Biso   1.000  O
  O118     1.0000 0.94140  0.40300  0.90940  Biso   1.000  O
  O119     1.0000 0.95180  0.31650  0.90970  Biso   1.000  O
  O120     1.0000 0.96050  0.36160  0.98670  Biso   1.000  O
  N101     1.0000 0.61360  0.07890  0.74520  Biso   1.000  N
  N102     1.0000 0.54790  0.17120  0.75470  Biso   1.000  N
  N103     1.0000 0.70490  0.06850  0.81000  Biso   1.000  N
  N104     1.0000 0.75720  0.06840  0.83620  Biso   1.000  N
  C261     1.0000 0.56670  0.08110  0.71900  Biso   1.000  C
  H221     1.0000 0.55500  0.05110  0.69730  Biso   1.000  H
  C262     1.0000 0.53250  0.12910  0.72300  Biso   1.000  C
  H222     1.0000 0.49930  0.13060  0.70310  Biso   1.000  H
  C263     1.0000 0.59500  0.16670  0.78180  Biso   1.000  C
  H223     1.0000 0.60640  0.19610  0.80450  Biso   1.000  H
  C264     1.0000 0.62850  0.12110  0.77860  Biso   1.000  C
  C265     1.0000 0.68070  0.11720  0.81000  Biso   1.000  C
  C266     1.0000 0.70540  0.16750  0.83780  Biso   1.000  C
  H224     1.0000 0.73930  0.15750  0.85650  Biso   1.000  H
  H225     1.0000 0.71270  0.19490  0.80910  Biso   1.000  H
  H226     1.0000 0.68000  0.18210  0.86550  Biso   1.000  H
  C267     1.0000 0.76680  0.02550  0.86790  Biso   1.000  C
  C268     1.0000 0.82310  0.01960  0.89290  Biso   1.000  C
  C269     1.0000 0.83240  0.98000  0.93210  Biso   1.000  C
  H227     1.0000 0.80410  0.95690  0.94440  Biso   1.000  H
  C270     1.0000 0.88550  0.97450  0.95360  Biso   1.000  C
  H228     1.0000 0.89370  0.94660  0.97970  Biso   1.000  H
  C271     1.0000 0.92560  0.01020  0.93620  Biso   1.000  C
  H229     1.0000 0.96080  0.00650  0.95180  Biso   1.000  H
  C272     1.0000 0.91630  0.05200  0.89630  Biso   1.000  C
  H230     1.0000 0.94440  0.07560  0.88460  Biso   1.000  H
  C273     1.0000 0.86430  0.05650  0.87520  Biso   1.000  C
  H231     1.0000 0.85600  0.08410  0.84890  Biso   1.000  H
  N105     1.0000 0.61110  0.29260  0.68430  Biso   1.000  N
  O121     1.0000 0.66150  0.29530  0.68910  Biso   1.000  O
  O122     1.0000 0.59090  0.25310  0.65890  Biso   1.000  O
  O123     1.0000 0.58240  0.31900  0.71750  Biso   1.000  O
  O124     1.0000 0.65300  0.30860  0.65940  Biso   1.000  O
  O125     1.0000 0.56650  0.29820  0.65970  Biso   1.000  O
  O126     1.0000 0.61160  0.28950  0.73670  Biso   1.000  O
  N106     1.0000 0.11360  0.57890  0.24520  Biso   1.000  N
  N107     1.0000 0.04790  0.67120  0.25470  Biso   1.000  N
  N108     1.0000 0.20490  0.56850  0.31000  Biso   1.000  N
  N109     1.0000 0.25720  0.56840  0.33620  Biso   1.000  N
  C274     1.0000 0.06670  0.58110  0.21900  Biso   1.000  C
  H232     1.0000 0.05500  0.55110  0.19730  Biso   1.000  H
  C275     1.0000 0.03250  0.62910  0.22300  Biso   1.000  C
  H233     1.0000 0.99930  0.63060  0.20310  Biso   1.000  H
  C276     1.0000 0.09500  0.66670  0.28180  Biso   1.000  C
  H234     1.0000 0.10640  0.69610  0.30450  Biso   1.000  H
  C277     1.0000 0.12850  0.62110  0.27860  Biso   1.000  C
  C278     1.0000 0.18070  0.61720  0.31000  Biso   1.000  C
  C279     1.0000 0.20540  0.66750  0.33780  Biso   1.000  C
  H235     1.0000 0.23930  0.65750  0.35650  Biso   1.000  H
  H236     1.0000 0.21270  0.69490  0.30910  Biso   1.000  H
  H237     1.0000 0.18000  0.68210  0.36550  Biso   1.000  H
  C280     1.0000 0.26680  0.52550  0.36790  Biso   1.000  C
  C281     1.0000 0.32310  0.51960  0.39290  Biso   1.000  C
  C282     1.0000 0.33240  0.48000  0.43210  Biso   1.000  C
  H238     1.0000 0.30410  0.45690  0.44440  Biso   1.000  H
  C283     1.0000 0.38550  0.47450  0.45360  Biso   1.000  C
  H239     1.0000 0.39370  0.44660  0.47970  Biso   1.000  H
  C284     1.0000 0.42560  0.51020  0.43620  Biso   1.000  C
  H240     1.0000 0.46080  0.50650  0.45180  Biso   1.000  H
  C285     1.0000 0.41630  0.55200  0.39630  Biso   1.000  C
  H241     1.0000 0.44440  0.57560  0.38460  Biso   1.000  H
  C286     1.0000 0.36430  0.55650  0.37520  Biso   1.000  C
  H242     1.0000 0.35600  0.58410  0.34890  Biso   1.000  H
  N110     1.0000 0.11110  0.79260  0.18430  Biso   1.000  N
  O127     1.0000 0.16150  0.79530  0.18910  Biso   1.000  O
  O128     1.0000 0.09090  0.75310  0.15890  Biso   1.000  O
  O129     1.0000 0.08240  0.81900  0.21750  Biso   1.000  O
  O130     1.0000 0.15300  0.80860  0.15940  Biso   1.000  O
  O131     1.0000 0.06650  0.79820  0.15970  Biso   1.000  O
  O132     1.0000 0.11160  0.78950  0.23670  Biso   1.000  O
  N111     1.0000 0.88640  0.92110  0.24520  Biso   1.000  N
  N112     1.0000 0.95210  0.82880  0.25470  Biso   1.000  N
  N113     1.0000 0.79510  0.93150  0.31000  Biso   1.000  N
  N114     1.0000 0.74280  0.93160  0.33620  Biso   1.000  N
  C287     1.0000 0.93330  0.91890  0.21900  Biso   1.000  C
  H243     1.0000 0.94500  0.94890  0.19730  Biso   1.000  H
  C288     1.0000 0.96750  0.87090  0.22300  Biso   1.000  C
  H244     1.0000 0.00070  0.86940  0.20310  Biso   1.000  H
  C289     1.0000 0.90500  0.83330  0.28180  Biso   1.000  C
  H245     1.0000 0.89360  0.80390  0.30450  Biso   1.000  H
  C290     1.0000 0.87150  0.87890  0.27860  Biso   1.000  C
  C291     1.0000 0.81930  0.88280  0.31000  Biso   1.000  C
  C292     1.0000 0.79460  0.83250  0.33780  Biso   1.000  C
  H246     1.0000 0.76070  0.84250  0.35650  Biso   1.000  H
  H247     1.0000 0.78730  0.80510  0.30910  Biso   1.000  H
  H248     1.0000 0.82000  0.81790  0.36550  Biso   1.000  H
  C293     1.0000 0.73320  0.97450  0.36790  Biso   1.000  C
  C294     1.0000 0.67690  0.98040  0.39290  Biso   1.000  C
  C295     1.0000 0.66760  0.02000  0.43210  Biso   1.000  C
  H249     1.0000 0.69590  0.04310  0.44440  Biso   1.000  H
  C296     1.0000 0.61450  0.02550  0.45360  Biso   1.000  C
  H250     1.0000 0.60630  0.05340  0.47970  Biso   1.000  H
  C297     1.0000 0.57440  0.98980  0.43620  Biso   1.000  C
  H251     1.0000 0.53920  0.99350  0.45180  Biso   1.000  H
  C298     1.0000 0.58370  0.94800  0.39630  Biso   1.000  C
  H252     1.0000 0.55560  0.92440  0.38460  Biso   1.000  H
  C299     1.0000 0.63570  0.94350  0.37520  Biso   1.000  C
  H253     1.0000 0.64400  0.91590  0.34890  Biso   1.000  H
  N115     1.0000 0.88890  0.70740  0.18430  Biso   1.000  N
  O133     1.0000 0.83850  0.70470  0.18910  Biso   1.000  O
  O134     1.0000 0.90910  0.74690  0.15890  Biso   1.000  O
  O135     1.0000 0.91760  0.68100  0.21750  Biso   1.000  O
  O136     1.0000 0.84700  0.69140  0.15940  Biso   1.000  O
  O137     1.0000 0.93350  0.70180  0.15970  Biso   1.000  O
  O138     1.0000 0.88840  0.71050  0.23670  Biso   1.000  O
  N116     1.0000 0.38640  0.42110  0.74520  Biso   1.000  N
  N117     1.0000 0.45210  0.32880  0.75470  Biso   1.000  N
  N118     1.0000 0.29510  0.43150  0.81000  Biso   1.000  N
  N119     1.0000 0.24280  0.43160  0.83620  Biso   1.000  N
  C300     1.0000 0.43330  0.41890  0.71900  Biso   1.000  C
  H254     1.0000 0.44500  0.44890  0.69730  Biso   1.000  H
  C301     1.0000 0.46750  0.37090  0.72300  Biso   1.000  C
  H255     1.0000 0.50070  0.36940  0.70310  Biso   1.000  H
  C302     1.0000 0.40500  0.33330  0.78180  Biso   1.000  C
  H256     1.0000 0.39360  0.30390  0.80450  Biso   1.000  H
  C303     1.0000 0.37150  0.37890  0.77860  Biso   1.000  C
  C304     1.0000 0.31930  0.38280  0.81000  Biso   1.000  C
  C305     1.0000 0.29460  0.33250  0.83780  Biso   1.000  C
  H257     1.0000 0.26070  0.34250  0.85650  Biso   1.000  H
  H258     1.0000 0.28730  0.30510  0.80910  Biso   1.000  H
  H259     1.0000 0.32000  0.31790  0.86550  Biso   1.000  H
  C306     1.0000 0.23320  0.47450  0.86790  Biso   1.000  C
  C307     1.0000 0.17690  0.48040  0.89290  Biso   1.000  C
  C308     1.0000 0.16760  0.52000  0.93210  Biso   1.000  C
  H260     1.0000 0.19590  0.54310  0.94440  Biso   1.000  H
  C309     1.0000 0.11450  0.52550  0.95360  Biso   1.000  C
  H261     1.0000 0.10630  0.55340  0.97970  Biso   1.000  H
  C310     1.0000 0.07440  0.48980  0.93620  Biso   1.000  C
  H262     1.0000 0.03920  0.49350  0.95180  Biso   1.000  H
  C311     1.0000 0.08370  0.44800  0.89630  Biso   1.000  C
  H263     1.0000 0.05560  0.42440  0.88460  Biso   1.000  H
  C312     1.0000 0.13570  0.44350  0.87520  Biso   1.000  C
  H264     1.0000 0.14400  0.41590  0.84890  Biso   1.000  H
  N120     1.0000 0.38890  0.20740  0.68430  Biso   1.000  N
  O139     1.0000 0.33850  0.20470  0.68910  Biso   1.000  O
  O140     1.0000 0.40910  0.24690  0.65890  Biso   1.000  O
  O141     1.0000 0.41760  0.18100  0.71750  Biso   1.000  O
  O142     1.0000 0.34700  0.19140  0.65940  Biso   1.000  O
  O143     1.0000 0.43350  0.20180  0.65970  Biso   1.000  O
  O144     1.0000 0.38840  0.21050  0.73670  Biso   1.000  O
  N121     1.0000 0.67110  0.13640  0.00480  Biso   1.000  N
  N122     1.0000 0.57880  0.20210  0.99530  Biso   1.000  N
  N123     1.0000 0.68150  0.04510  0.94000  Biso   1.000  N
  N124     1.0000 0.68160  0.99280  0.91380  Biso   1.000  N
  C313     1.0000 0.66890  0.18330  0.03100  Biso   1.000  C
  H265     1.0000 0.69890  0.19500  0.05270  Biso   1.000  H
  C314     1.0000 0.62090  0.21750  0.02700  Biso   1.000  C
  H266     1.0000 0.61940  0.25070  0.04690  Biso   1.000  H
  C315     1.0000 0.58330  0.15500  0.96820  Biso   1.000  C
  H267     1.0000 0.55390  0.14360  0.94550  Biso   1.000  H
  C316     1.0000 0.62890  0.12150  0.97140  Biso   1.000  C
  C317     1.0000 0.63280  0.06930  0.94000  Biso   1.000  C
  C318     1.0000 0.58250  0.04460  0.91220  Biso   1.000  C
  H268     1.0000 0.59250  0.01070  0.89350  Biso   1.000  H
  H269     1.0000 0.55510  0.03730  0.94090  Biso   1.000  H
  H270     1.0000 0.56790  0.07000  0.88450  Biso   1.000  H
  C319     1.0000 0.72450  0.98320  0.88210  Biso   1.000  C
  C320     1.0000 0.73040  0.92690  0.85710  Biso   1.000  C
  C321     1.0000 0.77000  0.91760  0.81790  Biso   1.000  C
  H271     1.0000 0.79310  0.94590  0.80560  Biso   1.000  H
  C322     1.0000 0.77550  0.86450  0.79640  Biso   1.000  C
  H272     1.0000 0.80340  0.85630  0.77030  Biso   1.000  H
  C323     1.0000 0.73980  0.82440  0.81380  Biso   1.000  C
  H273     1.0000 0.74350  0.78920  0.79820  Biso   1.000  H
  C324     1.0000 0.69800  0.83370  0.85370  Biso   1.000  C
  H274     1.0000 0.67440  0.80560  0.86540  Biso   1.000  H
  C325     1.0000 0.69350  0.88570  0.87480  Biso   1.000  C
  H275     1.0000 0.66590  0.89400  0.90110  Biso   1.000  H
  N125     1.0000 0.45740  0.13890  0.06570  Biso   1.000  N
  O145     1.0000 0.45470  0.08850  0.06090  Biso   1.000  O
  O146     1.0000 0.49690  0.15910  0.09110  Biso   1.000  O
  O147     1.0000 0.43100  0.16760  0.03250  Biso   1.000  O
  O148     1.0000 0.44140  0.09700  0.09060  Biso   1.000  O
  O149     1.0000 0.45180  0.18350  0.09030  Biso   1.000  O
  O150     1.0000 0.46050  0.13840  0.01330  Biso   1.000  O
  N126     1.0000 0.17110  0.63640  0.50480  Biso   1.000  N
  N127     1.0000 0.07880  0.70210  0.49530  Biso   1.000  N
  N128     1.0000 0.18150  0.54510  0.44000  Biso   1.000  N
  N129     1.0000 0.18160  0.49280  0.41380  Biso   1.000  N
  C326     1.0000 0.16890  0.68330  0.53100  Biso   1.000  C
  H276     1.0000 0.19890  0.69500  0.55270  Biso   1.000  H
  C327     1.0000 0.12090  0.71750  0.52700  Biso   1.000  C
  H277     1.0000 0.11940  0.75070  0.54690  Biso   1.000  H
  C328     1.0000 0.08330  0.65500  0.46820  Biso   1.000  C
  H278     1.0000 0.05390  0.64360  0.44550  Biso   1.000  H
  C329     1.0000 0.12890  0.62150  0.47140  Biso   1.000  C
  C330     1.0000 0.13280  0.56930  0.44000  Biso   1.000  C
  C331     1.0000 0.08250  0.54460  0.41220  Biso   1.000  C
  H279     1.0000 0.09250  0.51070  0.39350  Biso   1.000  H
  H280     1.0000 0.05510  0.53730  0.44090  Biso   1.000  H
  H281     1.0000 0.06790  0.57000  0.38450  Biso   1.000  H
  C332     1.0000 0.22450  0.48320  0.38210  Biso   1.000  C
  C333     1.0000 0.23040  0.42690  0.35710  Biso   1.000  C
  C334     1.0000 0.27000  0.41760  0.31790  Biso   1.000  C
  H282     1.0000 0.29310  0.44590  0.30560  Biso   1.000  H
  C335     1.0000 0.27550  0.36450  0.29640  Biso   1.000  C
  H283     1.0000 0.30340  0.35630  0.27030  Biso   1.000  H
  C336     1.0000 0.23980  0.32440  0.31380  Biso   1.000  C
  H284     1.0000 0.24350  0.28920  0.29820  Biso   1.000  H
  C337     1.0000 0.19800  0.33370  0.35370  Biso   1.000  C
  H285     1.0000 0.17440  0.30560  0.36540  Biso   1.000  H
  C338     1.0000 0.19350  0.38570  0.37480  Biso   1.000  C
  H286     1.0000 0.16590  0.39400  0.40110  Biso   1.000  H
  N130     1.0000 0.95740  0.63890  0.56570  Biso   1.000  N
  O151     1.0000 0.95470  0.58850  0.56090  Biso   1.000  O
  O152     1.0000 0.99690  0.65910  0.59110  Biso   1.000  O
  O153     1.0000 0.93100  0.66760  0.53250  Biso   1.000  O
  O154     1.0000 0.94140  0.59700  0.59060  Biso   1.000  O
  O155     1.0000 0.95180  0.68350  0.59030  Biso   1.000  O
  O156     1.0000 0.96050  0.63840  0.51330  Biso   1.000  O
  N131     1.0000 0.82890  0.86360  0.50480  Biso   1.000  N
  N132     1.0000 0.92120  0.79790  0.49530  Biso   1.000  N
  N133     1.0000 0.81850  0.95490  0.44000  Biso   1.000  N
  N134     1.0000 0.81840  0.00720  0.41380  Biso   1.000  N
  C339     1.0000 0.83110  0.81670  0.53100  Biso   1.000  C
  H287     1.0000 0.80110  0.80500  0.55270  Biso   1.000  H
  C340     1.0000 0.87910  0.78250  0.52700  Biso   1.000  C
  H288     1.0000 0.88060  0.74930  0.54690  Biso   1.000  H
  C341     1.0000 0.91670  0.84500  0.46820  Biso   1.000  C
  H289     1.0000 0.94610  0.85640  0.44550  Biso   1.000  H
  C342     1.0000 0.87110  0.87850  0.47140  Biso   1.000  C
  C343     1.0000 0.86720  0.93070  0.44000  Biso   1.000  C
  C344     1.0000 0.91750  0.95540  0.41220  Biso   1.000  C
  H290     1.0000 0.90750  0.98930  0.39350  Biso   1.000  H
  H291     1.0000 0.94490  0.96270  0.44090  Biso   1.000  H
  H292     1.0000 0.93210  0.93000  0.38450  Biso   1.000  H
  C345     1.0000 0.77550  0.01680  0.38210  Biso   1.000  C
  C346     1.0000 0.76960  0.07310  0.35710  Biso   1.000  C
  C347     1.0000 0.73000  0.08240  0.31790  Biso   1.000  C
  H293     1.0000 0.70690  0.05410  0.30560  Biso   1.000  H
  C348     1.0000 0.72450  0.13550  0.29640  Biso   1.000  C
  H294     1.0000 0.69660  0.14370  0.27030  Biso   1.000  H
  C349     1.0000 0.76020  0.17560  0.31380  Biso   1.000  C
  H295     1.0000 0.75650  0.21080  0.29820  Biso   1.000  H
  C350     1.0000 0.80200  0.16630  0.35370  Biso   1.000  C
  H296     1.0000 0.82560  0.19440  0.36540  Biso   1.000  H
  C351     1.0000 0.80650  0.11430  0.37480  Biso   1.000  C
  H297     1.0000 0.83410  0.10600  0.40110  Biso   1.000  H
  N135     1.0000 0.04260  0.86110  0.56570  Biso   1.000  N
  O157     1.0000 0.04530  0.91150  0.56090  Biso   1.000  O
  O158     1.0000 0.00310  0.84090  0.59110  Biso   1.000  O
  O159     1.0000 0.06900  0.83240  0.53250  Biso   1.000  O
  O160     1.0000 0.05860  0.90300  0.59060  Biso   1.000  O
  O161     1.0000 0.04820  0.81650  0.59030  Biso   1.000  O
  O162     1.0000 0.03950  0.86160  0.51330  Biso   1.000  O
  N136     1.0000 0.32890  0.36360  0.00480  Biso   1.000  N
  N137     1.0000 0.42120  0.29790  0.99530  Biso   1.000  N
  N138     1.0000 0.31850  0.45490  0.94000  Biso   1.000  N
  N139     1.0000 0.31840  0.50720  0.91380  Biso   1.000  N
  C352     1.0000 0.33110  0.31670  0.03100  Biso   1.000  C
  H298     1.0000 0.30110  0.30500  0.05270  Biso   1.000  H
  C353     1.0000 0.37910  0.28250  0.02700  Biso   1.000  C
  H299     1.0000 0.38060  0.24930  0.04690  Biso   1.000  H
  C354     1.0000 0.41670  0.34500  0.96820  Biso   1.000  C
  H300     1.0000 0.44610  0.35640  0.94550  Biso   1.000  H
  C355     1.0000 0.37110  0.37850  0.97140  Biso   1.000  C
  C356     1.0000 0.36720  0.43070  0.94000  Biso   1.000  C
  C357     1.0000 0.41750  0.45540  0.91220  Biso   1.000  C
  H301     1.0000 0.40750  0.48930  0.89350  Biso   1.000  H
  H302     1.0000 0.44490  0.46270  0.94090  Biso   1.000  H
  H303     1.0000 0.43210  0.43000  0.88450  Biso   1.000  H
  C358     1.0000 0.27550  0.51680  0.88210  Biso   1.000  C
  C359     1.0000 0.26960  0.57310  0.85710  Biso   1.000  C
  C360     1.0000 0.23000  0.58240  0.81790  Biso   1.000  C
  H304     1.0000 0.20690  0.55410  0.80560  Biso   1.000  H
  C361     1.0000 0.22450  0.63550  0.79640  Biso   1.000  C
  H305     1.0000 0.19660  0.64370  0.77030  Biso   1.000  H
  C362     1.0000 0.26020  0.67560  0.81380  Biso   1.000  C
  H306     1.0000 0.25650  0.71080  0.79820  Biso   1.000  H
  C363     1.0000 0.30200  0.66630  0.85370  Biso   1.000  C
  H307     1.0000 0.32560  0.69440  0.86540  Biso   1.000  H
  C364     1.0000 0.30650  0.61430  0.87480  Biso   1.000  C
  H308     1.0000 0.33410  0.60600  0.90110  Biso   1.000  H
  N140     1.0000 0.54260  0.36110  0.06570  Biso   1.000  N
  O163     1.0000 0.54530  0.41150  0.06090  Biso   1.000  O
  O164     1.0000 0.50310  0.34090  0.09110  Biso   1.000  O
  O165     1.0000 0.56900  0.33240  0.03250  Biso   1.000  O
  O166     1.0000 0.55860  0.40300  0.09060  Biso   1.000  O
  O167     1.0000 0.54820  0.31650  0.09030  Biso   1.000  O
  O168     1.0000 0.53950  0.36160  0.01330  Biso   1.000  O
  N141     1.0000 0.88640  0.07890  0.25480  Biso   1.000  N
  N142     1.0000 0.95210  0.17120  0.24530  Biso   1.000  N
  N143     1.0000 0.79510  0.06850  0.19000  Biso   1.000  N
  N144     1.0000 0.74280  0.06840  0.16380  Biso   1.000  N
  C365     1.0000 0.93330  0.08110  0.28100  Biso   1.000  C
  H309     1.0000 0.94500  0.05110  0.30270  Biso   1.000  H
  C366     1.0000 0.96750  0.12910  0.27700  Biso   1.000  C
  H310     1.0000 0.00070  0.13060  0.29690  Biso   1.000  H
  C367     1.0000 0.90500  0.16670  0.21820  Biso   1.000  C
  H311     1.0000 0.89360  0.19610  0.19550  Biso   1.000  H
  C368     1.0000 0.87150  0.12110  0.22140  Biso   1.000  C
  C369     1.0000 0.81930  0.11720  0.19000  Biso   1.000  C
  C370     1.0000 0.79460  0.16750  0.16220  Biso   1.000  C
  H312     1.0000 0.76070  0.15750  0.14350  Biso   1.000  H
  H313     1.0000 0.78730  0.19490  0.19090  Biso   1.000  H
  H314     1.0000 0.82000  0.18210  0.13450  Biso   1.000  H
  C371     1.0000 0.73320  0.02550  0.13210  Biso   1.000  C
  C372     1.0000 0.67690  0.01960  0.10710  Biso   1.000  C
  C373     1.0000 0.66760  0.98000  0.06790  Biso   1.000  C
  H315     1.0000 0.69590  0.95690  0.05560  Biso   1.000  H
  C374     1.0000 0.61450  0.97450  0.04640  Biso   1.000  C
  H316     1.0000 0.60630  0.94660  0.02030  Biso   1.000  H
  C375     1.0000 0.57440  0.01020  0.06380  Biso   1.000  C
  H317     1.0000 0.53920  0.00650  0.04820  Biso   1.000  H
  C376     1.0000 0.58370  0.05200  0.10370  Biso   1.000  C
  H318     1.0000 0.55560  0.07560  0.11540  Biso   1.000  H
  C377     1.0000 0.63570  0.05650  0.12480  Biso   1.000  C
  H319     1.0000 0.64400  0.08410  0.15110  Biso   1.000  H
  N145     1.0000 0.88890  0.29260  0.31570  Biso   1.000  N
  O169     1.0000 0.83850  0.29530  0.31090  Biso   1.000  O
  O170     1.0000 0.90910  0.25310  0.34110  Biso   1.000  O
  O171     1.0000 0.91760  0.31900  0.28250  Biso   1.000  O
  O172     1.0000 0.84700  0.30860  0.34060  Biso   1.000  O
  O173     1.0000 0.93350  0.29820  0.34030  Biso   1.000  O
  O174     1.0000 0.88840  0.28950  0.26330  Biso   1.000  O
  N146     1.0000 0.38640  0.57890  0.75480  Biso   1.000  N
  N147     1.0000 0.45210  0.67120  0.74530  Biso   1.000  N
  N148     1.0000 0.29510  0.56850  0.69000  Biso   1.000  N
  N149     1.0000 0.24280  0.56840  0.66380  Biso   1.000  N
  C378     1.0000 0.43330  0.58110  0.78100  Biso   1.000  C
  H320     1.0000 0.44500  0.55110  0.80270  Biso   1.000  H
  C379     1.0000 0.46750  0.62910  0.77700  Biso   1.000  C
  H321     1.0000 0.50070  0.63060  0.79690  Biso   1.000  H
  C380     1.0000 0.40500  0.66670  0.71820  Biso   1.000  C
  H322     1.0000 0.39360  0.69610  0.69550  Biso   1.000  H
  C381     1.0000 0.37150  0.62110  0.72140  Biso   1.000  C
  C382     1.0000 0.31930  0.61720  0.69000  Biso   1.000  C
  C383     1.0000 0.29460  0.66750  0.66220  Biso   1.000  C
  H323     1.0000 0.26070  0.65750  0.64350  Biso   1.000  H
  H324     1.0000 0.28730  0.69490  0.69090  Biso   1.000  H
  H325     1.0000 0.32000  0.68210  0.63450  Biso   1.000  H
  C384     1.0000 0.23320  0.52550  0.63210  Biso   1.000  C
  C385     1.0000 0.17690  0.51960  0.60710  Biso   1.000  C
  C386     1.0000 0.16760  0.48000  0.56790  Biso   1.000  C
  H326     1.0000 0.19590  0.45690  0.55560  Biso   1.000  H
  C387     1.0000 0.11450  0.47450  0.54640  Biso   1.000  C
  H327     1.0000 0.10630  0.44660  0.52030  Biso   1.000  H
  C388     1.0000 0.07440  0.51020  0.56380  Biso   1.000  C
  H328     1.0000 0.03920  0.50650  0.54820  Biso   1.000  H
  C389     1.0000 0.08370  0.55200  0.60370  Biso   1.000  C
  H329     1.0000 0.05560  0.57560  0.61540  Biso   1.000  H
  C390     1.0000 0.13570  0.55650  0.62480  Biso   1.000  C
  H330     1.0000 0.14400  0.58410  0.65110  Biso   1.000  H
  N150     1.0000 0.38890  0.79260  0.81570  Biso   1.000  N
  O175     1.0000 0.33850  0.79530  0.81090  Biso   1.000  O
  O176     1.0000 0.40910  0.75310  0.84110  Biso   1.000  O
  O177     1.0000 0.41760  0.81900  0.78250  Biso   1.000  O
  O178     1.0000 0.34700  0.80860  0.84060  Biso   1.000  O
  O179     1.0000 0.43350  0.79820  0.84030  Biso   1.000  O
  O180     1.0000 0.38840  0.78950  0.76330  Biso   1.000  O
  N151     1.0000 0.61360  0.92110  0.75480  Biso   1.000  N
  N152     1.0000 0.54790  0.82880  0.74530  Biso   1.000  N
  N153     1.0000 0.70490  0.93150  0.69000  Biso   1.000  N
  N154     1.0000 0.75720  0.93160  0.66380  Biso   1.000  N
  C391     1.0000 0.56670  0.91890  0.78100  Biso   1.000  C
  H331     1.0000 0.55500  0.94890  0.80270  Biso   1.000  H
  C392     1.0000 0.53250  0.87090  0.77700  Biso   1.000  C
  H332     1.0000 0.49930  0.86940  0.79690  Biso   1.000  H
  C393     1.0000 0.59500  0.83330  0.71820  Biso   1.000  C
  H333     1.0000 0.60640  0.80390  0.69550  Biso   1.000  H
  C394     1.0000 0.62850  0.87890  0.72140  Biso   1.000  C
  C395     1.0000 0.68070  0.88280  0.69000  Biso   1.000  C
  C396     1.0000 0.70540  0.83250  0.66220  Biso   1.000  C
  H334     1.0000 0.73930  0.84250  0.64350  Biso   1.000  H
  H335     1.0000 0.71270  0.80510  0.69090  Biso   1.000  H
  H336     1.0000 0.68000  0.81790  0.63450  Biso   1.000  H
  C397     1.0000 0.76680  0.97450  0.63210  Biso   1.000  C
  C398     1.0000 0.82310  0.98040  0.60710  Biso   1.000  C
  C399     1.0000 0.83240  0.02000  0.56790  Biso   1.000  C
  H337     1.0000 0.80410  0.04310  0.55560  Biso   1.000  H
  C400     1.0000 0.88550  0.02550  0.54640  Biso   1.000  C
  H338     1.0000 0.89370  0.05340  0.52030  Biso   1.000  H
  C401     1.0000 0.92560  0.98980  0.56380  Biso   1.000  C
  H339     1.0000 0.96080  0.99350  0.54820  Biso   1.000  H
  C402     1.0000 0.91630  0.94800  0.60370  Biso   1.000  C
  H340     1.0000 0.94440  0.92440  0.61540  Biso   1.000  H
  C403     1.0000 0.86430  0.94350  0.62480  Biso   1.000  C
  H341     1.0000 0.85600  0.91590  0.65110  Biso   1.000  H
  N155     1.0000 0.61110  0.70740  0.81570  Biso   1.000  N
  O181     1.0000 0.66150  0.70470  0.81090  Biso   1.000  O
  O182     1.0000 0.59090  0.74690  0.84110  Biso   1.000  O
  O183     1.0000 0.58240  0.68100  0.78250  Biso   1.000  O
  O184     1.0000 0.65300  0.69140  0.84060  Biso   1.000  O
  O185     1.0000 0.56650  0.70180  0.84030  Biso   1.000  O
  O186     1.0000 0.61160  0.71050  0.76330  Biso   1.000  O
  N156     1.0000 0.11360  0.42110  0.25480  Biso   1.000  N
  N157     1.0000 0.04790  0.32880  0.24530  Biso   1.000  N
  N158     1.0000 0.20490  0.43150  0.19000  Biso   1.000  N
  N159     1.0000 0.25720  0.43160  0.16380  Biso   1.000  N
  C404     1.0000 0.06670  0.41890  0.28100  Biso   1.000  C
  H342     1.0000 0.05500  0.44890  0.30270  Biso   1.000  H
  C405     1.0000 0.03250  0.37090  0.27700  Biso   1.000  C
  H343     1.0000 0.99930  0.36940  0.29690  Biso   1.000  H
  C406     1.0000 0.09500  0.33330  0.21820  Biso   1.000  C
  H344     1.0000 0.10640  0.30390  0.19550  Biso   1.000  H
  C407     1.0000 0.12850  0.37890  0.22140  Biso   1.000  C
  C408     1.0000 0.18070  0.38280  0.19000  Biso   1.000  C
  C409     1.0000 0.20540  0.33250  0.16220  Biso   1.000  C
  H345     1.0000 0.23930  0.34250  0.14350  Biso   1.000  H
  H346     1.0000 0.21270  0.30510  0.19090  Biso   1.000  H
  H347     1.0000 0.18000  0.31790  0.13450  Biso   1.000  H
  C410     1.0000 0.26680  0.47450  0.13210  Biso   1.000  C
  C411     1.0000 0.32310  0.48040  0.10710  Biso   1.000  C
  C412     1.0000 0.33240  0.52000  0.06790  Biso   1.000  C
  H348     1.0000 0.30410  0.54310  0.05560  Biso   1.000  H
  C413     1.0000 0.38550  0.52550  0.04640  Biso   1.000  C
  H349     1.0000 0.39370  0.55340  0.02030  Biso   1.000  H
  C414     1.0000 0.42560  0.48980  0.06380  Biso   1.000  C
  H350     1.0000 0.46080  0.49350  0.04820  Biso   1.000  H
  C415     1.0000 0.41630  0.44800  0.10370  Biso   1.000  C
  H351     1.0000 0.44440  0.42440  0.11540  Biso   1.000  H
  C416     1.0000 0.36430  0.44350  0.12480  Biso   1.000  C
  H352     1.0000 0.35600  0.41590  0.15110  Biso   1.000  H
  N160     1.0000 0.11110  0.20740  0.31570  Biso   1.000  N
  O187     1.0000 0.16150  0.20470  0.31090  Biso   1.000  O
  O188     1.0000 0.09090  0.24690  0.34110  Biso   1.000  O
  O189     1.0000 0.08240  0.18100  0.28250  Biso   1.000  O
  O190     1.0000 0.15300  0.19140  0.34060  Biso   1.000  O
  O191     1.0000 0.06650  0.20180  0.34030  Biso   1.000  O
  O192     1.0000 0.11160  0.21050  0.26330  Biso   1.000  O
  Ag1      1.0000 0.25000  0.92089  0.00000  Biso   1.000  Ag
  Ag2      1.0000 0.75000  0.42089  0.50000  Biso   1.000  Ag
  Ag3      1.0000 0.25000  0.07911  0.50000  Biso   1.000  Ag
  Ag4      1.0000 0.75000  0.57911  0.00000  Biso   1.000  Ag
  Ag5      1.0000 0.32911  0.00000  0.25000  Biso   1.000  Ag
  Ag6      1.0000 0.82911  0.50000  0.75000  Biso   1.000  Ag
  Ag7      1.0000 0.17089  0.00000  0.75000  Biso   1.000  Ag
  Ag8      1.0000 0.67089  0.50000  0.25000  Biso   1.000  Ag
  Ag9      1.0000 0.75000  0.07911  0.00000  Biso   1.000  Ag
  Ag10     1.0000 0.25000  0.57911  0.50000  Biso   1.000  Ag
  Ag11     1.0000 0.75000  0.92089  0.50000  Biso   1.000  Ag
  Ag12     1.0000 0.25000  0.42089  0.00000  Biso   1.000  Ag
  Ag13     1.0000 0.67089  0.00000  0.75000  Biso   1.000  Ag
  Ag14     1.0000 0.17089  0.50000  0.25000  Biso   1.000  Ag
  Ag15     1.0000 0.82911  0.00000  0.25000  Biso   1.000  Ag
  Ag16     1.0000 0.32911  0.50000  0.75000  Biso   1.000  Ag
  Ag17     1.0000 0.00000  0.75000  0.99376  Biso   1.000  Ag
  Ag18     1.0000 0.50000  0.25000  0.49376  Biso   1.000  Ag
  Ag19     1.0000 0.50000  0.75000  0.24376  Biso   1.000  Ag
  Ag20     1.0000 0.00000  0.25000  0.74376  Biso   1.000  Ag
  Ag21     1.0000 0.50000  0.75000  0.00624  Biso   1.000  Ag
  Ag22     1.0000 0.00000  0.25000  0.50624  Biso   1.000  Ag
  Ag23     1.0000 0.00000  0.75000  0.75624  Biso   1.000  Ag
  Ag24     1.0000 0.50000  0.25000  0.25624  Biso   1.000  Ag
  Ag25     1.0000 0.00000  0.25000  0.00624  Biso   1.000  Ag
  Ag26     1.0000 0.50000  0.75000  0.50624  Biso   1.000  Ag
  Ag27     1.0000 0.50000  0.25000  0.75624  Biso   1.000  Ag
  Ag28     1.0000 0.00000  0.75000  0.25624  Biso   1.000  Ag
  Ag29     1.0000 0.50000  0.25000  0.99376  Biso   1.000  Ag
  Ag30     1.0000 0.00000  0.75000  0.49376  Biso   1.000  Ag
  Ag31     1.0000 0.00000  0.25000  0.24376  Biso   1.000  Ag
  Ag32     1.0000 0.50000  0.75000  0.74376  Biso   1.000  Ag
  Ag33     1.0000 0.00000  0.75000  0.12500  Biso   1.000  Ag
  Ag34     1.0000 0.50000  0.25000  0.62500  Biso   1.000  Ag
  Ag35     1.0000 0.50000  0.75000  0.37500  Biso   1.000  Ag
  Ag36     1.0000 0.00000  0.25000  0.87500  Biso   1.000  Ag
  Ag37     1.0000 0.50000  0.75000  0.87500  Biso   1.000  Ag
  Ag38     1.0000 0.00000  0.25000  0.37500  Biso   1.000  Ag
  Ag39     1.0000 0.00000  0.75000  0.62500  Biso   1.000  Ag
  Ag40     1.0000 0.50000  0.25000  0.12500  Biso   1.000  Ag
