data_image0
_cell_length_a       27.631
_cell_length_b       27.631
_cell_length_c       22.827
_cell_angle_alpha    90
_cell_angle_beta     90
_cell_angle_gamma    120

_symmetry_space_group_name_H-M    "P 1"
_symmetry_int_tables_number       1

loop_
  _symmetry_equiv_pos_as_xyz
  'x, y, z'

loop_
  _atom_site_label
  _atom_site_occupancy
  _atom_site_fract_x
  _atom_site_fract_y
  _atom_site_fract_z
  _atom_site_thermal_displace_type
  _atom_site_B_iso_or_equiv
  _atom_site_type_symbol
  Zn1      1.0000 0.88136  0.54866  0.46734  Biso   1.000  Zn
  Zn2      1.0000 0.66734  0.54872  0.46718  Biso   1.000  Zn
  N1       1.0000 0.60230  0.47970  0.49850  Biso   1.000  N
  N2       1.0000 0.66560  0.53100  0.28790  Biso   1.000  N
  N3       1.0000 0.51910  0.40240  0.49800  Biso   1.000  N
  N4       1.0000 0.66530  0.53070  0.37960  Biso   1.000  N
  C1       1.0000 0.55420  0.44440  0.46780  Biso   1.000  C
  C2       1.0000 0.66480  0.48230  0.30030  Biso   1.000  C
  H1       1.0000 0.66280  0.45470  0.27420  Biso   1.000  H
  C3       1.0000 0.66720  0.55850  0.33390  Biso   1.000  C
  C4       1.0000 0.52350  0.42610  0.55060  Biso   1.000  C
  C5       1.0000 0.57330  0.47680  0.55360  Biso   1.000  C
  C6       1.0000 0.59060  0.50510  0.60670  Biso   1.000  C
  H2       1.0000 0.62460  0.53970  0.60880  Biso   1.000  H
  C7       1.0000 0.55820  0.48270  0.65660  Biso   1.000  C
  C8       1.0000 0.50840  0.43200  0.65360  Biso   1.000  C
  C9       1.0000 0.49110  0.40370  0.60050  Biso   1.000  C
  H3       1.0000 0.45700  0.36910  0.59840  Biso   1.000  H
  N5       1.0000 0.81930  0.55520  0.49880  Biso   1.000  N
  C10      1.0000 0.78400  0.51500  0.54000  Biso   1.000  C
  C11      1.0000 0.72790  0.50820  0.54400  Biso   1.000  C
  N6       1.0000 0.73660  0.55620  0.49920  Biso   1.000  N
  C12      1.0000 0.66750  0.48350  0.35880  Biso   1.000  C
  H4       1.0000 0.67040  0.45690  0.38270  Biso   1.000  H
  C13      1.0000 0.66380  0.61530  0.33710  Biso   1.000  C
  H5       1.0000 0.69640  0.64400  0.35830  Biso   1.000  H
  H6       1.0000 0.62960  0.60780  0.35760  Biso   1.000  H
  H7       1.0000 0.66340  0.62840  0.29730  Biso   1.000  H
  Br1      1.0000 0.60130  0.51760  0.73240  Biso   1.000  Br
  C14      1.0000 0.78270  0.55370  0.47140  Biso   1.000  C
  N7       1.0000 0.04610  0.65970  0.50810  Biso   1.000  N
  N8       1.0000 0.95490  0.61370  0.49020  Biso   1.000  N
  C15      1.0000 0.00040  0.61190  0.49870  Biso   1.000  C
  Br2      1.0000 0.08530  0.86710  0.43350  Biso   1.000  Br
  C16      1.0000 0.03430  0.78240  0.46500  Biso   1.000  C
  C17      1.0000 0.97640  0.75530  0.46100  Biso   1.000  C
  C18      1.0000 0.94470  0.69810  0.47050  Biso   1.000  C
  C19      1.0000 0.97090  0.66800  0.48500  Biso   1.000  C
  C20      1.0000 0.02880  0.69510  0.49000  Biso   1.000  C
  C21      1.0000 0.06050  0.75230  0.48030  Biso   1.000  C
  C22      1.0000 0.82020  0.58600  0.55200  Biso   1.000  C
  C23      1.0000 0.84210  0.58600  0.60690  Biso   1.000  C
  C24      1.0000 0.82010  0.59700  0.65660  Biso   1.000  C
  C25      1.0000 0.77620  0.60800  0.65150  Biso   1.000  C
  C26      1.0000 0.75420  0.60800  0.59670  Biso   1.000  C
  C27      1.0000 0.77600  0.59700  0.54690  Biso   1.000  C
  C28      1.0000 0.53300  0.46400  0.42400  Biso   1.000  C
  H8       1.0000 0.49320  0.44870  0.42990  Biso   1.000  H
  H9       1.0000 0.54010  0.45270  0.38580  Biso   1.000  H
  H10      1.0000 0.55240  0.50510  0.42610  Biso   1.000  H
  C29      1.0000 0.60600  0.44170  0.54100  Biso   1.000  C
  H11      1.0000 0.63800  0.45010  0.56340  Biso   1.000  H
  C30      1.0000 0.56320  0.40000  0.54300  Biso   1.000  C
  H12      1.0000 0.55570  0.36860  0.56700  Biso   1.000  H
  C31      1.0000 0.75560  0.69890  0.47490  Biso   1.000  C
  C32      1.0000 0.69820  0.66850  0.48380  Biso   1.000  C
  C33      1.0000 0.66770  0.69600  0.48770  Biso   1.000  C
  C34      1.0000 0.69470  0.75380  0.48270  Biso   1.000  C
  C35      1.0000 0.75210  0.78420  0.47380  Biso   1.000  C
  C36      1.0000 0.78260  0.75680  0.46990  Biso   1.000  C
  Br3      1.0000 0.79220  0.86010  0.46530  Biso   1.000  Br
  Br4      1.0000 0.85730  0.80020  0.46280  Biso   1.000  Br
  Br5      1.0000 0.85780  0.79620  0.51050  Biso   1.000  Br
  Br6      1.0000 0.80030  0.86050  0.50800  Biso   1.000  Br
  Br7      1.0000 0.47410  0.39970  0.72720  Biso   1.000  Br
  Br8      1.0000 0.51240  0.39070  0.76350  Biso   1.000  Br
  Br9      1.0000 0.87890  0.65310  0.63060  Biso   1.000  Br
  Br10     1.0000 0.89600  0.67980  0.70320  Biso   1.000  Br
  Zn3      1.0000 0.54803  0.88199  0.80067  Biso   1.000  Zn
  Zn4      1.0000 0.33401  0.88205  0.80051  Biso   1.000  Zn
  N9       1.0000 0.26897  0.81303  0.83183  Biso   1.000  N
  N10      1.0000 0.33227  0.86433  0.62123  Biso   1.000  N
  N11      1.0000 0.18577  0.73573  0.83133  Biso   1.000  N
  N12      1.0000 0.33197  0.86403  0.71293  Biso   1.000  N
  C37      1.0000 0.22087  0.77773  0.80113  Biso   1.000  C
  C38      1.0000 0.33147  0.81563  0.63363  Biso   1.000  C
  H13      1.0000 0.32947  0.78803  0.60753  Biso   1.000  H
  C39      1.0000 0.33387  0.89183  0.66723  Biso   1.000  C
  C40      1.0000 0.19017  0.75943  0.88393  Biso   1.000  C
  C41      1.0000 0.23997  0.81013  0.88693  Biso   1.000  C
  C42      1.0000 0.25727  0.83843  0.94003  Biso   1.000  C
  H14      1.0000 0.29127  0.87303  0.94213  Biso   1.000  H
  C43      1.0000 0.22487  0.81603  0.98993  Biso   1.000  C
  C44      1.0000 0.17507  0.76533  0.98693  Biso   1.000  C
  C45      1.0000 0.15777  0.73703  0.93383  Biso   1.000  C
  H15      1.0000 0.12367  0.70243  0.93173  Biso   1.000  H
  N13      1.0000 0.48597  0.88853  0.83213  Biso   1.000  N
  C46      1.0000 0.45067  0.84833  0.87333  Biso   1.000  C
  C47      1.0000 0.39457  0.84153  0.87733  Biso   1.000  C
  N14      1.0000 0.40327  0.88953  0.83253  Biso   1.000  N
  C48      1.0000 0.33417  0.81683  0.69213  Biso   1.000  C
  H16      1.0000 0.33707  0.79023  0.71603  Biso   1.000  H
  C49      1.0000 0.33047  0.94863  0.67043  Biso   1.000  C
  H17      1.0000 0.36307  0.97733  0.69163  Biso   1.000  H
  H18      1.0000 0.29627  0.94113  0.69093  Biso   1.000  H
  H19      1.0000 0.33007  0.96173  0.63063  Biso   1.000  H
  Br11     1.0000 0.26797  0.85093  0.06573  Biso   1.000  Br
  C50      1.0000 0.44937  0.88703  0.80473  Biso   1.000  C
  N15      1.0000 0.71277  0.99303  0.84143  Biso   1.000  N
  N16      1.0000 0.62157  0.94703  0.82353  Biso   1.000  N
  C51      1.0000 0.66707  0.94523  0.83203  Biso   1.000  C
  Br12     1.0000 0.75197  0.20043  0.76683  Biso   1.000  Br
  C52      1.0000 0.70097  0.11573  0.79833  Biso   1.000  C
  C53      1.0000 0.64307  0.08863  0.79433  Biso   1.000  C
  C54      1.0000 0.61137  0.03143  0.80383  Biso   1.000  C
  C55      1.0000 0.63757  0.00133  0.81833  Biso   1.000  C
  C56      1.0000 0.69547  0.02843  0.82333  Biso   1.000  C
  C57      1.0000 0.72717  0.08563  0.81363  Biso   1.000  C
  C58      1.0000 0.48687  0.91933  0.88533  Biso   1.000  C
  C59      1.0000 0.50877  0.91933  0.94023  Biso   1.000  C
  C60      1.0000 0.48677  0.93033  0.98993  Biso   1.000  C
  C61      1.0000 0.44287  0.94133  0.98483  Biso   1.000  C
  C62      1.0000 0.42087  0.94133  0.93003  Biso   1.000  C
  C63      1.0000 0.44267  0.93033  0.88023  Biso   1.000  C
  C64      1.0000 0.19967  0.79733  0.75733  Biso   1.000  C
  H20      1.0000 0.15987  0.78203  0.76323  Biso   1.000  H
  H21      1.0000 0.20677  0.78603  0.71913  Biso   1.000  H
  H22      1.0000 0.21907  0.83843  0.75943  Biso   1.000  H
  C65      1.0000 0.27267  0.77503  0.87433  Biso   1.000  C
  H23      1.0000 0.30467  0.78343  0.89673  Biso   1.000  H
  C66      1.0000 0.22987  0.73333  0.87633  Biso   1.000  C
  H24      1.0000 0.22237  0.70193  0.90033  Biso   1.000  H
  C67      1.0000 0.42227  0.03223  0.80823  Biso   1.000  C
  C68      1.0000 0.36487  0.00183  0.81713  Biso   1.000  C
  C69      1.0000 0.33437  0.02933  0.82103  Biso   1.000  C
  C70      1.0000 0.36137  0.08713  0.81603  Biso   1.000  C
  C71      1.0000 0.41877  0.11753  0.80713  Biso   1.000  C
  C72      1.0000 0.44927  0.09013  0.80323  Biso   1.000  C
  Br13     1.0000 0.45887  0.19343  0.79863  Biso   1.000  Br
  Br14     1.0000 0.52397  0.13353  0.79613  Biso   1.000  Br
  Br15     1.0000 0.52447  0.12953  0.84383  Biso   1.000  Br
  Br16     1.0000 0.46697  0.19383  0.84133  Biso   1.000  Br
  Br17     1.0000 0.14077  0.73303  0.06053  Biso   1.000  Br
  Br18     1.0000 0.17907  0.72403  0.09683  Biso   1.000  Br
  Br19     1.0000 0.54557  0.98643  0.96393  Biso   1.000  Br
  Br20     1.0000 0.56267  0.01313  0.03653  Biso   1.000  Br
  Zn5      1.0000 0.21469  0.21533  0.13401  Biso   1.000  Zn
  Zn6      1.0000 0.00067  0.21539  0.13385  Biso   1.000  Zn
  N17      1.0000 0.93563  0.14637  0.16517  Biso   1.000  N
  N18      1.0000 0.99893  0.19767  0.95457  Biso   1.000  N
  N19      1.0000 0.85243  0.06907  0.16467  Biso   1.000  N
  N20      1.0000 0.99863  0.19737  0.04627  Biso   1.000  N
  C73      1.0000 0.88753  0.11107  0.13447  Biso   1.000  C
  C74      1.0000 0.99813  0.14897  0.96697  Biso   1.000  C
  H25      1.0000 0.99613  0.12137  0.94087  Biso   1.000  H
  C75      1.0000 0.00053  0.22517  0.00057  Biso   1.000  C
  C76      1.0000 0.85683  0.09277  0.21727  Biso   1.000  C
  C77      1.0000 0.90663  0.14347  0.22027  Biso   1.000  C
  C78      1.0000 0.92393  0.17177  0.27337  Biso   1.000  C
  H26      1.0000 0.95793  0.20637  0.27547  Biso   1.000  H
  C79      1.0000 0.89153  0.14937  0.32327  Biso   1.000  C
  C80      1.0000 0.84173  0.09867  0.32027  Biso   1.000  C
  C81      1.0000 0.82443  0.07037  0.26717  Biso   1.000  C
  H27      1.0000 0.79033  0.03577  0.26507  Biso   1.000  H
  N21      1.0000 0.15263  0.22187  0.16547  Biso   1.000  N
  C82      1.0000 0.11733  0.18167  0.20667  Biso   1.000  C
  C83      1.0000 0.06123  0.17487  0.21067  Biso   1.000  C
  N22      1.0000 0.06993  0.22287  0.16587  Biso   1.000  N
  C84      1.0000 0.00083  0.15017  0.02547  Biso   1.000  C
  H28      1.0000 0.00373  0.12357  0.04937  Biso   1.000  H
  C85      1.0000 0.99713  0.28197  0.00377  Biso   1.000  C
  H29      1.0000 0.02973  0.31067  0.02497  Biso   1.000  H
  H30      1.0000 0.96293  0.27447  0.02427  Biso   1.000  H
  H31      1.0000 0.99673  0.29507  0.96397  Biso   1.000  H
  Br21     1.0000 0.93463  0.18427  0.39907  Biso   1.000  Br
  C86      1.0000 0.11603  0.22037  0.13807  Biso   1.000  C
  N23      1.0000 0.37943  0.32637  0.17477  Biso   1.000  N
  N24      1.0000 0.28823  0.28037  0.15687  Biso   1.000  N
  C87      1.0000 0.33373  0.27857  0.16537  Biso   1.000  C
  Br22     1.0000 0.41863  0.53377  0.10017  Biso   1.000  Br
  C88      1.0000 0.36763  0.44907  0.13167  Biso   1.000  C
  C89      1.0000 0.30973  0.42197  0.12767  Biso   1.000  C
  C90      1.0000 0.27803  0.36477  0.13717  Biso   1.000  C
  C91      1.0000 0.30423  0.33467  0.15167  Biso   1.000  C
  C92      1.0000 0.36213  0.36177  0.15667  Biso   1.000  C
  C93      1.0000 0.39383  0.41897  0.14697  Biso   1.000  C
  C94      1.0000 0.15353  0.25267  0.21867  Biso   1.000  C
  C95      1.0000 0.17543  0.25267  0.27357  Biso   1.000  C
  C96      1.0000 0.15343  0.26367  0.32327  Biso   1.000  C
  C97      1.0000 0.10953  0.27467  0.31817  Biso   1.000  C
  C98      1.0000 0.08753  0.27467  0.26337  Biso   1.000  C
  C99      1.0000 0.10933  0.26367  0.21357  Biso   1.000  C
  C100     1.0000 0.86633  0.13067  0.09067  Biso   1.000  C
  H32      1.0000 0.82653  0.11537  0.09657  Biso   1.000  H
  H33      1.0000 0.87343  0.11937  0.05247  Biso   1.000  H
  H34      1.0000 0.88573  0.17177  0.09277  Biso   1.000  H
  C101     1.0000 0.93933  0.10837  0.20767  Biso   1.000  C
  H35      1.0000 0.97133  0.11677  0.23007  Biso   1.000  H
  C102     1.0000 0.89653  0.06667  0.20967  Biso   1.000  C
  H36      1.0000 0.88903  0.03527  0.23367  Biso   1.000  H
  C103     1.0000 0.08893  0.36557  0.14157  Biso   1.000  C
  C104     1.0000 0.03153  0.33517  0.15047  Biso   1.000  C
  C105     1.0000 0.00103  0.36267  0.15437  Biso   1.000  C
  C106     1.0000 0.02803  0.42047  0.14937  Biso   1.000  C
  C107     1.0000 0.08543  0.45087  0.14047  Biso   1.000  C
  C108     1.0000 0.11593  0.42347  0.13657  Biso   1.000  C
  Br23     1.0000 0.12553  0.52677  0.13197  Biso   1.000  Br
  Br24     1.0000 0.19063  0.46687  0.12947  Biso   1.000  Br
  Br25     1.0000 0.19113  0.46287  0.17717  Biso   1.000  Br
  Br26     1.0000 0.13363  0.52717  0.17467  Biso   1.000  Br
  Br27     1.0000 0.80743  0.06637  0.39387  Biso   1.000  Br
  Br28     1.0000 0.84573  0.05737  0.43017  Biso   1.000  Br
  Br29     1.0000 0.21223  0.31977  0.29727  Biso   1.000  Br
  Br30     1.0000 0.22933  0.34647  0.36987  Biso   1.000  Br
  Zn7      1.0000 0.45134  0.33270  0.46734  Biso   1.000  Zn
  Zn8      1.0000 0.45128  0.11862  0.46718  Biso   1.000  Zn
  N25      1.0000 0.52030  0.12260  0.49850  Biso   1.000  N
  N26      1.0000 0.46900  0.13460  0.28790  Biso   1.000  N
  N27      1.0000 0.59760  0.11670  0.49800  Biso   1.000  N
  N28      1.0000 0.46930  0.13460  0.37960  Biso   1.000  N
  C109     1.0000 0.55560  0.10980  0.46780  Biso   1.000  C
  C110     1.0000 0.51770  0.18250  0.30030  Biso   1.000  C
  H37      1.0000 0.54530  0.20810  0.27420  Biso   1.000  H
  C111     1.0000 0.44150  0.10870  0.33390  Biso   1.000  C
  C112     1.0000 0.57390  0.09740  0.55060  Biso   1.000  C
  C113     1.0000 0.52320  0.09650  0.55360  Biso   1.000  C
  C114     1.0000 0.49490  0.08550  0.60670  Biso   1.000  C
  H38      1.0000 0.46030  0.08490  0.60880  Biso   1.000  H
  C115     1.0000 0.51730  0.07550  0.65660  Biso   1.000  C
  C116     1.0000 0.56800  0.07640  0.65360  Biso   1.000  C
  C117     1.0000 0.59630  0.08740  0.60050  Biso   1.000  C
  H39      1.0000 0.63090  0.08790  0.59840  Biso   1.000  H
  N29      1.0000 0.44480  0.26410  0.49880  Biso   1.000  N
  C118     1.0000 0.48500  0.26900  0.54000  Biso   1.000  C
  C119     1.0000 0.49180  0.21970  0.54400  Biso   1.000  C
  N30      1.0000 0.44380  0.18040  0.49920  Biso   1.000  N
  C120     1.0000 0.51650  0.18400  0.35880  Biso   1.000  C
  H40      1.0000 0.54310  0.21350  0.38270  Biso   1.000  H
  C121     1.0000 0.38470  0.04850  0.33710  Biso   1.000  C
  H41      1.0000 0.35600  0.05240  0.35830  Biso   1.000  H
  H42      1.0000 0.39220  0.02180  0.35760  Biso   1.000  H
  H43      1.0000 0.37160  0.03500  0.29730  Biso   1.000  H
  Br31     1.0000 0.48240  0.08370  0.73240  Biso   1.000  Br
  C122     1.0000 0.44630  0.22900  0.47140  Biso   1.000  C
  N31      1.0000 0.34030  0.38640  0.50810  Biso   1.000  N
  N32      1.0000 0.38630  0.34120  0.49020  Biso   1.000  N
  C123     1.0000 0.38810  0.38850  0.49870  Biso   1.000  C
  Br32     1.0000 0.13290  0.21820  0.43350  Biso   1.000  Br
  C124     1.0000 0.21760  0.25190  0.46500  Biso   1.000  C
  C125     1.0000 0.24470  0.22110  0.46100  Biso   1.000  C
  C126     1.0000 0.30190  0.24660  0.47050  Biso   1.000  C
  C127     1.0000 0.33200  0.30290  0.48500  Biso   1.000  C
  C128     1.0000 0.30490  0.33370  0.49000  Biso   1.000  C
  C129     1.0000 0.24770  0.30820  0.48030  Biso   1.000  C
  C130     1.0000 0.41400  0.23420  0.55200  Biso   1.000  C
  C131     1.0000 0.41400  0.25610  0.60690  Biso   1.000  C
  C132     1.0000 0.40300  0.22310  0.65660  Biso   1.000  C
  C133     1.0000 0.39200  0.16820  0.65150  Biso   1.000  C
  C134     1.0000 0.39200  0.14620  0.59670  Biso   1.000  C
  C135     1.0000 0.40300  0.17900  0.54690  Biso   1.000  C
  C136     1.0000 0.53600  0.06900  0.42400  Biso   1.000  C
  H44      1.0000 0.55130  0.04450  0.42990  Biso   1.000  H
  H45      1.0000 0.54730  0.08740  0.38580  Biso   1.000  H
  H46      1.0000 0.49490  0.04730  0.42610  Biso   1.000  H
  C137     1.0000 0.55830  0.16430  0.54100  Biso   1.000  C
  H47      1.0000 0.54990  0.18790  0.56340  Biso   1.000  H
  C138     1.0000 0.60000  0.16320  0.54300  Biso   1.000  C
  H48      1.0000 0.63140  0.18710  0.56700  Biso   1.000  H
  C139     1.0000 0.30110  0.05670  0.47490  Biso   1.000  C
  C140     1.0000 0.33150  0.02970  0.48380  Biso   1.000  C
  C141     1.0000 0.30400  0.97170  0.48770  Biso   1.000  C
  C142     1.0000 0.24620  0.94090  0.48270  Biso   1.000  C
  C143     1.0000 0.21580  0.96790  0.47380  Biso   1.000  C
  C144     1.0000 0.24320  0.02580  0.46990  Biso   1.000  C
  Br33     1.0000 0.13990  0.93210  0.46530  Biso   1.000  Br
  Br34     1.0000 0.19980  0.05710  0.46280  Biso   1.000  Br
  Br35     1.0000 0.20380  0.06160  0.51050  Biso   1.000  Br
  Br36     1.0000 0.13950  0.93980  0.50800  Biso   1.000  Br
  Br37     1.0000 0.60030  0.07440  0.72720  Biso   1.000  Br
  Br38     1.0000 0.60930  0.12170  0.76350  Biso   1.000  Br
  Br39     1.0000 0.34690  0.22580  0.63060  Biso   1.000  Br
  Br40     1.0000 0.32020  0.21620  0.70320  Biso   1.000  Br
  Zn9      1.0000 0.11801  0.66603  0.80067  Biso   1.000  Zn
  Zn10     1.0000 0.11795  0.45195  0.80051  Biso   1.000  Zn
  N33      1.0000 0.18697  0.45593  0.83183  Biso   1.000  N
  N34      1.0000 0.13567  0.46793  0.62123  Biso   1.000  N
  N35      1.0000 0.26427  0.45003  0.83133  Biso   1.000  N
  N36      1.0000 0.13597  0.46793  0.71293  Biso   1.000  N
  C145     1.0000 0.22227  0.44313  0.80113  Biso   1.000  C
  C146     1.0000 0.18437  0.51583  0.63363  Biso   1.000  C
  H49      1.0000 0.21197  0.54143  0.60753  Biso   1.000  H
  C147     1.0000 0.10817  0.44203  0.66723  Biso   1.000  C
  C148     1.0000 0.24057  0.43073  0.88393  Biso   1.000  C
  C149     1.0000 0.18987  0.42983  0.88693  Biso   1.000  C
  C150     1.0000 0.16157  0.41883  0.94003  Biso   1.000  C
  H50      1.0000 0.12697  0.41823  0.94213  Biso   1.000  H
  C151     1.0000 0.18397  0.40883  0.98993  Biso   1.000  C
  C152     1.0000 0.23467  0.40973  0.98693  Biso   1.000  C
  C153     1.0000 0.26297  0.42073  0.93383  Biso   1.000  C
  H51      1.0000 0.29757  0.42123  0.93173  Biso   1.000  H
  N37      1.0000 0.11147  0.59743  0.83213  Biso   1.000  N
  C154     1.0000 0.15167  0.60233  0.87333  Biso   1.000  C
  C155     1.0000 0.15847  0.55303  0.87733  Biso   1.000  C
  N38      1.0000 0.11047  0.51373  0.83253  Biso   1.000  N
  C156     1.0000 0.18317  0.51733  0.69213  Biso   1.000  C
  H52      1.0000 0.20977  0.54683  0.71603  Biso   1.000  H
  C157     1.0000 0.05137  0.38183  0.67043  Biso   1.000  C
  H53      1.0000 0.02267  0.38573  0.69163  Biso   1.000  H
  H54      1.0000 0.05887  0.35513  0.69093  Biso   1.000  H
  H55      1.0000 0.03827  0.36833  0.63063  Biso   1.000  H
  Br41     1.0000 0.14907  0.41703  0.06573  Biso   1.000  Br
  C158     1.0000 0.11297  0.56233  0.80473  Biso   1.000  C
  N39      1.0000 0.00697  0.71973  0.84143  Biso   1.000  N
  N40      1.0000 0.05297  0.67453  0.82353  Biso   1.000  N
  C159     1.0000 0.05477  0.72183  0.83203  Biso   1.000  C
  Br42     1.0000 0.79957  0.55153  0.76683  Biso   1.000  Br
  C160     1.0000 0.88427  0.58523  0.79833  Biso   1.000  C
  C161     1.0000 0.91137  0.55443  0.79433  Biso   1.000  C
  C162     1.0000 0.96857  0.57993  0.80383  Biso   1.000  C
  C163     1.0000 0.99867  0.63623  0.81833  Biso   1.000  C
  C164     1.0000 0.97157  0.66703  0.82333  Biso   1.000  C
  C165     1.0000 0.91437  0.64153  0.81363  Biso   1.000  C
  C166     1.0000 0.08067  0.56753  0.88533  Biso   1.000  C
  C167     1.0000 0.08067  0.58943  0.94023  Biso   1.000  C
  C168     1.0000 0.06967  0.55643  0.98993  Biso   1.000  C
  C169     1.0000 0.05867  0.50153  0.98483  Biso   1.000  C
  C170     1.0000 0.05867  0.47953  0.93003  Biso   1.000  C
  C171     1.0000 0.06967  0.51233  0.88023  Biso   1.000  C
  C172     1.0000 0.20267  0.40233  0.75733  Biso   1.000  C
  H56      1.0000 0.21797  0.37783  0.76323  Biso   1.000  H
  H57      1.0000 0.21397  0.42073  0.71913  Biso   1.000  H
  H58      1.0000 0.16157  0.38063  0.75943  Biso   1.000  H
  C173     1.0000 0.22497  0.49763  0.87433  Biso   1.000  C
  H59      1.0000 0.21657  0.52123  0.89673  Biso   1.000  H
  C174     1.0000 0.26667  0.49653  0.87633  Biso   1.000  C
  H60      1.0000 0.29807  0.52043  0.90033  Biso   1.000  H
  C175     1.0000 0.96777  0.39003  0.80823  Biso   1.000  C
  C176     1.0000 0.99817  0.36303  0.81713  Biso   1.000  C
  C177     1.0000 0.97067  0.30503  0.82103  Biso   1.000  C
  C178     1.0000 0.91287  0.27423  0.81603  Biso   1.000  C
  C179     1.0000 0.88247  0.30123  0.80713  Biso   1.000  C
  C180     1.0000 0.90987  0.35913  0.80323  Biso   1.000  C
  Br43     1.0000 0.80657  0.26543  0.79863  Biso   1.000  Br
  Br44     1.0000 0.86647  0.39043  0.79613  Biso   1.000  Br
  Br45     1.0000 0.87047  0.39493  0.84383  Biso   1.000  Br
  Br46     1.0000 0.80617  0.27313  0.84133  Biso   1.000  Br
  Br47     1.0000 0.26697  0.40773  0.06053  Biso   1.000  Br
  Br48     1.0000 0.27597  0.45503  0.09683  Biso   1.000  Br
  Br49     1.0000 0.01357  0.55913  0.96393  Biso   1.000  Br
  Br50     1.0000 0.98687  0.54953  0.03653  Biso   1.000  Br
  Zn11     1.0000 0.78467  0.99937  0.13401  Biso   1.000  Zn
  Zn12     1.0000 0.78461  0.78529  0.13385  Biso   1.000  Zn
  N41      1.0000 0.85363  0.78927  0.16517  Biso   1.000  N
  N42      1.0000 0.80233  0.80127  0.95457  Biso   1.000  N
  N43      1.0000 0.93093  0.78337  0.16467  Biso   1.000  N
  N44      1.0000 0.80263  0.80127  0.04627  Biso   1.000  N
  C181     1.0000 0.88893  0.77647  0.13447  Biso   1.000  C
  C182     1.0000 0.85103  0.84917  0.96697  Biso   1.000  C
  H61      1.0000 0.87863  0.87477  0.94087  Biso   1.000  H
  C183     1.0000 0.77483  0.77537  0.00057  Biso   1.000  C
  C184     1.0000 0.90723  0.76407  0.21727  Biso   1.000  C
  C185     1.0000 0.85653  0.76317  0.22027  Biso   1.000  C
  C186     1.0000 0.82823  0.75217  0.27337  Biso   1.000  C
  H62      1.0000 0.79363  0.75157  0.27547  Biso   1.000  H
  C187     1.0000 0.85063  0.74217  0.32327  Biso   1.000  C
  C188     1.0000 0.90133  0.74307  0.32027  Biso   1.000  C
  C189     1.0000 0.92963  0.75407  0.26717  Biso   1.000  C
  H63      1.0000 0.96423  0.75457  0.26507  Biso   1.000  H
  N45      1.0000 0.77813  0.93077  0.16547  Biso   1.000  N
  C190     1.0000 0.81833  0.93567  0.20667  Biso   1.000  C
  C191     1.0000 0.82513  0.88637  0.21067  Biso   1.000  C
  N46      1.0000 0.77713  0.84707  0.16587  Biso   1.000  N
  C192     1.0000 0.84983  0.85067  0.02547  Biso   1.000  C
  H64      1.0000 0.87643  0.88017  0.04937  Biso   1.000  H
  C193     1.0000 0.71803  0.71517  0.00377  Biso   1.000  C
  H65      1.0000 0.68933  0.71907  0.02497  Biso   1.000  H
  H66      1.0000 0.72553  0.68847  0.02427  Biso   1.000  H
  H67      1.0000 0.70493  0.70167  0.96397  Biso   1.000  H
  Br51     1.0000 0.81573  0.75037  0.39907  Biso   1.000  Br
  C194     1.0000 0.77963  0.89567  0.13807  Biso   1.000  C
  N47      1.0000 0.67363  0.05307  0.17477  Biso   1.000  N
  N48      1.0000 0.71963  0.00787  0.15687  Biso   1.000  N
  C195     1.0000 0.72143  0.05517  0.16537  Biso   1.000  C
  Br52     1.0000 0.46623  0.88487  0.10017  Biso   1.000  Br
  C196     1.0000 0.55093  0.91857  0.13167  Biso   1.000  C
  C197     1.0000 0.57803  0.88777  0.12767  Biso   1.000  C
  C198     1.0000 0.63523  0.91327  0.13717  Biso   1.000  C
  C199     1.0000 0.66533  0.96957  0.15167  Biso   1.000  C
  C200     1.0000 0.63823  0.00037  0.15667  Biso   1.000  C
  C201     1.0000 0.58103  0.97487  0.14697  Biso   1.000  C
  C202     1.0000 0.74733  0.90087  0.21867  Biso   1.000  C
  C203     1.0000 0.74733  0.92277  0.27357  Biso   1.000  C
  C204     1.0000 0.73633  0.88977  0.32327  Biso   1.000  C
  C205     1.0000 0.72533  0.83487  0.31817  Biso   1.000  C
  C206     1.0000 0.72533  0.81287  0.26337  Biso   1.000  C
  C207     1.0000 0.73633  0.84567  0.21357  Biso   1.000  C
  C208     1.0000 0.86933  0.73567  0.09067  Biso   1.000  C
  H68      1.0000 0.88463  0.71117  0.09657  Biso   1.000  H
  H69      1.0000 0.88063  0.75407  0.05247  Biso   1.000  H
  H70      1.0000 0.82823  0.71397  0.09277  Biso   1.000  H
  C209     1.0000 0.89163  0.83097  0.20767  Biso   1.000  C
  H71      1.0000 0.88323  0.85457  0.23007  Biso   1.000  H
  C210     1.0000 0.93333  0.82987  0.20967  Biso   1.000  C
  H72      1.0000 0.96473  0.85377  0.23367  Biso   1.000  H
  C211     1.0000 0.63443  0.72337  0.14157  Biso   1.000  C
  C212     1.0000 0.66483  0.69637  0.15047  Biso   1.000  C
  C213     1.0000 0.63733  0.63837  0.15437  Biso   1.000  C
  C214     1.0000 0.57953  0.60757  0.14937  Biso   1.000  C
  C215     1.0000 0.54913  0.63457  0.14047  Biso   1.000  C
  C216     1.0000 0.57653  0.69247  0.13657  Biso   1.000  C
  Br53     1.0000 0.47323  0.59877  0.13197  Biso   1.000  Br
  Br54     1.0000 0.53313  0.72377  0.12947  Biso   1.000  Br
  Br55     1.0000 0.53713  0.72827  0.17717  Biso   1.000  Br
  Br56     1.0000 0.47283  0.60647  0.17467  Biso   1.000  Br
  Br57     1.0000 0.93363  0.74107  0.39387  Biso   1.000  Br
  Br58     1.0000 0.94263  0.78837  0.43017  Biso   1.000  Br
  Br59     1.0000 0.68023  0.89247  0.29727  Biso   1.000  Br
  Br60     1.0000 0.65353  0.88287  0.36987  Biso   1.000  Br
  Zn13     1.0000 0.66730  0.11864  0.46734  Biso   1.000  Zn
  Zn14     1.0000 0.88138  0.33266  0.46718  Biso   1.000  Zn
  N49      1.0000 0.87740  0.39770  0.49850  Biso   1.000  N
  N50      1.0000 0.86540  0.33440  0.28790  Biso   1.000  N
  N51      1.0000 0.88330  0.48090  0.49800  Biso   1.000  N
  N52      1.0000 0.86540  0.33470  0.37960  Biso   1.000  N
  C217     1.0000 0.89020  0.44580  0.46780  Biso   1.000  C
  C218     1.0000 0.81750  0.33520  0.30030  Biso   1.000  C
  H73      1.0000 0.79190  0.33720  0.27420  Biso   1.000  H
  C219     1.0000 0.89130  0.33280  0.33390  Biso   1.000  C
  C220     1.0000 0.90260  0.47650  0.55060  Biso   1.000  C
  C221     1.0000 0.90350  0.42670  0.55360  Biso   1.000  C
  C222     1.0000 0.91450  0.40940  0.60670  Biso   1.000  C
  H74      1.0000 0.91510  0.37540  0.60880  Biso   1.000  H
  C223     1.0000 0.92450  0.44180  0.65660  Biso   1.000  C
  C224     1.0000 0.92360  0.49160  0.65360  Biso   1.000  C
  C225     1.0000 0.91260  0.50890  0.60050  Biso   1.000  C
  H75      1.0000 0.91210  0.54300  0.59840  Biso   1.000  H
  N53      1.0000 0.73590  0.18070  0.49880  Biso   1.000  N
  C226     1.0000 0.73100  0.21600  0.54000  Biso   1.000  C
  C227     1.0000 0.78030  0.27210  0.54400  Biso   1.000  C
  N54      1.0000 0.81960  0.26340  0.49920  Biso   1.000  N
  C228     1.0000 0.81600  0.33250  0.35880  Biso   1.000  C
  H76      1.0000 0.78650  0.32960  0.38270  Biso   1.000  H
  C229     1.0000 0.95150  0.33620  0.33710  Biso   1.000  C
  H77      1.0000 0.94760  0.30360  0.35830  Biso   1.000  H
  H78      1.0000 0.97820  0.37040  0.35760  Biso   1.000  H
  H79      1.0000 0.96500  0.33660  0.29730  Biso   1.000  H
  Br61     1.0000 0.91630  0.39870  0.73240  Biso   1.000  Br
  C230     1.0000 0.77100  0.21730  0.47140  Biso   1.000  C
  N55      1.0000 0.61360  0.95390  0.50810  Biso   1.000  N
  N56      1.0000 0.65880  0.04510  0.49020  Biso   1.000  N
  C231     1.0000 0.61150  0.99960  0.49870  Biso   1.000  C
  Br62     1.0000 0.78180  0.91470  0.43350  Biso   1.000  Br
  C232     1.0000 0.74810  0.96570  0.46500  Biso   1.000  C
  C233     1.0000 0.77890  0.02360  0.46100  Biso   1.000  C
  C234     1.0000 0.75340  0.05530  0.47050  Biso   1.000  C
  C235     1.0000 0.69710  0.02910  0.48500  Biso   1.000  C
  C236     1.0000 0.66630  0.97120  0.49000  Biso   1.000  C
  C237     1.0000 0.69180  0.93950  0.48030  Biso   1.000  C
  C238     1.0000 0.76580  0.17980  0.55200  Biso   1.000  C
  C239     1.0000 0.74390  0.15790  0.60690  Biso   1.000  C
  C240     1.0000 0.77690  0.17990  0.65660  Biso   1.000  C
  C241     1.0000 0.83180  0.22380  0.65150  Biso   1.000  C
  C242     1.0000 0.85380  0.24580  0.59670  Biso   1.000  C
  C243     1.0000 0.82100  0.22400  0.54690  Biso   1.000  C
  C244     1.0000 0.93100  0.46700  0.42400  Biso   1.000  C
  H80      1.0000 0.95550  0.50680  0.42990  Biso   1.000  H
  H81      1.0000 0.91260  0.45990  0.38580  Biso   1.000  H
  H82      1.0000 0.95270  0.44760  0.42610  Biso   1.000  H
  C245     1.0000 0.83570  0.39400  0.54100  Biso   1.000  C
  H83      1.0000 0.81210  0.36200  0.56340  Biso   1.000  H
  C246     1.0000 0.83680  0.43680  0.54300  Biso   1.000  C
  H84      1.0000 0.81290  0.44430  0.56700  Biso   1.000  H
  C247     1.0000 0.94330  0.24440  0.47490  Biso   1.000  C
  C248     1.0000 0.97030  0.30180  0.48380  Biso   1.000  C
  C249     1.0000 0.02830  0.33230  0.48770  Biso   1.000  C
  C250     1.0000 0.05910  0.30530  0.48270  Biso   1.000  C
  C251     1.0000 0.03210  0.24790  0.47380  Biso   1.000  C
  C252     1.0000 0.97420  0.21740  0.46990  Biso   1.000  C
  Br63     1.0000 0.06790  0.20780  0.46530  Biso   1.000  Br
  Br64     1.0000 0.94290  0.14270  0.46280  Biso   1.000  Br
  Br65     1.0000 0.93840  0.14220  0.51050  Biso   1.000  Br
  Br66     1.0000 0.06020  0.19970  0.50800  Biso   1.000  Br
  Br67     1.0000 0.92560  0.52590  0.72720  Biso   1.000  Br
  Br68     1.0000 0.87830  0.48760  0.76350  Biso   1.000  Br
  Br69     1.0000 0.77420  0.12110  0.63060  Biso   1.000  Br
  Br70     1.0000 0.78380  0.10400  0.70320  Biso   1.000  Br
  Zn15     1.0000 0.33397  0.45197  0.80067  Biso   1.000  Zn
  Zn16     1.0000 0.54805  0.66599  0.80051  Biso   1.000  Zn
  N57      1.0000 0.54407  0.73103  0.83183  Biso   1.000  N
  N58      1.0000 0.53207  0.66773  0.62123  Biso   1.000  N
  N59      1.0000 0.54997  0.81423  0.83133  Biso   1.000  N
  N60      1.0000 0.53207  0.66803  0.71293  Biso   1.000  N
  C253     1.0000 0.55687  0.77913  0.80113  Biso   1.000  C
  C254     1.0000 0.48417  0.66853  0.63363  Biso   1.000  C
  H85      1.0000 0.45857  0.67053  0.60753  Biso   1.000  H
  C255     1.0000 0.55797  0.66613  0.66723  Biso   1.000  C
  C256     1.0000 0.56927  0.80983  0.88393  Biso   1.000  C
  C257     1.0000 0.57017  0.76003  0.88693  Biso   1.000  C
  C258     1.0000 0.58117  0.74273  0.94003  Biso   1.000  C
  H86      1.0000 0.58177  0.70873  0.94213  Biso   1.000  H
  C259     1.0000 0.59117  0.77513  0.98993  Biso   1.000  C
  C260     1.0000 0.59027  0.82493  0.98693  Biso   1.000  C
  C261     1.0000 0.57927  0.84223  0.93383  Biso   1.000  C
  H87      1.0000 0.57877  0.87633  0.93173  Biso   1.000  H
  N61      1.0000 0.40257  0.51403  0.83213  Biso   1.000  N
  C262     1.0000 0.39767  0.54933  0.87333  Biso   1.000  C
  C263     1.0000 0.44697  0.60543  0.87733  Biso   1.000  C
  N62      1.0000 0.48627  0.59673  0.83253  Biso   1.000  N
  C264     1.0000 0.48267  0.66583  0.69213  Biso   1.000  C
  H88      1.0000 0.45317  0.66293  0.71603  Biso   1.000  H
  C265     1.0000 0.61817  0.66953  0.67043  Biso   1.000  C
  H89      1.0000 0.61427  0.63693  0.69163  Biso   1.000  H
  H90      1.0000 0.64487  0.70373  0.69093  Biso   1.000  H
  H91      1.0000 0.63167  0.66993  0.63063  Biso   1.000  H
  Br71     1.0000 0.58297  0.73203  0.06573  Biso   1.000  Br
  C266     1.0000 0.43767  0.55063  0.80473  Biso   1.000  C
  N63      1.0000 0.28027  0.28723  0.84143  Biso   1.000  N
  N64      1.0000 0.32547  0.37843  0.82353  Biso   1.000  N
  C267     1.0000 0.27817  0.33293  0.83203  Biso   1.000  C
  Br72     1.0000 0.44847  0.24803  0.76683  Biso   1.000  Br
  C268     1.0000 0.41477  0.29903  0.79833  Biso   1.000  C
  C269     1.0000 0.44557  0.35693  0.79433  Biso   1.000  C
  C270     1.0000 0.42007  0.38863  0.80383  Biso   1.000  C
  C271     1.0000 0.36377  0.36243  0.81833  Biso   1.000  C
  C272     1.0000 0.33297  0.30453  0.82333  Biso   1.000  C
  C273     1.0000 0.35847  0.27283  0.81363  Biso   1.000  C
  C274     1.0000 0.43247  0.51313  0.88533  Biso   1.000  C
  C275     1.0000 0.41057  0.49123  0.94023  Biso   1.000  C
  C276     1.0000 0.44357  0.51323  0.98993  Biso   1.000  C
  C277     1.0000 0.49847  0.55713  0.98483  Biso   1.000  C
  C278     1.0000 0.52047  0.57913  0.93003  Biso   1.000  C
  C279     1.0000 0.48767  0.55733  0.88023  Biso   1.000  C
  C280     1.0000 0.59767  0.80033  0.75733  Biso   1.000  C
  H92      1.0000 0.62217  0.84013  0.76323  Biso   1.000  H
  H93      1.0000 0.57927  0.79323  0.71913  Biso   1.000  H
  H94      1.0000 0.61937  0.78093  0.75943  Biso   1.000  H
  C281     1.0000 0.50237  0.72733  0.87433  Biso   1.000  C
  H95      1.0000 0.47877  0.69533  0.89673  Biso   1.000  H
  C282     1.0000 0.50347  0.77013  0.87633  Biso   1.000  C
  H96      1.0000 0.47957  0.77763  0.90033  Biso   1.000  H
  C283     1.0000 0.60997  0.57773  0.80823  Biso   1.000  C
  C284     1.0000 0.63697  0.63513  0.81713  Biso   1.000  C
  C285     1.0000 0.69497  0.66563  0.82103  Biso   1.000  C
  C286     1.0000 0.72577  0.63863  0.81603  Biso   1.000  C
  C287     1.0000 0.69877  0.58123  0.80713  Biso   1.000  C
  C288     1.0000 0.64087  0.55073  0.80323  Biso   1.000  C
  Br73     1.0000 0.73457  0.54113  0.79863  Biso   1.000  Br
  Br74     1.0000 0.60957  0.47603  0.79613  Biso   1.000  Br
  Br75     1.0000 0.60507  0.47553  0.84383  Biso   1.000  Br
  Br76     1.0000 0.72687  0.53303  0.84133  Biso   1.000  Br
  Br77     1.0000 0.59227  0.85923  0.06053  Biso   1.000  Br
  Br78     1.0000 0.54497  0.82093  0.09683  Biso   1.000  Br
  Br79     1.0000 0.44087  0.45443  0.96393  Biso   1.000  Br
  Br80     1.0000 0.45047  0.43733  0.03653  Biso   1.000  Br
  Zn17     1.0000 0.00063  0.78531  0.13401  Biso   1.000  Zn
  Zn18     1.0000 0.21471  0.99933  0.13385  Biso   1.000  Zn
  N65      1.0000 0.21073  0.06437  0.16517  Biso   1.000  N
  N66      1.0000 0.19873  0.00107  0.95457  Biso   1.000  N
  N67      1.0000 0.21663  0.14757  0.16467  Biso   1.000  N
  N68      1.0000 0.19873  0.00137  0.04627  Biso   1.000  N
  C289     1.0000 0.22353  0.11247  0.13447  Biso   1.000  C
  C290     1.0000 0.15083  0.00187  0.96697  Biso   1.000  C
  H97      1.0000 0.12523  0.00387  0.94087  Biso   1.000  H
  C291     1.0000 0.22463  0.99947  0.00057  Biso   1.000  C
  C292     1.0000 0.23593  0.14317  0.21727  Biso   1.000  C
  C293     1.0000 0.23683  0.09337  0.22027  Biso   1.000  C
  C294     1.0000 0.24783  0.07607  0.27337  Biso   1.000  C
  H98      1.0000 0.24843  0.04207  0.27547  Biso   1.000  H
  C295     1.0000 0.25783  0.10847  0.32327  Biso   1.000  C
  C296     1.0000 0.25693  0.15827  0.32027  Biso   1.000  C
  C297     1.0000 0.24593  0.17557  0.26717  Biso   1.000  C
  H99      1.0000 0.24543  0.20967  0.26507  Biso   1.000  H
  N69      1.0000 0.06923  0.84737  0.16547  Biso   1.000  N
  C298     1.0000 0.06433  0.88267  0.20667  Biso   1.000  C
  C299     1.0000 0.11363  0.93877  0.21067  Biso   1.000  C
  N70      1.0000 0.15293  0.93007  0.16587  Biso   1.000  N
  C300     1.0000 0.14933  0.99917  0.02547  Biso   1.000  C
  H100     1.0000 0.11983  0.99627  0.04937  Biso   1.000  H
  C301     1.0000 0.28483  0.00287  0.00377  Biso   1.000  C
  H101     1.0000 0.28093  0.97027  0.02497  Biso   1.000  H
  H102     1.0000 0.31153  0.03707  0.02427  Biso   1.000  H
  H103     1.0000 0.29833  0.00327  0.96397  Biso   1.000  H
  Br81     1.0000 0.24963  0.06537  0.39907  Biso   1.000  Br
  C302     1.0000 0.10433  0.88397  0.13807  Biso   1.000  C
  N71      1.0000 0.94693  0.62057  0.17477  Biso   1.000  N
  N72      1.0000 0.99213  0.71177  0.15687  Biso   1.000  N
  C303     1.0000 0.94483  0.66627  0.16537  Biso   1.000  C
  Br82     1.0000 0.11513  0.58137  0.10017  Biso   1.000  Br
  C304     1.0000 0.08143  0.63237  0.13167  Biso   1.000  C
  C305     1.0000 0.11223  0.69027  0.12767  Biso   1.000  C
  C306     1.0000 0.08673  0.72197  0.13717  Biso   1.000  C
  C307     1.0000 0.03043  0.69577  0.15167  Biso   1.000  C
  C308     1.0000 0.99963  0.63787  0.15667  Biso   1.000  C
  C309     1.0000 0.02513  0.60617  0.14697  Biso   1.000  C
  C310     1.0000 0.09913  0.84647  0.21867  Biso   1.000  C
  C311     1.0000 0.07723  0.82457  0.27357  Biso   1.000  C
  C312     1.0000 0.11023  0.84657  0.32327  Biso   1.000  C
  C313     1.0000 0.16513  0.89047  0.31817  Biso   1.000  C
  C314     1.0000 0.18713  0.91247  0.26337  Biso   1.000  C
  C315     1.0000 0.15433  0.89067  0.21357  Biso   1.000  C
  C316     1.0000 0.26433  0.13367  0.09067  Biso   1.000  C
  H104     1.0000 0.28883  0.17347  0.09657  Biso   1.000  H
  H105     1.0000 0.24593  0.12657  0.05247  Biso   1.000  H
  H106     1.0000 0.28603  0.11427  0.09277  Biso   1.000  H
  C317     1.0000 0.16903  0.06067  0.20767  Biso   1.000  C
  H107     1.0000 0.14543  0.02867  0.23007  Biso   1.000  H
  C318     1.0000 0.17013  0.10347  0.20967  Biso   1.000  C
  H108     1.0000 0.14623  0.11097  0.23367  Biso   1.000  H
  C319     1.0000 0.27663  0.91107  0.14157  Biso   1.000  C
  C320     1.0000 0.30363  0.96847  0.15047  Biso   1.000  C
  C321     1.0000 0.36163  0.99897  0.15437  Biso   1.000  C
  C322     1.0000 0.39243  0.97197  0.14937  Biso   1.000  C
  C323     1.0000 0.36543  0.91457  0.14047  Biso   1.000  C
  C324     1.0000 0.30753  0.88407  0.13657  Biso   1.000  C
  Br83     1.0000 0.40123  0.87447  0.13197  Biso   1.000  Br
  Br84     1.0000 0.27623  0.80937  0.12947  Biso   1.000  Br
  Br85     1.0000 0.27173  0.80887  0.17717  Biso   1.000  Br
  Br86     1.0000 0.39353  0.86637  0.17467  Biso   1.000  Br
  Br87     1.0000 0.25893  0.19257  0.39387  Biso   1.000  Br
  Br88     1.0000 0.21163  0.15427  0.43017  Biso   1.000  Br
  Br89     1.0000 0.10753  0.78777  0.29727  Biso   1.000  Br
  Br90     1.0000 0.11713  0.77067  0.36987  Biso   1.000  Br
  Zn19     1.0000 0.11864  0.45134  0.53266  Biso   1.000  Zn
  Zn20     1.0000 0.33266  0.45128  0.53282  Biso   1.000  Zn
  N73      1.0000 0.39770  0.52030  0.50150  Biso   1.000  N
  N74      1.0000 0.33440  0.46900  0.71210  Biso   1.000  N
  N75      1.0000 0.48090  0.59760  0.50200  Biso   1.000  N
  N76      1.0000 0.33470  0.46930  0.62040  Biso   1.000  N
  C325     1.0000 0.44580  0.55560  0.53220  Biso   1.000  C
  C326     1.0000 0.33520  0.51770  0.69970  Biso   1.000  C
  H109     1.0000 0.33720  0.54530  0.72580  Biso   1.000  H
  C327     1.0000 0.33280  0.44150  0.66610  Biso   1.000  C
  C328     1.0000 0.47650  0.57390  0.44940  Biso   1.000  C
  C329     1.0000 0.42670  0.52320  0.44640  Biso   1.000  C
  C330     1.0000 0.40940  0.49490  0.39330  Biso   1.000  C
  H110     1.0000 0.37540  0.46030  0.39120  Biso   1.000  H
  C331     1.0000 0.44180  0.51730  0.34340  Biso   1.000  C
  C332     1.0000 0.49160  0.56800  0.34640  Biso   1.000  C
  C333     1.0000 0.50890  0.59630  0.39950  Biso   1.000  C
  H111     1.0000 0.54300  0.63090  0.40160  Biso   1.000  H
  N77      1.0000 0.18070  0.44480  0.50120  Biso   1.000  N
  C334     1.0000 0.21600  0.48500  0.46000  Biso   1.000  C
  C335     1.0000 0.27210  0.49180  0.45600  Biso   1.000  C
  N78      1.0000 0.26340  0.44380  0.50080  Biso   1.000  N
  C336     1.0000 0.33250  0.51650  0.64120  Biso   1.000  C
  H112     1.0000 0.32960  0.54310  0.61730  Biso   1.000  H
  C337     1.0000 0.33620  0.38470  0.66290  Biso   1.000  C
  H113     1.0000 0.30360  0.35600  0.64170  Biso   1.000  H
  H114     1.0000 0.37040  0.39220  0.64240  Biso   1.000  H
  H115     1.0000 0.33660  0.37160  0.70270  Biso   1.000  H
  Br91     1.0000 0.39870  0.48240  0.26760  Biso   1.000  Br
  C338     1.0000 0.21730  0.44630  0.52860  Biso   1.000  C
  N79      1.0000 0.95390  0.34030  0.49190  Biso   1.000  N
  N80      1.0000 0.04510  0.38630  0.50980  Biso   1.000  N
  C339     1.0000 0.99960  0.38810  0.50130  Biso   1.000  C
  Br92     1.0000 0.91470  0.13290  0.56650  Biso   1.000  Br
  C340     1.0000 0.96570  0.21760  0.53500  Biso   1.000  C
  C341     1.0000 0.02360  0.24470  0.53900  Biso   1.000  C
  C342     1.0000 0.05530  0.30190  0.52950  Biso   1.000  C
  C343     1.0000 0.02910  0.33200  0.51500  Biso   1.000  C
  C344     1.0000 0.97120  0.30490  0.51000  Biso   1.000  C
  C345     1.0000 0.93950  0.24770  0.51970  Biso   1.000  C
  C346     1.0000 0.17980  0.41400  0.44800  Biso   1.000  C
  C347     1.0000 0.15790  0.41400  0.39310  Biso   1.000  C
  C348     1.0000 0.17990  0.40300  0.34340  Biso   1.000  C
  C349     1.0000 0.22380  0.39200  0.34850  Biso   1.000  C
  C350     1.0000 0.24580  0.39200  0.40330  Biso   1.000  C
  C351     1.0000 0.22400  0.40300  0.45310  Biso   1.000  C
  C352     1.0000 0.46700  0.53600  0.57600  Biso   1.000  C
  H116     1.0000 0.50680  0.55130  0.57010  Biso   1.000  H
  H117     1.0000 0.45990  0.54730  0.61420  Biso   1.000  H
  H118     1.0000 0.44760  0.49490  0.57390  Biso   1.000  H
  C353     1.0000 0.39400  0.55830  0.45900  Biso   1.000  C
  H119     1.0000 0.36200  0.54990  0.43660  Biso   1.000  H
  C354     1.0000 0.43680  0.60000  0.45700  Biso   1.000  C
  H120     1.0000 0.44430  0.63140  0.43300  Biso   1.000  H
  C355     1.0000 0.24440  0.30110  0.52510  Biso   1.000  C
  C356     1.0000 0.30180  0.33150  0.51620  Biso   1.000  C
  C357     1.0000 0.33230  0.30400  0.51230  Biso   1.000  C
  C358     1.0000 0.30530  0.24620  0.51730  Biso   1.000  C
  C359     1.0000 0.24790  0.21580  0.52620  Biso   1.000  C
  C360     1.0000 0.21740  0.24320  0.53010  Biso   1.000  C
  Br93     1.0000 0.20780  0.13990  0.53470  Biso   1.000  Br
  Br94     1.0000 0.14270  0.19980  0.53720  Biso   1.000  Br
  Br95     1.0000 0.14220  0.20380  0.48950  Biso   1.000  Br
  Br96     1.0000 0.19970  0.13950  0.49200  Biso   1.000  Br
  Br97     1.0000 0.52590  0.60030  0.27280  Biso   1.000  Br
  Br98     1.0000 0.48760  0.60930  0.23650  Biso   1.000  Br
  Br99     1.0000 0.12110  0.34690  0.36940  Biso   1.000  Br
  Br100    1.0000 0.10400  0.32020  0.29680  Biso   1.000  Br
  Zn21     1.0000 0.78531  0.78467  0.86599  Biso   1.000  Zn
  Zn22     1.0000 0.99933  0.78461  0.86615  Biso   1.000  Zn
  N81      1.0000 0.06437  0.85363  0.83483  Biso   1.000  N
  N82      1.0000 0.00107  0.80233  0.04543  Biso   1.000  N
  N83      1.0000 0.14757  0.93093  0.83533  Biso   1.000  N
  N84      1.0000 0.00137  0.80263  0.95373  Biso   1.000  N
  C361     1.0000 0.11247  0.88893  0.86553  Biso   1.000  C
  C362     1.0000 0.00187  0.85103  0.03303  Biso   1.000  C
  H121     1.0000 0.00387  0.87863  0.05913  Biso   1.000  H
  C363     1.0000 0.99947  0.77483  0.99943  Biso   1.000  C
  C364     1.0000 0.14317  0.90723  0.78273  Biso   1.000  C
  C365     1.0000 0.09337  0.85653  0.77973  Biso   1.000  C
  C366     1.0000 0.07607  0.82823  0.72663  Biso   1.000  C
  H122     1.0000 0.04207  0.79363  0.72453  Biso   1.000  H
  C367     1.0000 0.10847  0.85063  0.67673  Biso   1.000  C
  C368     1.0000 0.15827  0.90133  0.67973  Biso   1.000  C
  C369     1.0000 0.17557  0.92963  0.73283  Biso   1.000  C
  H123     1.0000 0.20967  0.96423  0.73493  Biso   1.000  H
  N85      1.0000 0.84737  0.77813  0.83453  Biso   1.000  N
  C370     1.0000 0.88267  0.81833  0.79333  Biso   1.000  C
  C371     1.0000 0.93877  0.82513  0.78933  Biso   1.000  C
  N86      1.0000 0.93007  0.77713  0.83413  Biso   1.000  N
  C372     1.0000 0.99917  0.84983  0.97453  Biso   1.000  C
  H124     1.0000 0.99627  0.87643  0.95063  Biso   1.000  H
  C373     1.0000 0.00287  0.71803  0.99623  Biso   1.000  C
  H125     1.0000 0.97027  0.68933  0.97503  Biso   1.000  H
  H126     1.0000 0.03707  0.72553  0.97573  Biso   1.000  H
  H127     1.0000 0.00327  0.70493  0.03603  Biso   1.000  H
  Br101    1.0000 0.06537  0.81573  0.60093  Biso   1.000  Br
  C374     1.0000 0.88397  0.77963  0.86193  Biso   1.000  C
  N87      1.0000 0.62057  0.67363  0.82523  Biso   1.000  N
  N88      1.0000 0.71177  0.71963  0.84313  Biso   1.000  N
  C375     1.0000 0.66627  0.72143  0.83463  Biso   1.000  C
  Br102    1.0000 0.58137  0.46623  0.89983  Biso   1.000  Br
  C376     1.0000 0.63237  0.55093  0.86833  Biso   1.000  C
  C377     1.0000 0.69027  0.57803  0.87233  Biso   1.000  C
  C378     1.0000 0.72197  0.63523  0.86283  Biso   1.000  C
  C379     1.0000 0.69577  0.66533  0.84833  Biso   1.000  C
  C380     1.0000 0.63787  0.63823  0.84333  Biso   1.000  C
  C381     1.0000 0.60617  0.58103  0.85303  Biso   1.000  C
  C382     1.0000 0.84647  0.74733  0.78133  Biso   1.000  C
  C383     1.0000 0.82457  0.74733  0.72643  Biso   1.000  C
  C384     1.0000 0.84657  0.73633  0.67673  Biso   1.000  C
  C385     1.0000 0.89047  0.72533  0.68183  Biso   1.000  C
  C386     1.0000 0.91247  0.72533  0.73663  Biso   1.000  C
  C387     1.0000 0.89067  0.73633  0.78643  Biso   1.000  C
  C388     1.0000 0.13367  0.86933  0.90933  Biso   1.000  C
  H128     1.0000 0.17347  0.88463  0.90343  Biso   1.000  H
  H129     1.0000 0.12657  0.88063  0.94753  Biso   1.000  H
  H130     1.0000 0.11427  0.82823  0.90723  Biso   1.000  H
  C389     1.0000 0.06067  0.89163  0.79233  Biso   1.000  C
  H131     1.0000 0.02867  0.88323  0.76993  Biso   1.000  H
  C390     1.0000 0.10347  0.93333  0.79033  Biso   1.000  C
  H132     1.0000 0.11097  0.96473  0.76633  Biso   1.000  H
  C391     1.0000 0.91107  0.63443  0.85843  Biso   1.000  C
  C392     1.0000 0.96847  0.66483  0.84953  Biso   1.000  C
  C393     1.0000 0.99897  0.63733  0.84563  Biso   1.000  C
  C394     1.0000 0.97197  0.57953  0.85063  Biso   1.000  C
  C395     1.0000 0.91457  0.54913  0.85953  Biso   1.000  C
  C396     1.0000 0.88407  0.57653  0.86343  Biso   1.000  C
  Br103    1.0000 0.87447  0.47323  0.86803  Biso   1.000  Br
  Br104    1.0000 0.80937  0.53313  0.87053  Biso   1.000  Br
  Br105    1.0000 0.80887  0.53713  0.82283  Biso   1.000  Br
  Br106    1.0000 0.86637  0.47283  0.82533  Biso   1.000  Br
  Br107    1.0000 0.19257  0.93363  0.60613  Biso   1.000  Br
  Br108    1.0000 0.15427  0.94263  0.56983  Biso   1.000  Br
  Br109    1.0000 0.78777  0.68023  0.70273  Biso   1.000  Br
  Br110    1.0000 0.77067  0.65353  0.63013  Biso   1.000  Br
  Zn23     1.0000 0.45197  0.11801  0.19933  Biso   1.000  Zn
  Zn24     1.0000 0.66599  0.11795  0.19949  Biso   1.000  Zn
  N89      1.0000 0.73103  0.18697  0.16817  Biso   1.000  N
  N90      1.0000 0.66773  0.13567  0.37877  Biso   1.000  N
  N91      1.0000 0.81423  0.26427  0.16867  Biso   1.000  N
  N92      1.0000 0.66803  0.13597  0.28707  Biso   1.000  N
  C397     1.0000 0.77913  0.22227  0.19887  Biso   1.000  C
  C398     1.0000 0.66853  0.18437  0.36637  Biso   1.000  C
  H133     1.0000 0.67053  0.21197  0.39247  Biso   1.000  H
  C399     1.0000 0.66613  0.10817  0.33277  Biso   1.000  C
  C400     1.0000 0.80983  0.24057  0.11607  Biso   1.000  C
  C401     1.0000 0.76003  0.18987  0.11307  Biso   1.000  C
  C402     1.0000 0.74273  0.16157  0.05997  Biso   1.000  C
  H134     1.0000 0.70873  0.12697  0.05787  Biso   1.000  H
  C403     1.0000 0.77513  0.18397  0.01007  Biso   1.000  C
  C404     1.0000 0.82493  0.23467  0.01307  Biso   1.000  C
  C405     1.0000 0.84223  0.26297  0.06617  Biso   1.000  C
  H135     1.0000 0.87633  0.29757  0.06827  Biso   1.000  H
  N93      1.0000 0.51403  0.11147  0.16787  Biso   1.000  N
  C406     1.0000 0.54933  0.15167  0.12667  Biso   1.000  C
  C407     1.0000 0.60543  0.15847  0.12267  Biso   1.000  C
  N94      1.0000 0.59673  0.11047  0.16747  Biso   1.000  N
  C408     1.0000 0.66583  0.18317  0.30787  Biso   1.000  C
  H136     1.0000 0.66293  0.20977  0.28397  Biso   1.000  H
  C409     1.0000 0.66953  0.05137  0.32957  Biso   1.000  C
  H137     1.0000 0.63693  0.02267  0.30837  Biso   1.000  H
  H138     1.0000 0.70373  0.05887  0.30907  Biso   1.000  H
  H139     1.0000 0.66993  0.03827  0.36937  Biso   1.000  H
  Br111    1.0000 0.73203  0.14907  0.93427  Biso   1.000  Br
  C410     1.0000 0.55063  0.11297  0.19527  Biso   1.000  C
  N95      1.0000 0.28723  0.00697  0.15857  Biso   1.000  N
  N96      1.0000 0.37843  0.05297  0.17647  Biso   1.000  N
  C411     1.0000 0.33293  0.05477  0.16797  Biso   1.000  C
  Br112    1.0000 0.24803  0.79957  0.23317  Biso   1.000  Br
  C412     1.0000 0.29903  0.88427  0.20167  Biso   1.000  C
  C413     1.0000 0.35693  0.91137  0.20567  Biso   1.000  C
  C414     1.0000 0.38863  0.96857  0.19617  Biso   1.000  C
  C415     1.0000 0.36243  0.99867  0.18167  Biso   1.000  C
  C416     1.0000 0.30453  0.97157  0.17667  Biso   1.000  C
  C417     1.0000 0.27283  0.91437  0.18637  Biso   1.000  C
  C418     1.0000 0.51313  0.08067  0.11467  Biso   1.000  C
  C419     1.0000 0.49123  0.08067  0.05977  Biso   1.000  C
  C420     1.0000 0.51323  0.06967  0.01007  Biso   1.000  C
  C421     1.0000 0.55713  0.05867  0.01517  Biso   1.000  C
  C422     1.0000 0.57913  0.05867  0.06997  Biso   1.000  C
  C423     1.0000 0.55733  0.06967  0.11977  Biso   1.000  C
  C424     1.0000 0.80033  0.20267  0.24267  Biso   1.000  C
  H140     1.0000 0.84013  0.21797  0.23677  Biso   1.000  H
  H141     1.0000 0.79323  0.21397  0.28087  Biso   1.000  H
  H142     1.0000 0.78093  0.16157  0.24057  Biso   1.000  H
  C425     1.0000 0.72733  0.22497  0.12567  Biso   1.000  C
  H143     1.0000 0.69533  0.21657  0.10327  Biso   1.000  H
  C426     1.0000 0.77013  0.26667  0.12367  Biso   1.000  C
  H144     1.0000 0.77763  0.29807  0.09967  Biso   1.000  H
  C427     1.0000 0.57773  0.96777  0.19177  Biso   1.000  C
  C428     1.0000 0.63513  0.99817  0.18287  Biso   1.000  C
  C429     1.0000 0.66563  0.97067  0.17897  Biso   1.000  C
  C430     1.0000 0.63863  0.91287  0.18397  Biso   1.000  C
  C431     1.0000 0.58123  0.88247  0.19287  Biso   1.000  C
  C432     1.0000 0.55073  0.90987  0.19677  Biso   1.000  C
  Br113    1.0000 0.54113  0.80657  0.20137  Biso   1.000  Br
  Br114    1.0000 0.47603  0.86647  0.20387  Biso   1.000  Br
  Br115    1.0000 0.47553  0.87047  0.15617  Biso   1.000  Br
  Br116    1.0000 0.53303  0.80617  0.15867  Biso   1.000  Br
  Br117    1.0000 0.85923  0.26697  0.93947  Biso   1.000  Br
  Br118    1.0000 0.82093  0.27597  0.90317  Biso   1.000  Br
  Br119    1.0000 0.45443  0.01357  0.03607  Biso   1.000  Br
  Br120    1.0000 0.43733  0.98687  0.96347  Biso   1.000  Br
  Zn25     1.0000 0.54866  0.66730  0.53266  Biso   1.000  Zn
  Zn26     1.0000 0.54872  0.88138  0.53282  Biso   1.000  Zn
  N97      1.0000 0.47970  0.87740  0.50150  Biso   1.000  N
  N98      1.0000 0.53100  0.86540  0.71210  Biso   1.000  N
  N99      1.0000 0.40240  0.88330  0.50200  Biso   1.000  N
  N100     1.0000 0.53070  0.86540  0.62040  Biso   1.000  N
  C433     1.0000 0.44440  0.89020  0.53220  Biso   1.000  C
  C434     1.0000 0.48230  0.81750  0.69970  Biso   1.000  C
  H145     1.0000 0.45470  0.79190  0.72580  Biso   1.000  H
  C435     1.0000 0.55850  0.89130  0.66610  Biso   1.000  C
  C436     1.0000 0.42610  0.90260  0.44940  Biso   1.000  C
  C437     1.0000 0.47680  0.90350  0.44640  Biso   1.000  C
  C438     1.0000 0.50510  0.91450  0.39330  Biso   1.000  C
  H146     1.0000 0.53970  0.91510  0.39120  Biso   1.000  H
  C439     1.0000 0.48270  0.92450  0.34340  Biso   1.000  C
  C440     1.0000 0.43200  0.92360  0.34640  Biso   1.000  C
  C441     1.0000 0.40370  0.91260  0.39950  Biso   1.000  C
  H147     1.0000 0.36910  0.91210  0.40160  Biso   1.000  H
  N101     1.0000 0.55520  0.73590  0.50120  Biso   1.000  N
  C442     1.0000 0.51500  0.73100  0.46000  Biso   1.000  C
  C443     1.0000 0.50820  0.78030  0.45600  Biso   1.000  C
  N102     1.0000 0.55620  0.81960  0.50080  Biso   1.000  N
  C444     1.0000 0.48350  0.81600  0.64120  Biso   1.000  C
  H148     1.0000 0.45690  0.78650  0.61730  Biso   1.000  H
  C445     1.0000 0.61530  0.95150  0.66290  Biso   1.000  C
  H149     1.0000 0.64400  0.94760  0.64170  Biso   1.000  H
  H150     1.0000 0.60780  0.97820  0.64240  Biso   1.000  H
  H151     1.0000 0.62840  0.96500  0.70270  Biso   1.000  H
  Br121    1.0000 0.51760  0.91630  0.26760  Biso   1.000  Br
  C446     1.0000 0.55370  0.77100  0.52860  Biso   1.000  C
  N103     1.0000 0.65970  0.61360  0.49190  Biso   1.000  N
  N104     1.0000 0.61370  0.65880  0.50980  Biso   1.000  N
  C447     1.0000 0.61190  0.61150  0.50130  Biso   1.000  C
  Br122    1.0000 0.86710  0.78180  0.56650  Biso   1.000  Br
  C448     1.0000 0.78240  0.74810  0.53500  Biso   1.000  C
  C449     1.0000 0.75530  0.77890  0.53900  Biso   1.000  C
  C450     1.0000 0.69810  0.75340  0.52950  Biso   1.000  C
  C451     1.0000 0.66800  0.69710  0.51500  Biso   1.000  C
  C452     1.0000 0.69510  0.66630  0.51000  Biso   1.000  C
  C453     1.0000 0.75230  0.69180  0.51970  Biso   1.000  C
  C454     1.0000 0.58600  0.76580  0.44800  Biso   1.000  C
  C455     1.0000 0.58600  0.74390  0.39310  Biso   1.000  C
  C456     1.0000 0.59700  0.77690  0.34340  Biso   1.000  C
  C457     1.0000 0.60800  0.83180  0.34850  Biso   1.000  C
  C458     1.0000 0.60800  0.85380  0.40330  Biso   1.000  C
  C459     1.0000 0.59700  0.82100  0.45310  Biso   1.000  C
  C460     1.0000 0.46400  0.93100  0.57600  Biso   1.000  C
  H152     1.0000 0.44870  0.95550  0.57010  Biso   1.000  H
  H153     1.0000 0.45270  0.91260  0.61420  Biso   1.000  H
  H154     1.0000 0.50510  0.95270  0.57390  Biso   1.000  H
  C461     1.0000 0.44170  0.83570  0.45900  Biso   1.000  C
  H155     1.0000 0.45010  0.81210  0.43660  Biso   1.000  H
  C462     1.0000 0.40000  0.83680  0.45700  Biso   1.000  C
  H156     1.0000 0.36860  0.81290  0.43300  Biso   1.000  H
  C463     1.0000 0.69890  0.94330  0.52510  Biso   1.000  C
  C464     1.0000 0.66850  0.97030  0.51620  Biso   1.000  C
  C465     1.0000 0.69600  0.02830  0.51230  Biso   1.000  C
  C466     1.0000 0.75380  0.05910  0.51730  Biso   1.000  C
  C467     1.0000 0.78420  0.03210  0.52620  Biso   1.000  C
  C468     1.0000 0.75680  0.97420  0.53010  Biso   1.000  C
  Br123    1.0000 0.86010  0.06790  0.53470  Biso   1.000  Br
  Br124    1.0000 0.80020  0.94290  0.53720  Biso   1.000  Br
  Br125    1.0000 0.79620  0.93840  0.48950  Biso   1.000  Br
  Br126    1.0000 0.86050  0.06020  0.49200  Biso   1.000  Br
  Br127    1.0000 0.39970  0.92560  0.27280  Biso   1.000  Br
  Br128    1.0000 0.39070  0.87830  0.23650  Biso   1.000  Br
  Br129    1.0000 0.65310  0.77420  0.36940  Biso   1.000  Br
  Br130    1.0000 0.67980  0.78380  0.29680  Biso   1.000  Br
  Zn27     1.0000 0.21533  0.00063  0.86599  Biso   1.000  Zn
  Zn28     1.0000 0.21539  0.21471  0.86615  Biso   1.000  Zn
  N105     1.0000 0.14637  0.21073  0.83483  Biso   1.000  N
  N106     1.0000 0.19767  0.19873  0.04543  Biso   1.000  N
  N107     1.0000 0.06907  0.21663  0.83533  Biso   1.000  N
  N108     1.0000 0.19737  0.19873  0.95373  Biso   1.000  N
  C469     1.0000 0.11107  0.22353  0.86553  Biso   1.000  C
  C470     1.0000 0.14897  0.15083  0.03303  Biso   1.000  C
  H157     1.0000 0.12137  0.12523  0.05913  Biso   1.000  H
  C471     1.0000 0.22517  0.22463  0.99943  Biso   1.000  C
  C472     1.0000 0.09277  0.23593  0.78273  Biso   1.000  C
  C473     1.0000 0.14347  0.23683  0.77973  Biso   1.000  C
  C474     1.0000 0.17177  0.24783  0.72663  Biso   1.000  C
  H158     1.0000 0.20637  0.24843  0.72453  Biso   1.000  H
  C475     1.0000 0.14937  0.25783  0.67673  Biso   1.000  C
  C476     1.0000 0.09867  0.25693  0.67973  Biso   1.000  C
  C477     1.0000 0.07037  0.24593  0.73283  Biso   1.000  C
  H159     1.0000 0.03577  0.24543  0.73493  Biso   1.000  H
  N109     1.0000 0.22187  0.06923  0.83453  Biso   1.000  N
  C478     1.0000 0.18167  0.06433  0.79333  Biso   1.000  C
  C479     1.0000 0.17487  0.11363  0.78933  Biso   1.000  C
  N110     1.0000 0.22287  0.15293  0.83413  Biso   1.000  N
  C480     1.0000 0.15017  0.14933  0.97453  Biso   1.000  C
  H160     1.0000 0.12357  0.11983  0.95063  Biso   1.000  H
  C481     1.0000 0.28197  0.28483  0.99623  Biso   1.000  C
  H161     1.0000 0.31067  0.28093  0.97503  Biso   1.000  H
  H162     1.0000 0.27447  0.31153  0.97573  Biso   1.000  H
  H163     1.0000 0.29507  0.29833  0.03603  Biso   1.000  H
  Br131    1.0000 0.18427  0.24963  0.60093  Biso   1.000  Br
  C482     1.0000 0.22037  0.10433  0.86193  Biso   1.000  C
  N111     1.0000 0.32637  0.94693  0.82523  Biso   1.000  N
  N112     1.0000 0.28037  0.99213  0.84313  Biso   1.000  N
  C483     1.0000 0.27857  0.94483  0.83463  Biso   1.000  C
  Br132    1.0000 0.53377  0.11513  0.89983  Biso   1.000  Br
  C484     1.0000 0.44907  0.08143  0.86833  Biso   1.000  C
  C485     1.0000 0.42197  0.11223  0.87233  Biso   1.000  C
  C486     1.0000 0.36477  0.08673  0.86283  Biso   1.000  C
  C487     1.0000 0.33467  0.03043  0.84833  Biso   1.000  C
  C488     1.0000 0.36177  0.99963  0.84333  Biso   1.000  C
  C489     1.0000 0.41897  0.02513  0.85303  Biso   1.000  C
  C490     1.0000 0.25267  0.09913  0.78133  Biso   1.000  C
  C491     1.0000 0.25267  0.07723  0.72643  Biso   1.000  C
  C492     1.0000 0.26367  0.11023  0.67673  Biso   1.000  C
  C493     1.0000 0.27467  0.16513  0.68183  Biso   1.000  C
  C494     1.0000 0.27467  0.18713  0.73663  Biso   1.000  C
  C495     1.0000 0.26367  0.15433  0.78643  Biso   1.000  C
  C496     1.0000 0.13067  0.26433  0.90933  Biso   1.000  C
  H164     1.0000 0.11537  0.28883  0.90343  Biso   1.000  H
  H165     1.0000 0.11937  0.24593  0.94753  Biso   1.000  H
  H166     1.0000 0.17177  0.28603  0.90723  Biso   1.000  H
  C497     1.0000 0.10837  0.16903  0.79233  Biso   1.000  C
  H167     1.0000 0.11677  0.14543  0.76993  Biso   1.000  H
  C498     1.0000 0.06667  0.17013  0.79033  Biso   1.000  C
  H168     1.0000 0.03527  0.14623  0.76633  Biso   1.000  H
  C499     1.0000 0.36557  0.27663  0.85843  Biso   1.000  C
  C500     1.0000 0.33517  0.30363  0.84953  Biso   1.000  C
  C501     1.0000 0.36267  0.36163  0.84563  Biso   1.000  C
  C502     1.0000 0.42047  0.39243  0.85063  Biso   1.000  C
  C503     1.0000 0.45087  0.36543  0.85953  Biso   1.000  C
  C504     1.0000 0.42347  0.30753  0.86343  Biso   1.000  C
  Br133    1.0000 0.52677  0.40123  0.86803  Biso   1.000  Br
  Br134    1.0000 0.46687  0.27623  0.87053  Biso   1.000  Br
  Br135    1.0000 0.46287  0.27173  0.82283  Biso   1.000  Br
  Br136    1.0000 0.52717  0.39353  0.82533  Biso   1.000  Br
  Br137    1.0000 0.06637  0.25893  0.60613  Biso   1.000  Br
  Br138    1.0000 0.05737  0.21163  0.56983  Biso   1.000  Br
  Br139    1.0000 0.31977  0.10753  0.70273  Biso   1.000  Br
  Br140    1.0000 0.34647  0.11713  0.63013  Biso   1.000  Br
  Zn29     1.0000 0.88199  0.33397  0.19933  Biso   1.000  Zn
  Zn30     1.0000 0.88205  0.54805  0.19949  Biso   1.000  Zn
  N113     1.0000 0.81303  0.54407  0.16817  Biso   1.000  N
  N114     1.0000 0.86433  0.53207  0.37877  Biso   1.000  N
  N115     1.0000 0.73573  0.54997  0.16867  Biso   1.000  N
  N116     1.0000 0.86403  0.53207  0.28707  Biso   1.000  N
  C505     1.0000 0.77773  0.55687  0.19887  Biso   1.000  C
  C506     1.0000 0.81563  0.48417  0.36637  Biso   1.000  C
  H169     1.0000 0.78803  0.45857  0.39247  Biso   1.000  H
  C507     1.0000 0.89183  0.55797  0.33277  Biso   1.000  C
  C508     1.0000 0.75943  0.56927  0.11607  Biso   1.000  C
  C509     1.0000 0.81013  0.57017  0.11307  Biso   1.000  C
  C510     1.0000 0.83843  0.58117  0.05997  Biso   1.000  C
  H170     1.0000 0.87303  0.58177  0.05787  Biso   1.000  H
  C511     1.0000 0.81603  0.59117  0.01007  Biso   1.000  C
  C512     1.0000 0.76533  0.59027  0.01307  Biso   1.000  C
  C513     1.0000 0.73703  0.57927  0.06617  Biso   1.000  C
  H171     1.0000 0.70243  0.57877  0.06827  Biso   1.000  H
  N117     1.0000 0.88853  0.40257  0.16787  Biso   1.000  N
  C514     1.0000 0.84833  0.39767  0.12667  Biso   1.000  C
  C515     1.0000 0.84153  0.44697  0.12267  Biso   1.000  C
  N118     1.0000 0.88953  0.48627  0.16747  Biso   1.000  N
  C516     1.0000 0.81683  0.48267  0.30787  Biso   1.000  C
  H172     1.0000 0.79023  0.45317  0.28397  Biso   1.000  H
  C517     1.0000 0.94863  0.61817  0.32957  Biso   1.000  C
  H173     1.0000 0.97733  0.61427  0.30837  Biso   1.000  H
  H174     1.0000 0.94113  0.64487  0.30907  Biso   1.000  H
  H175     1.0000 0.96173  0.63167  0.36937  Biso   1.000  H
  Br141    1.0000 0.85093  0.58297  0.93427  Biso   1.000  Br
  C518     1.0000 0.88703  0.43767  0.19527  Biso   1.000  C
  N119     1.0000 0.99303  0.28027  0.15857  Biso   1.000  N
  N120     1.0000 0.94703  0.32547  0.17647  Biso   1.000  N
  C519     1.0000 0.94523  0.27817  0.16797  Biso   1.000  C
  Br142    1.0000 0.20043  0.44847  0.23317  Biso   1.000  Br
  C520     1.0000 0.11573  0.41477  0.20167  Biso   1.000  C
  C521     1.0000 0.08863  0.44557  0.20567  Biso   1.000  C
  C522     1.0000 0.03143  0.42007  0.19617  Biso   1.000  C
  C523     1.0000 0.00133  0.36377  0.18167  Biso   1.000  C
  C524     1.0000 0.02843  0.33297  0.17667  Biso   1.000  C
  C525     1.0000 0.08563  0.35847  0.18637  Biso   1.000  C
  C526     1.0000 0.91933  0.43247  0.11467  Biso   1.000  C
  C527     1.0000 0.91933  0.41057  0.05977  Biso   1.000  C
  C528     1.0000 0.93033  0.44357  0.01007  Biso   1.000  C
  C529     1.0000 0.94133  0.49847  0.01517  Biso   1.000  C
  C530     1.0000 0.94133  0.52047  0.06997  Biso   1.000  C
  C531     1.0000 0.93033  0.48767  0.11977  Biso   1.000  C
  C532     1.0000 0.79733  0.59767  0.24267  Biso   1.000  C
  H176     1.0000 0.78203  0.62217  0.23677  Biso   1.000  H
  H177     1.0000 0.78603  0.57927  0.28087  Biso   1.000  H
  H178     1.0000 0.83843  0.61937  0.24057  Biso   1.000  H
  C533     1.0000 0.77503  0.50237  0.12567  Biso   1.000  C
  H179     1.0000 0.78343  0.47877  0.10327  Biso   1.000  H
  C534     1.0000 0.73333  0.50347  0.12367  Biso   1.000  C
  H180     1.0000 0.70193  0.47957  0.09967  Biso   1.000  H
  C535     1.0000 0.03223  0.60997  0.19177  Biso   1.000  C
  C536     1.0000 0.00183  0.63697  0.18287  Biso   1.000  C
  C537     1.0000 0.02933  0.69497  0.17897  Biso   1.000  C
  C538     1.0000 0.08713  0.72577  0.18397  Biso   1.000  C
  C539     1.0000 0.11753  0.69877  0.19287  Biso   1.000  C
  C540     1.0000 0.09013  0.64087  0.19677  Biso   1.000  C
  Br143    1.0000 0.19343  0.73457  0.20137  Biso   1.000  Br
  Br144    1.0000 0.13353  0.60957  0.20387  Biso   1.000  Br
  Br145    1.0000 0.12953  0.60507  0.15617  Biso   1.000  Br
  Br146    1.0000 0.19383  0.72687  0.15867  Biso   1.000  Br
  Br147    1.0000 0.73303  0.59227  0.93947  Biso   1.000  Br
  Br148    1.0000 0.72403  0.54497  0.90317  Biso   1.000  Br
  Br149    1.0000 0.98643  0.44087  0.03607  Biso   1.000  Br
  Br150    1.0000 0.01313  0.45047  0.96347  Biso   1.000  Br
  Zn31     1.0000 0.33270  0.88136  0.53266  Biso   1.000  Zn
  Zn32     1.0000 0.11862  0.66734  0.53282  Biso   1.000  Zn
  N121     1.0000 0.12260  0.60230  0.50150  Biso   1.000  N
  N122     1.0000 0.13460  0.66560  0.71210  Biso   1.000  N
  N123     1.0000 0.11670  0.51910  0.50200  Biso   1.000  N
  N124     1.0000 0.13460  0.66530  0.62040  Biso   1.000  N
  C541     1.0000 0.10980  0.55420  0.53220  Biso   1.000  C
  C542     1.0000 0.18250  0.66480  0.69970  Biso   1.000  C
  H181     1.0000 0.20810  0.66280  0.72580  Biso   1.000  H
  C543     1.0000 0.10870  0.66720  0.66610  Biso   1.000  C
  C544     1.0000 0.09740  0.52350  0.44940  Biso   1.000  C
  C545     1.0000 0.09650  0.57330  0.44640  Biso   1.000  C
  C546     1.0000 0.08550  0.59060  0.39330  Biso   1.000  C
  H182     1.0000 0.08490  0.62460  0.39120  Biso   1.000  H
  C547     1.0000 0.07550  0.55820  0.34340  Biso   1.000  C
  C548     1.0000 0.07640  0.50840  0.34640  Biso   1.000  C
  C549     1.0000 0.08740  0.49110  0.39950  Biso   1.000  C
  H183     1.0000 0.08790  0.45700  0.40160  Biso   1.000  H
  N125     1.0000 0.26410  0.81930  0.50120  Biso   1.000  N
  C550     1.0000 0.26900  0.78400  0.46000  Biso   1.000  C
  C551     1.0000 0.21970  0.72790  0.45600  Biso   1.000  C
  N126     1.0000 0.18040  0.73660  0.50080  Biso   1.000  N
  C552     1.0000 0.18400  0.66750  0.64120  Biso   1.000  C
  H184     1.0000 0.21350  0.67040  0.61730  Biso   1.000  H
  C553     1.0000 0.04850  0.66380  0.66290  Biso   1.000  C
  H185     1.0000 0.05240  0.69640  0.64170  Biso   1.000  H
  H186     1.0000 0.02180  0.62960  0.64240  Biso   1.000  H
  H187     1.0000 0.03500  0.66340  0.70270  Biso   1.000  H
  Br151    1.0000 0.08370  0.60130  0.26760  Biso   1.000  Br
  C554     1.0000 0.22900  0.78270  0.52860  Biso   1.000  C
  N127     1.0000 0.38640  0.04610  0.49190  Biso   1.000  N
  N128     1.0000 0.34120  0.95490  0.50980  Biso   1.000  N
  C555     1.0000 0.38850  0.00040  0.50130  Biso   1.000  C
  Br152    1.0000 0.21820  0.08530  0.56650  Biso   1.000  Br
  C556     1.0000 0.25190  0.03430  0.53500  Biso   1.000  C
  C557     1.0000 0.22110  0.97640  0.53900  Biso   1.000  C
  C558     1.0000 0.24660  0.94470  0.52950  Biso   1.000  C
  C559     1.0000 0.30290  0.97090  0.51500  Biso   1.000  C
  C560     1.0000 0.33370  0.02880  0.51000  Biso   1.000  C
  C561     1.0000 0.30820  0.06050  0.51970  Biso   1.000  C
  C562     1.0000 0.23420  0.82020  0.44800  Biso   1.000  C
  C563     1.0000 0.25610  0.84210  0.39310  Biso   1.000  C
  C564     1.0000 0.22310  0.82010  0.34340  Biso   1.000  C
  C565     1.0000 0.16820  0.77620  0.34850  Biso   1.000  C
  C566     1.0000 0.14620  0.75420  0.40330  Biso   1.000  C
  C567     1.0000 0.17900  0.77600  0.45310  Biso   1.000  C
  C568     1.0000 0.06900  0.53300  0.57600  Biso   1.000  C
  H188     1.0000 0.04450  0.49320  0.57010  Biso   1.000  H
  H189     1.0000 0.08740  0.54010  0.61420  Biso   1.000  H
  H190     1.0000 0.04730  0.55240  0.57390  Biso   1.000  H
  C569     1.0000 0.16430  0.60600  0.45900  Biso   1.000  C
  H191     1.0000 0.18790  0.63800  0.43660  Biso   1.000  H
  C570     1.0000 0.16320  0.56320  0.45700  Biso   1.000  C
  H192     1.0000 0.18710  0.55570  0.43300  Biso   1.000  H
  C571     1.0000 0.05670  0.75560  0.52510  Biso   1.000  C
  C572     1.0000 0.02970  0.69820  0.51620  Biso   1.000  C
  C573     1.0000 0.97170  0.66770  0.51230  Biso   1.000  C
  C574     1.0000 0.94090  0.69470  0.51730  Biso   1.000  C
  C575     1.0000 0.96790  0.75210  0.52620  Biso   1.000  C
  C576     1.0000 0.02580  0.78260  0.53010  Biso   1.000  C
  Br153    1.0000 0.93210  0.79220  0.53470  Biso   1.000  Br
  Br154    1.0000 0.05710  0.85730  0.53720  Biso   1.000  Br
  Br155    1.0000 0.06160  0.85780  0.48950  Biso   1.000  Br
  Br156    1.0000 0.93980  0.80030  0.49200  Biso   1.000  Br
  Br157    1.0000 0.07440  0.47410  0.27280  Biso   1.000  Br
  Br158    1.0000 0.12170  0.51240  0.23650  Biso   1.000  Br
  Br159    1.0000 0.22580  0.87890  0.36940  Biso   1.000  Br
  Br160    1.0000 0.21620  0.89600  0.29680  Biso   1.000  Br
  Zn33     1.0000 0.99937  0.21469  0.86599  Biso   1.000  Zn
  Zn34     1.0000 0.78529  0.00067  0.86615  Biso   1.000  Zn
  N129     1.0000 0.78927  0.93563  0.83483  Biso   1.000  N
  N130     1.0000 0.80127  0.99893  0.04543  Biso   1.000  N
  N131     1.0000 0.78337  0.85243  0.83533  Biso   1.000  N
  N132     1.0000 0.80127  0.99863  0.95373  Biso   1.000  N
  C577     1.0000 0.77647  0.88753  0.86553  Biso   1.000  C
  C578     1.0000 0.84917  0.99813  0.03303  Biso   1.000  C
  H193     1.0000 0.87477  0.99613  0.05913  Biso   1.000  H
  C579     1.0000 0.77537  0.00053  0.99943  Biso   1.000  C
  C580     1.0000 0.76407  0.85683  0.78273  Biso   1.000  C
  C581     1.0000 0.76317  0.90663  0.77973  Biso   1.000  C
  C582     1.0000 0.75217  0.92393  0.72663  Biso   1.000  C
  H194     1.0000 0.75157  0.95793  0.72453  Biso   1.000  H
  C583     1.0000 0.74217  0.89153  0.67673  Biso   1.000  C
  C584     1.0000 0.74307  0.84173  0.67973  Biso   1.000  C
  C585     1.0000 0.75407  0.82443  0.73283  Biso   1.000  C
  H195     1.0000 0.75457  0.79033  0.73493  Biso   1.000  H
  N133     1.0000 0.93077  0.15263  0.83453  Biso   1.000  N
  C586     1.0000 0.93567  0.11733  0.79333  Biso   1.000  C
  C587     1.0000 0.88637  0.06123  0.78933  Biso   1.000  C
  N134     1.0000 0.84707  0.06993  0.83413  Biso   1.000  N
  C588     1.0000 0.85067  0.00083  0.97453  Biso   1.000  C
  H196     1.0000 0.88017  0.00373  0.95063  Biso   1.000  H
  C589     1.0000 0.71517  0.99713  0.99623  Biso   1.000  C
  H197     1.0000 0.71907  0.02973  0.97503  Biso   1.000  H
  H198     1.0000 0.68847  0.96293  0.97573  Biso   1.000  H
  H199     1.0000 0.70167  0.99673  0.03603  Biso   1.000  H
  Br161    1.0000 0.75037  0.93463  0.60093  Biso   1.000  Br
  C590     1.0000 0.89567  0.11603  0.86193  Biso   1.000  C
  N135     1.0000 0.05307  0.37943  0.82523  Biso   1.000  N
  N136     1.0000 0.00787  0.28823  0.84313  Biso   1.000  N
  C591     1.0000 0.05517  0.33373  0.83463  Biso   1.000  C
  Br162    1.0000 0.88487  0.41863  0.89983  Biso   1.000  Br
  C592     1.0000 0.91857  0.36763  0.86833  Biso   1.000  C
  C593     1.0000 0.88777  0.30973  0.87233  Biso   1.000  C
  C594     1.0000 0.91327  0.27803  0.86283  Biso   1.000  C
  C595     1.0000 0.96957  0.30423  0.84833  Biso   1.000  C
  C596     1.0000 0.00037  0.36213  0.84333  Biso   1.000  C
  C597     1.0000 0.97487  0.39383  0.85303  Biso   1.000  C
  C598     1.0000 0.90087  0.15353  0.78133  Biso   1.000  C
  C599     1.0000 0.92277  0.17543  0.72643  Biso   1.000  C
  C600     1.0000 0.88977  0.15343  0.67673  Biso   1.000  C
  C601     1.0000 0.83487  0.10953  0.68183  Biso   1.000  C
  C602     1.0000 0.81287  0.08753  0.73663  Biso   1.000  C
  C603     1.0000 0.84567  0.10933  0.78643  Biso   1.000  C
  C604     1.0000 0.73567  0.86633  0.90933  Biso   1.000  C
  H200     1.0000 0.71117  0.82653  0.90343  Biso   1.000  H
  H201     1.0000 0.75407  0.87343  0.94753  Biso   1.000  H
  H202     1.0000 0.71397  0.88573  0.90723  Biso   1.000  H
  C605     1.0000 0.83097  0.93933  0.79233  Biso   1.000  C
  H203     1.0000 0.85457  0.97133  0.76993  Biso   1.000  H
  C606     1.0000 0.82987  0.89653  0.79033  Biso   1.000  C
  H204     1.0000 0.85377  0.88903  0.76633  Biso   1.000  H
  C607     1.0000 0.72337  0.08893  0.85843  Biso   1.000  C
  C608     1.0000 0.69637  0.03153  0.84953  Biso   1.000  C
  C609     1.0000 0.63837  0.00103  0.84563  Biso   1.000  C
  C610     1.0000 0.60757  0.02803  0.85063  Biso   1.000  C
  C611     1.0000 0.63457  0.08543  0.85953  Biso   1.000  C
  C612     1.0000 0.69247  0.11593  0.86343  Biso   1.000  C
  Br163    1.0000 0.59877  0.12553  0.86803  Biso   1.000  Br
  Br164    1.0000 0.72377  0.19063  0.87053  Biso   1.000  Br
  Br165    1.0000 0.72827  0.19113  0.82283  Biso   1.000  Br
  Br166    1.0000 0.60647  0.13363  0.82533  Biso   1.000  Br
  Br167    1.0000 0.74107  0.80743  0.60613  Biso   1.000  Br
  Br168    1.0000 0.78837  0.84573  0.56983  Biso   1.000  Br
  Br169    1.0000 0.89247  0.21223  0.70273  Biso   1.000  Br
  Br170    1.0000 0.88287  0.22933  0.63013  Biso   1.000  Br
  Zn35     1.0000 0.66603  0.54803  0.19933  Biso   1.000  Zn
  Zn36     1.0000 0.45195  0.33401  0.19949  Biso   1.000  Zn
  N137     1.0000 0.45593  0.26897  0.16817  Biso   1.000  N
  N138     1.0000 0.46793  0.33227  0.37877  Biso   1.000  N
  N139     1.0000 0.45003  0.18577  0.16867  Biso   1.000  N
  N140     1.0000 0.46793  0.33197  0.28707  Biso   1.000  N
  C613     1.0000 0.44313  0.22087  0.19887  Biso   1.000  C
  C614     1.0000 0.51583  0.33147  0.36637  Biso   1.000  C
  H205     1.0000 0.54143  0.32947  0.39247  Biso   1.000  H
  C615     1.0000 0.44203  0.33387  0.33277  Biso   1.000  C
  C616     1.0000 0.43073  0.19017  0.11607  Biso   1.000  C
  C617     1.0000 0.42983  0.23997  0.11307  Biso   1.000  C
  C618     1.0000 0.41883  0.25727  0.05997  Biso   1.000  C
  H206     1.0000 0.41823  0.29127  0.05787  Biso   1.000  H
  C619     1.0000 0.40883  0.22487  0.01007  Biso   1.000  C
  C620     1.0000 0.40973  0.17507  0.01307  Biso   1.000  C
  C621     1.0000 0.42073  0.15777  0.06617  Biso   1.000  C
  H207     1.0000 0.42123  0.12367  0.06827  Biso   1.000  H
  N141     1.0000 0.59743  0.48597  0.16787  Biso   1.000  N
  C622     1.0000 0.60233  0.45067  0.12667  Biso   1.000  C
  C623     1.0000 0.55303  0.39457  0.12267  Biso   1.000  C
  N142     1.0000 0.51373  0.40327  0.16747  Biso   1.000  N
  C624     1.0000 0.51733  0.33417  0.30787  Biso   1.000  C
  H208     1.0000 0.54683  0.33707  0.28397  Biso   1.000  H
  C625     1.0000 0.38183  0.33047  0.32957  Biso   1.000  C
  H209     1.0000 0.38573  0.36307  0.30837  Biso   1.000  H
  H210     1.0000 0.35513  0.29627  0.30907  Biso   1.000  H
  H211     1.0000 0.36833  0.33007  0.36937  Biso   1.000  H
  Br171    1.0000 0.41703  0.26797  0.93427  Biso   1.000  Br
  C626     1.0000 0.56233  0.44937  0.19527  Biso   1.000  C
  N143     1.0000 0.71973  0.71277  0.15857  Biso   1.000  N
  N144     1.0000 0.67453  0.62157  0.17647  Biso   1.000  N
  C627     1.0000 0.72183  0.66707  0.16797  Biso   1.000  C
  Br172    1.0000 0.55153  0.75197  0.23317  Biso   1.000  Br
  C628     1.0000 0.58523  0.70097  0.20167  Biso   1.000  C
  C629     1.0000 0.55443  0.64307  0.20567  Biso   1.000  C
  C630     1.0000 0.57993  0.61137  0.19617  Biso   1.000  C
  C631     1.0000 0.63623  0.63757  0.18167  Biso   1.000  C
  C632     1.0000 0.66703  0.69547  0.17667  Biso   1.000  C
  C633     1.0000 0.64153  0.72717  0.18637  Biso   1.000  C
  C634     1.0000 0.56753  0.48687  0.11467  Biso   1.000  C
  C635     1.0000 0.58943  0.50877  0.05977  Biso   1.000  C
  C636     1.0000 0.55643  0.48677  0.01007  Biso   1.000  C
  C637     1.0000 0.50153  0.44287  0.01517  Biso   1.000  C
  C638     1.0000 0.47953  0.42087  0.06997  Biso   1.000  C
  C639     1.0000 0.51233  0.44267  0.11977  Biso   1.000  C
  C640     1.0000 0.40233  0.19967  0.24267  Biso   1.000  C
  H212     1.0000 0.37783  0.15987  0.23677  Biso   1.000  H
  H213     1.0000 0.42073  0.20677  0.28087  Biso   1.000  H
  H214     1.0000 0.38063  0.21907  0.24057  Biso   1.000  H
  C641     1.0000 0.49763  0.27267  0.12567  Biso   1.000  C
  H215     1.0000 0.52123  0.30467  0.10327  Biso   1.000  H
  C642     1.0000 0.49653  0.22987  0.12367  Biso   1.000  C
  H216     1.0000 0.52043  0.22237  0.09967  Biso   1.000  H
  C643     1.0000 0.39003  0.42227  0.19177  Biso   1.000  C
  C644     1.0000 0.36303  0.36487  0.18287  Biso   1.000  C
  C645     1.0000 0.30503  0.33437  0.17897  Biso   1.000  C
  C646     1.0000 0.27423  0.36137  0.18397  Biso   1.000  C
  C647     1.0000 0.30123  0.41877  0.19287  Biso   1.000  C
  C648     1.0000 0.35913  0.44927  0.19677  Biso   1.000  C
  Br173    1.0000 0.26543  0.45887  0.20137  Biso   1.000  Br
  Br174    1.0000 0.39043  0.52397  0.20387  Biso   1.000  Br
  Br175    1.0000 0.39493  0.52447  0.15617  Biso   1.000  Br
  Br176    1.0000 0.27313  0.46697  0.15867  Biso   1.000  Br
  Br177    1.0000 0.40773  0.14077  0.93947  Biso   1.000  Br
  Br178    1.0000 0.45503  0.17907  0.90317  Biso   1.000  Br
  Br179    1.0000 0.55913  0.54557  0.03607  Biso   1.000  Br
  Br180    1.0000 0.54953  0.56267  0.96347  Biso   1.000  Br
