data_image0
_cell_length_a       27.653
_cell_length_b       27.653
_cell_length_c       22.9284
_cell_angle_alpha    90
_cell_angle_beta     90
_cell_angle_gamma    120

_symmetry_space_group_name_H-M    "P 1"
_symmetry_int_tables_number       1

loop_
  _symmetry_equiv_pos_as_xyz
  'x, y, z'

loop_
  _atom_site_label
  _atom_site_occupancy
  _atom_site_fract_x
  _atom_site_fract_y
  _atom_site_fract_z
  _atom_site_thermal_displace_type
  _atom_site_B_iso_or_equiv
  _atom_site_type_symbol
  Zn1      1.0000 0.54781  0.88152  0.29966  Biso   1.000  Zn
  Zn2      1.0000 0.54782  0.66634  0.29966  Biso   1.000  Zn
  N1       1.0000 0.40590  0.51310  0.32930  Biso   1.000  N
  N2       1.0000 0.48690  0.59450  0.33010  Biso   1.000  N
  C1       1.0000 0.55950  0.66760  0.16650  Biso   1.000  C
  N3       1.0000 0.52880  0.66600  0.21680  Biso   1.000  N
  C2       1.0000 0.47950  0.66530  0.19800  Biso   1.000  C
  H1       1.0000 0.45130  0.66420  0.22260  Biso   1.000  H
  C3       1.0000 0.47980  0.66650  0.13610  Biso   1.000  C
  H2       1.0000 0.45180  0.66630  0.11200  Biso   1.000  H
  N4       1.0000 0.52920  0.66790  0.11660  Biso   1.000  N
  C4       1.0000 0.44390  0.55680  0.30010  Biso   1.000  C
  H3       1.0000 0.44040  0.56090  0.25940  Biso   1.000  H
  N5       1.0000 0.71290  0.72190  0.34290  Biso   1.000  N
  N6       1.0000 0.62050  0.67620  0.32370  Biso   1.000  N
  C5       1.0000 0.63820  0.63790  0.32730  Biso   1.000  C
  C6       1.0000 0.47620  0.57280  0.38580  Biso   1.000  C
  C7       1.0000 0.42630  0.52210  0.38470  Biso   1.000  C
  C8       1.0000 0.69540  0.66580  0.33930  Biso   1.000  C
  C9       1.0000 0.66740  0.72490  0.33350  Biso   1.000  C
  H4       1.0000 0.66790  0.75940  0.33370  Biso   1.000  H
  C10      1.0000 0.40500  0.49090  0.43610  Biso   1.000  C
  H5       1.0000 0.37030  0.45690  0.43650  Biso   1.000  H
  C11      1.0000 0.50830  0.59460  0.43610  Biso   1.000  C
  H6       1.0000 0.54230  0.62930  0.43570  Biso   1.000  H
  C12      1.0000 0.43680  0.51170  0.48620  Biso   1.000  C
  C13      1.0000 0.48850  0.56360  0.48590  Biso   1.000  C
  C14      1.0000 0.49690  0.72390  0.36110  Biso   1.000  C
  N7       1.0000 0.53440  0.72350  0.32290  Biso   1.000  N
  N8       1.0000 0.53460  0.80600  0.32600  Biso   1.000  N
  C15      1.0000 0.49650  0.77450  0.36360  Biso   1.000  C
  C16      1.0000 0.41130  0.48140  0.54740  Biso   1.000  C
  H7       1.0000 0.37450  0.47780  0.55310  Biso   1.000  H
  H8       1.0000 0.43630  0.50370  0.57910  Biso   1.000  H
  H9       1.0000 0.40760  0.44430  0.54730  Biso   1.000  H
  C17      1.0000 0.60720  0.57930  0.32130  Biso   1.000  C
  H10      1.0000 0.56820  0.55990  0.31370  Biso   1.000  H
  C18      1.0000 0.72600  0.63880  0.34580  Biso   1.000  C
  H11      1.0000 0.76480  0.65840  0.35440  Biso   1.000  H
  C19      1.0000 0.63750  0.55180  0.32730  Biso   1.000  C
  C20      1.0000 0.69570  0.58090  0.33890  Biso   1.000  C
  C21      1.0000 0.60970  0.66090  0.16630  Biso   1.000  C
  H12      1.0000 0.64350  0.69760  0.16950  Biso   1.000  H
  H13      1.0000 0.61090  0.64300  0.12990  Biso   1.000  H
  H14      1.0000 0.60780  0.63760  0.19940  Biso   1.000  H
  C22      1.0000 0.54950  0.77460  0.30370  Biso   1.000  C
  C23      1.0000 0.61550  0.49150  0.32340  Biso   1.000  C
  H15      1.0000 0.57500  0.47240  0.31740  Biso   1.000  H
  H16      1.0000 0.62370  0.47820  0.35960  Biso   1.000  H
  H17      1.0000 0.63300  0.48350  0.29050  Biso   1.000  H
  C24      1.0000 0.60380  0.80210  0.25570  Biso   1.000  C
  H18      1.0000 0.63910  0.82270  0.27720  Biso   1.000  H
  H19      1.0000 0.59990  0.82760  0.22900  Biso   1.000  H
  H20      1.0000 0.60390  0.77190  0.23330  Biso   1.000  H
  C25      1.0000 0.57020  0.76020  0.38950  Biso   1.000  C
  C26      1.0000 0.56980  0.81030  0.38950  Biso   1.000  C
  C27      1.0000 0.58650  0.84390  0.43900  Biso   1.000  C
  H21      1.0000 0.58630  0.87810  0.43900  Biso   1.000  H
  C28      1.0000 0.60360  0.82730  0.48840  Biso   1.000  C
  C29      1.0000 0.60390  0.77730  0.48850  Biso   1.000  C
  C30      1.0000 0.58730  0.74370  0.43900  Biso   1.000  C
  H22      1.0000 0.58750  0.70950  0.43900  Biso   1.000  H
  C31      1.0000 0.49010  0.66860  0.16800  Biso   1.000  C
  H23      1.0000 0.45650  0.63160  0.16560  Biso   1.000  H
  H24      1.0000 0.49110  0.69130  0.13470  Biso   1.000  H
  H25      1.0000 0.48950  0.68690  0.20430  Biso   1.000  H
  C32      1.0000 0.53690  0.66280  0.16700  Biso   1.000  C
  N9       1.0000 0.56920  0.66580  0.21650  Biso   1.000  N
  C33      1.0000 0.62190  0.67560  0.19650  Biso   1.000  C
  H26      1.0000 0.65170  0.67940  0.22040  Biso   1.000  H
  C34      1.0000 0.62230  0.67860  0.13470  Biso   1.000  C
  H27      1.0000 0.65240  0.68480  0.10990  Biso   1.000  H
  N10      1.0000 0.56970  0.67070  0.11640  Biso   1.000  N
  N11      1.0000 0.54770  0.73550  0.33450  Biso   1.000  N
  N12      1.0000 0.54730  0.81610  0.33200  Biso   1.000  N
  C35      1.0000 0.71580  0.54230  0.33950  Biso   1.000  C
  H28      1.0000 0.75650  0.56270  0.33530  Biso   1.000  H
  H29      1.0000 0.69900  0.51600  0.30710  Biso   1.000  H
  H30      1.0000 0.70560  0.52180  0.37650  Biso   1.000  H
  O1       1.0000 0.66550  0.83290  0.39730  Biso   1.000  O
  C36      1.0000 0.61800  0.76400  0.53700  Biso   1.000  C
  C37      1.0000 0.61900  0.85000  0.54000  Biso   1.000  C
  C38      1.0000 0.69300  0.84670  0.51600  Biso   1.000  C
  C39      1.0000 0.63190  0.81580  0.42900  Biso   1.000  C
  N13      1.0000 0.63150  0.81610  0.48040  Biso   1.000  N
  C40      1.0000 0.51580  0.58540  0.54770  Biso   1.000  C
  H31      1.0000 0.55340  0.59040  0.54810  Biso   1.000  H
  H32      1.0000 0.49290  0.55820  0.57760  Biso   1.000  H
  H33      1.0000 0.51800  0.62130  0.55580  Biso   1.000  H
  Zn3      1.0000 0.21448  0.21485  0.63299  Biso   1.000  Zn
  Zn4      1.0000 0.21449  0.99967  0.63299  Biso   1.000  Zn
  N14      1.0000 0.07257  0.84643  0.66263  Biso   1.000  N
  N15      1.0000 0.15357  0.92783  0.66343  Biso   1.000  N
  C41      1.0000 0.22617  0.00093  0.49983  Biso   1.000  C
  N16      1.0000 0.19547  0.99933  0.55013  Biso   1.000  N
  C42      1.0000 0.14617  0.99863  0.53133  Biso   1.000  C
  H34      1.0000 0.11797  0.99753  0.55593  Biso   1.000  H
  C43      1.0000 0.14647  0.99983  0.46943  Biso   1.000  C
  H35      1.0000 0.11847  0.99963  0.44533  Biso   1.000  H
  N17      1.0000 0.19587  0.00123  0.44993  Biso   1.000  N
  C44      1.0000 0.11057  0.89013  0.63343  Biso   1.000  C
  H36      1.0000 0.10707  0.89423  0.59273  Biso   1.000  H
  N18      1.0000 0.37957  0.05523  0.67623  Biso   1.000  N
  N19      1.0000 0.28717  0.00953  0.65703  Biso   1.000  N
  C45      1.0000 0.30487  0.97123  0.66063  Biso   1.000  C
  C46      1.0000 0.14287  0.90613  0.71913  Biso   1.000  C
  C47      1.0000 0.09297  0.85543  0.71803  Biso   1.000  C
  C48      1.0000 0.36207  0.99913  0.67263  Biso   1.000  C
  C49      1.0000 0.33407  0.05823  0.66683  Biso   1.000  C
  H37      1.0000 0.33457  0.09273  0.66703  Biso   1.000  H
  C50      1.0000 0.07167  0.82423  0.76943  Biso   1.000  C
  H38      1.0000 0.03697  0.79023  0.76983  Biso   1.000  H
  C51      1.0000 0.17497  0.92793  0.76943  Biso   1.000  C
  H39      1.0000 0.20897  0.96263  0.76903  Biso   1.000  H
  C52      1.0000 0.10347  0.84503  0.81953  Biso   1.000  C
  C53      1.0000 0.15517  0.89693  0.81923  Biso   1.000  C
  C54      1.0000 0.16357  0.05723  0.69443  Biso   1.000  C
  N20      1.0000 0.20107  0.05683  0.65623  Biso   1.000  N
  N21      1.0000 0.20127  0.13933  0.65933  Biso   1.000  N
  C55      1.0000 0.16317  0.10783  0.69693  Biso   1.000  C
  C56      1.0000 0.07797  0.81473  0.88073  Biso   1.000  C
  H40      1.0000 0.04117  0.81113  0.88643  Biso   1.000  H
  H41      1.0000 0.10297  0.83703  0.91243  Biso   1.000  H
  H42      1.0000 0.07427  0.77763  0.88063  Biso   1.000  H
  C57      1.0000 0.27387  0.91263  0.65463  Biso   1.000  C
  H43      1.0000 0.23487  0.89323  0.64703  Biso   1.000  H
  C58      1.0000 0.39267  0.97213  0.67913  Biso   1.000  C
  H44      1.0000 0.43147  0.99173  0.68773  Biso   1.000  H
  C59      1.0000 0.30417  0.88513  0.66063  Biso   1.000  C
  C60      1.0000 0.36237  0.91423  0.67223  Biso   1.000  C
  C61      1.0000 0.27637  0.99423  0.49963  Biso   1.000  C
  H45      1.0000 0.31017  0.03093  0.50283  Biso   1.000  H
  H46      1.0000 0.27757  0.97633  0.46323  Biso   1.000  H
  H47      1.0000 0.27447  0.97093  0.53273  Biso   1.000  H
  C62      1.0000 0.21617  0.10793  0.63703  Biso   1.000  C
  C63      1.0000 0.28217  0.82483  0.65673  Biso   1.000  C
  H48      1.0000 0.24167  0.80573  0.65073  Biso   1.000  H
  H49      1.0000 0.29037  0.81153  0.69293  Biso   1.000  H
  H50      1.0000 0.29967  0.81683  0.62383  Biso   1.000  H
  C64      1.0000 0.27047  0.13543  0.58903  Biso   1.000  C
  H51      1.0000 0.30577  0.15603  0.61053  Biso   1.000  H
  H52      1.0000 0.26657  0.16093  0.56233  Biso   1.000  H
  H53      1.0000 0.27057  0.10523  0.56663  Biso   1.000  H
  C65      1.0000 0.23687  0.09353  0.72283  Biso   1.000  C
  C66      1.0000 0.23647  0.14363  0.72283  Biso   1.000  C
  C67      1.0000 0.25317  0.17723  0.77233  Biso   1.000  C
  H54      1.0000 0.25297  0.21143  0.77233  Biso   1.000  H
  C68      1.0000 0.27027  0.16063  0.82173  Biso   1.000  C
  C69      1.0000 0.27057  0.11063  0.82183  Biso   1.000  C
  C70      1.0000 0.25397  0.07703  0.77233  Biso   1.000  C
  H55      1.0000 0.25417  0.04283  0.77233  Biso   1.000  H
  C71      1.0000 0.15677  0.00193  0.50133  Biso   1.000  C
  H56      1.0000 0.12317  0.96493  0.49893  Biso   1.000  H
  H57      1.0000 0.15777  0.02463  0.46803  Biso   1.000  H
  H58      1.0000 0.15617  0.02023  0.53763  Biso   1.000  H
  C72      1.0000 0.20357  0.99613  0.50033  Biso   1.000  C
  N22      1.0000 0.23587  0.99913  0.54983  Biso   1.000  N
  C73      1.0000 0.28857  0.00893  0.52983  Biso   1.000  C
  H59      1.0000 0.31837  0.01273  0.55373  Biso   1.000  H
  C74      1.0000 0.28897  0.01193  0.46803  Biso   1.000  C
  H60      1.0000 0.31907  0.01813  0.44323  Biso   1.000  H
  N23      1.0000 0.23637  0.00403  0.44973  Biso   1.000  N
  N24      1.0000 0.21437  0.06883  0.66783  Biso   1.000  N
  N25      1.0000 0.21397  0.14943  0.66533  Biso   1.000  N
  C75      1.0000 0.38247  0.87563  0.67283  Biso   1.000  C
  H61      1.0000 0.42317  0.89603  0.66863  Biso   1.000  H
  H62      1.0000 0.36567  0.84933  0.64043  Biso   1.000  H
  H63      1.0000 0.37227  0.85513  0.70983  Biso   1.000  H
  O2       1.0000 0.33217  0.16623  0.73063  Biso   1.000  O
  C76      1.0000 0.28467  0.09733  0.87033  Biso   1.000  C
  C77      1.0000 0.28567  0.18333  0.87333  Biso   1.000  C
  C78      1.0000 0.35967  0.18003  0.84933  Biso   1.000  C
  C79      1.0000 0.29857  0.14913  0.76233  Biso   1.000  C
  N26      1.0000 0.29817  0.14943  0.81373  Biso   1.000  N
  C80      1.0000 0.18247  0.91873  0.88103  Biso   1.000  C
  H64      1.0000 0.22007  0.92373  0.88143  Biso   1.000  H
  H65      1.0000 0.15957  0.89153  0.91093  Biso   1.000  H
  H66      1.0000 0.18467  0.95463  0.88913  Biso   1.000  H
  Zn5      1.0000 0.88114  0.54819  0.96633  Biso   1.000  Zn
  Zn6      1.0000 0.88115  0.33301  0.96633  Biso   1.000  Zn
  N27      1.0000 0.73923  0.17977  0.99597  Biso   1.000  N
  N28      1.0000 0.82023  0.26117  0.99677  Biso   1.000  N
  C81      1.0000 0.89283  0.33427  0.83317  Biso   1.000  C
  N29      1.0000 0.86213  0.33267  0.88347  Biso   1.000  N
  C82      1.0000 0.81283  0.33197  0.86467  Biso   1.000  C
  H67      1.0000 0.78463  0.33087  0.88927  Biso   1.000  H
  C83      1.0000 0.81313  0.33317  0.80277  Biso   1.000  C
  H68      1.0000 0.78513  0.33297  0.77867  Biso   1.000  H
  N30      1.0000 0.86253  0.33457  0.78327  Biso   1.000  N
  C84      1.0000 0.77723  0.22347  0.96677  Biso   1.000  C
  H69      1.0000 0.77373  0.22757  0.92607  Biso   1.000  H
  N31      1.0000 0.04623  0.38857  0.00957  Biso   1.000  N
  N32      1.0000 0.95383  0.34287  0.99037  Biso   1.000  N
  C85      1.0000 0.97153  0.30457  0.99397  Biso   1.000  C
  C86      1.0000 0.80953  0.23947  0.05247  Biso   1.000  C
  C87      1.0000 0.75963  0.18877  0.05137  Biso   1.000  C
  C88      1.0000 0.02873  0.33247  0.00597  Biso   1.000  C
  C89      1.0000 0.00073  0.39157  0.00017  Biso   1.000  C
  H70      1.0000 0.00123  0.42607  0.00037  Biso   1.000  H
  C90      1.0000 0.73833  0.15757  0.10277  Biso   1.000  C
  H71      1.0000 0.70363  0.12357  0.10317  Biso   1.000  H
  C91      1.0000 0.84163  0.26127  0.10277  Biso   1.000  C
  H72      1.0000 0.87563  0.29597  0.10237  Biso   1.000  H
  C92      1.0000 0.77013  0.17837  0.15287  Biso   1.000  C
  C93      1.0000 0.82183  0.23027  0.15257  Biso   1.000  C
  C94      1.0000 0.83023  0.39057  0.02777  Biso   1.000  C
  N33      1.0000 0.86773  0.39017  0.98957  Biso   1.000  N
  N34      1.0000 0.86793  0.47267  0.99267  Biso   1.000  N
  C95      1.0000 0.82983  0.44117  0.03027  Biso   1.000  C
  C96      1.0000 0.74463  0.14807  0.21407  Biso   1.000  C
  H73      1.0000 0.70783  0.14447  0.21977  Biso   1.000  H
  H74      1.0000 0.76963  0.17037  0.24577  Biso   1.000  H
  H75      1.0000 0.74093  0.11097  0.21397  Biso   1.000  H
  C97      1.0000 0.94053  0.24597  0.98797  Biso   1.000  C
  H76      1.0000 0.90153  0.22657  0.98037  Biso   1.000  H
  C98      1.0000 0.05933  0.30547  0.01247  Biso   1.000  C
  H77      1.0000 0.09813  0.32507  0.02107  Biso   1.000  H
  C99      1.0000 0.97083  0.21847  0.99397  Biso   1.000  C
  C100     1.0000 0.02903  0.24757  0.00557  Biso   1.000  C
  C101     1.0000 0.94303  0.32757  0.83297  Biso   1.000  C
  H78      1.0000 0.97683  0.36427  0.83617  Biso   1.000  H
  H79      1.0000 0.94423  0.30967  0.79657  Biso   1.000  H
  H80      1.0000 0.94113  0.30427  0.86607  Biso   1.000  H
  C102     1.0000 0.88283  0.44127  0.97037  Biso   1.000  C
  C103     1.0000 0.94883  0.15817  0.99007  Biso   1.000  C
  H81      1.0000 0.90833  0.13907  0.98407  Biso   1.000  H
  H82      1.0000 0.95703  0.14487  0.02627  Biso   1.000  H
  H83      1.0000 0.96633  0.15017  0.95717  Biso   1.000  H
  C104     1.0000 0.93713  0.46877  0.92237  Biso   1.000  C
  H84      1.0000 0.97243  0.48937  0.94387  Biso   1.000  H
  H85      1.0000 0.93323  0.49427  0.89567  Biso   1.000  H
  H86      1.0000 0.93723  0.43857  0.89997  Biso   1.000  H
  C105     1.0000 0.90353  0.42687  0.05617  Biso   1.000  C
  C106     1.0000 0.90313  0.47697  0.05617  Biso   1.000  C
  C107     1.0000 0.91983  0.51057  0.10567  Biso   1.000  C
  H87      1.0000 0.91963  0.54477  0.10567  Biso   1.000  H
  C108     1.0000 0.93693  0.49397  0.15507  Biso   1.000  C
  C109     1.0000 0.93723  0.44397  0.15517  Biso   1.000  C
  C110     1.0000 0.92063  0.41037  0.10567  Biso   1.000  C
  H88      1.0000 0.92083  0.37617  0.10567  Biso   1.000  H
  C111     1.0000 0.82343  0.33527  0.83467  Biso   1.000  C
  H89      1.0000 0.78983  0.29827  0.83227  Biso   1.000  H
  H90      1.0000 0.82443  0.35797  0.80137  Biso   1.000  H
  H91      1.0000 0.82283  0.35357  0.87097  Biso   1.000  H
  C112     1.0000 0.87023  0.32947  0.83367  Biso   1.000  C
  N35      1.0000 0.90253  0.33247  0.88317  Biso   1.000  N
  C113     1.0000 0.95523  0.34227  0.86317  Biso   1.000  C
  H92      1.0000 0.98503  0.34607  0.88707  Biso   1.000  H
  C114     1.0000 0.95563  0.34527  0.80137  Biso   1.000  C
  H93      1.0000 0.98573  0.35147  0.77657  Biso   1.000  H
  N36      1.0000 0.90303  0.33737  0.78307  Biso   1.000  N
  N37      1.0000 0.88103  0.40217  0.00117  Biso   1.000  N
  N38      1.0000 0.88063  0.48277  0.99867  Biso   1.000  N
  C115     1.0000 0.04913  0.20897  0.00617  Biso   1.000  C
  H94      1.0000 0.08983  0.22937  0.00197  Biso   1.000  H
  H95      1.0000 0.03233  0.18267  0.97377  Biso   1.000  H
  H96      1.0000 0.03893  0.18847  0.04317  Biso   1.000  H
  O3       1.0000 0.99883  0.49957  0.06397  Biso   1.000  O
  C116     1.0000 0.95133  0.43067  0.20367  Biso   1.000  C
  C117     1.0000 0.95233  0.51667  0.20667  Biso   1.000  C
  C118     1.0000 0.02633  0.51337  0.18267  Biso   1.000  C
  C119     1.0000 0.96523  0.48247  0.09567  Biso   1.000  C
  N39      1.0000 0.96483  0.48277  0.14707  Biso   1.000  N
  C120     1.0000 0.84913  0.25207  0.21437  Biso   1.000  C
  H97      1.0000 0.88673  0.25707  0.21477  Biso   1.000  H
  H98      1.0000 0.82623  0.22487  0.24427  Biso   1.000  H
  H99      1.0000 0.85133  0.28797  0.22247  Biso   1.000  H
  Zn7      1.0000 0.11848  0.66629  0.29966  Biso   1.000  Zn
  Zn8      1.0000 0.33366  0.88148  0.29966  Biso   1.000  Zn
  N40      1.0000 0.48690  0.89280  0.32930  Biso   1.000  N
  N41      1.0000 0.40550  0.89240  0.33010  Biso   1.000  N
  C121     1.0000 0.33240  0.89190  0.16650  Biso   1.000  C
  N42      1.0000 0.33400  0.86280  0.21680  Biso   1.000  N
  C122     1.0000 0.33470  0.81420  0.19800  Biso   1.000  C
  H100     1.0000 0.33580  0.78710  0.22260  Biso   1.000  H
  C123     1.0000 0.33350  0.81330  0.13610  Biso   1.000  C
  H101     1.0000 0.33370  0.78550  0.11200  Biso   1.000  H
  N43      1.0000 0.33210  0.86130  0.11660  Biso   1.000  N
  C124     1.0000 0.44320  0.88710  0.30010  Biso   1.000  C
  H102     1.0000 0.43910  0.87950  0.25940  Biso   1.000  H
  N44      1.0000 0.27810  0.99100  0.34290  Biso   1.000  N
  N45      1.0000 0.32380  0.94430  0.32370  Biso   1.000  N
  C125     1.0000 0.36210  0.00030  0.32730  Biso   1.000  C
  C126     1.0000 0.42720  0.90340  0.38580  Biso   1.000  C
  C127     1.0000 0.47790  0.90420  0.38470  Biso   1.000  C
  C128     1.0000 0.33420  0.02960  0.33930  Biso   1.000  C
  C129     1.0000 0.27510  0.94250  0.33350  Biso   1.000  C
  H103     1.0000 0.24060  0.90850  0.33370  Biso   1.000  H
  C130     1.0000 0.50910  0.91410  0.43610  Biso   1.000  C
  H104     1.0000 0.54310  0.91340  0.43650  Biso   1.000  H
  C131     1.0000 0.40540  0.91370  0.43610  Biso   1.000  C
  H105     1.0000 0.37070  0.91300  0.43570  Biso   1.000  H
  C132     1.0000 0.48830  0.92510  0.48620  Biso   1.000  C
  C133     1.0000 0.43640  0.92490  0.48590  Biso   1.000  C
  C134     1.0000 0.27610  0.77300  0.36110  Biso   1.000  C
  N46      1.0000 0.27650  0.81090  0.32290  Biso   1.000  N
  N47      1.0000 0.19400  0.72860  0.32600  Biso   1.000  N
  C135     1.0000 0.22550  0.72200  0.36360  Biso   1.000  C
  C136     1.0000 0.51860  0.92990  0.54740  Biso   1.000  C
  H106     1.0000 0.52220  0.89670  0.55310  Biso   1.000  H
  H107     1.0000 0.49630  0.93260  0.57910  Biso   1.000  H
  H108     1.0000 0.55570  0.96330  0.54730  Biso   1.000  H
  C137     1.0000 0.42070  0.02790  0.32130  Biso   1.000  C
  H109     1.0000 0.44010  0.00830  0.31370  Biso   1.000  H
  C138     1.0000 0.36120  0.08720  0.34580  Biso   1.000  C
  H110     1.0000 0.34160  0.10640  0.35440  Biso   1.000  H
  C139     1.0000 0.44820  0.08570  0.32730  Biso   1.000  C
  C140     1.0000 0.41910  0.11480  0.33890  Biso   1.000  C
  C141     1.0000 0.33910  0.94880  0.16630  Biso   1.000  C
  H111     1.0000 0.30240  0.94590  0.16950  Biso   1.000  H
  H112     1.0000 0.35700  0.96790  0.12990  Biso   1.000  H
  H113     1.0000 0.36240  0.97020  0.19940  Biso   1.000  H
  C142     1.0000 0.22540  0.77490  0.30370  Biso   1.000  C
  C143     1.0000 0.50850  0.12400  0.32340  Biso   1.000  C
  H114     1.0000 0.52760  0.10260  0.31740  Biso   1.000  H
  H115     1.0000 0.52180  0.14550  0.35960  Biso   1.000  H
  H116     1.0000 0.51650  0.14950  0.29050  Biso   1.000  H
  C144     1.0000 0.19790  0.80170  0.25570  Biso   1.000  C
  H117     1.0000 0.17730  0.81640  0.27720  Biso   1.000  H
  H118     1.0000 0.17240  0.77230  0.22900  Biso   1.000  H
  H119     1.0000 0.22810  0.83200  0.23330  Biso   1.000  H
  C145     1.0000 0.23980  0.81000  0.38950  Biso   1.000  C
  C146     1.0000 0.18970  0.75950  0.38950  Biso   1.000  C
  C147     1.0000 0.15610  0.74260  0.43900  Biso   1.000  C
  H120     1.0000 0.12190  0.70820  0.43900  Biso   1.000  H
  C148     1.0000 0.17270  0.77630  0.48840  Biso   1.000  C
  C149     1.0000 0.22270  0.82660  0.48850  Biso   1.000  C
  C150     1.0000 0.25630  0.84360  0.43900  Biso   1.000  C
  H121     1.0000 0.29050  0.87800  0.43900  Biso   1.000  H
  C151     1.0000 0.33140  0.82150  0.16800  Biso   1.000  C
  H122     1.0000 0.36840  0.82490  0.16560  Biso   1.000  H
  H123     1.0000 0.30870  0.79980  0.13470  Biso   1.000  H
  H124     1.0000 0.31310  0.80260  0.20430  Biso   1.000  H
  C152     1.0000 0.33720  0.87410  0.16700  Biso   1.000  C
  N48      1.0000 0.33420  0.90340  0.21650  Biso   1.000  N
  C153     1.0000 0.32440  0.94630  0.19650  Biso   1.000  C
  H125     1.0000 0.32060  0.97230  0.22040  Biso   1.000  H
  C154     1.0000 0.32140  0.94370  0.13470  Biso   1.000  C
  H126     1.0000 0.31520  0.96760  0.10990  Biso   1.000  H
  N49      1.0000 0.32930  0.89900  0.11640  Biso   1.000  N
  N50      1.0000 0.26450  0.81220  0.33450  Biso   1.000  N
  N51      1.0000 0.18390  0.73120  0.33200  Biso   1.000  N
  C155     1.0000 0.45770  0.17350  0.33950  Biso   1.000  C
  H127     1.0000 0.43730  0.19380  0.33530  Biso   1.000  H
  H128     1.0000 0.48400  0.18300  0.30710  Biso   1.000  H
  H129     1.0000 0.47820  0.18380  0.37650  Biso   1.000  H
  O4       1.0000 0.16710  0.83260  0.39730  Biso   1.000  O
  C156     1.0000 0.23600  0.85400  0.53700  Biso   1.000  C
  C157     1.0000 0.15000  0.76900  0.54000  Biso   1.000  C
  C158     1.0000 0.15330  0.84630  0.51600  Biso   1.000  C
  C159     1.0000 0.18420  0.81610  0.42900  Biso   1.000  C
  N52      1.0000 0.18390  0.81540  0.48040  Biso   1.000  N
  C160     1.0000 0.41460  0.93040  0.54770  Biso   1.000  C
  H130     1.0000 0.40960  0.96300  0.54810  Biso   1.000  H
  H131     1.0000 0.44180  0.93470  0.57760  Biso   1.000  H
  H132     1.0000 0.37870  0.89670  0.55580  Biso   1.000  H
  Zn9      1.0000 0.78515  0.99962  0.63299  Biso   1.000  Zn
  Zn10     1.0000 0.00033  0.21481  0.63299  Biso   1.000  Zn
  N53      1.0000 0.15357  0.22613  0.66263  Biso   1.000  N
  N54      1.0000 0.07217  0.22573  0.66343  Biso   1.000  N
  C161     1.0000 0.99907  0.22523  0.49983  Biso   1.000  C
  N55      1.0000 0.00067  0.19613  0.55013  Biso   1.000  N
  C162     1.0000 0.00137  0.14753  0.53133  Biso   1.000  C
  H133     1.0000 0.00247  0.12043  0.55593  Biso   1.000  H
  C163     1.0000 0.00017  0.14663  0.46943  Biso   1.000  C
  H134     1.0000 0.00037  0.11883  0.44533  Biso   1.000  H
  N56      1.0000 0.99877  0.19463  0.44993  Biso   1.000  N
  C164     1.0000 0.10987  0.22043  0.63343  Biso   1.000  C
  H135     1.0000 0.10577  0.21283  0.59273  Biso   1.000  H
  N57      1.0000 0.94477  0.32433  0.67623  Biso   1.000  N
  N58      1.0000 0.99047  0.27763  0.65703  Biso   1.000  N
  C165     1.0000 0.02877  0.33363  0.66063  Biso   1.000  C
  C166     1.0000 0.09387  0.23673  0.71913  Biso   1.000  C
  C167     1.0000 0.14457  0.23753  0.71803  Biso   1.000  C
  C168     1.0000 0.00087  0.36293  0.67263  Biso   1.000  C
  C169     1.0000 0.94177  0.27583  0.66683  Biso   1.000  C
  H136     1.0000 0.90727  0.24183  0.66703  Biso   1.000  H
  C170     1.0000 0.17577  0.24743  0.76943  Biso   1.000  C
  H137     1.0000 0.20977  0.24673  0.76983  Biso   1.000  H
  C171     1.0000 0.07207  0.24703  0.76943  Biso   1.000  C
  H138     1.0000 0.03737  0.24633  0.76903  Biso   1.000  H
  C172     1.0000 0.15497  0.25843  0.81953  Biso   1.000  C
  C173     1.0000 0.10307  0.25823  0.81923  Biso   1.000  C
  C174     1.0000 0.94277  0.10633  0.69443  Biso   1.000  C
  N59      1.0000 0.94317  0.14423  0.65623  Biso   1.000  N
  N60      1.0000 0.86067  0.06193  0.65933  Biso   1.000  N
  C175     1.0000 0.89217  0.05533  0.69693  Biso   1.000  C
  C176     1.0000 0.18527  0.26323  0.88073  Biso   1.000  C
  H139     1.0000 0.18887  0.23003  0.88643  Biso   1.000  H
  H140     1.0000 0.16297  0.26593  0.91243  Biso   1.000  H
  H141     1.0000 0.22237  0.29663  0.88063  Biso   1.000  H
  C177     1.0000 0.08737  0.36123  0.65463  Biso   1.000  C
  H142     1.0000 0.10677  0.34163  0.64703  Biso   1.000  H
  C178     1.0000 0.02787  0.42053  0.67913  Biso   1.000  C
  H143     1.0000 0.00827  0.43973  0.68773  Biso   1.000  H
  C179     1.0000 0.11487  0.41903  0.66063  Biso   1.000  C
  C180     1.0000 0.08577  0.44813  0.67223  Biso   1.000  C
  C181     1.0000 0.00577  0.28213  0.49963  Biso   1.000  C
  H144     1.0000 0.96907  0.27923  0.50283  Biso   1.000  H
  H145     1.0000 0.02367  0.30123  0.46323  Biso   1.000  H
  H146     1.0000 0.02907  0.30353  0.53273  Biso   1.000  H
  C182     1.0000 0.89207  0.10823  0.63703  Biso   1.000  C
  C183     1.0000 0.17517  0.45733  0.65673  Biso   1.000  C
  H147     1.0000 0.19427  0.43593  0.65073  Biso   1.000  H
  H148     1.0000 0.18847  0.47883  0.69293  Biso   1.000  H
  H149     1.0000 0.18317  0.48283  0.62383  Biso   1.000  H
  C184     1.0000 0.86457  0.13503  0.58903  Biso   1.000  C
  H150     1.0000 0.84397  0.14973  0.61053  Biso   1.000  H
  H151     1.0000 0.83907  0.10563  0.56233  Biso   1.000  H
  H152     1.0000 0.89477  0.16533  0.56663  Biso   1.000  H
  C185     1.0000 0.90647  0.14333  0.72283  Biso   1.000  C
  C186     1.0000 0.85637  0.09283  0.72283  Biso   1.000  C
  C187     1.0000 0.82277  0.07593  0.77233  Biso   1.000  C
  H153     1.0000 0.78857  0.04153  0.77233  Biso   1.000  H
  C188     1.0000 0.83937  0.10963  0.82173  Biso   1.000  C
  C189     1.0000 0.88937  0.15993  0.82183  Biso   1.000  C
  C190     1.0000 0.92297  0.17693  0.77233  Biso   1.000  C
  H154     1.0000 0.95717  0.21133  0.77233  Biso   1.000  H
  C191     1.0000 0.99807  0.15483  0.50133  Biso   1.000  C
  H155     1.0000 0.03507  0.15823  0.49893  Biso   1.000  H
  H156     1.0000 0.97537  0.13313  0.46803  Biso   1.000  H
  H157     1.0000 0.97977  0.13593  0.53763  Biso   1.000  H
  C192     1.0000 0.00387  0.20743  0.50033  Biso   1.000  C
  N61      1.0000 0.00087  0.23673  0.54983  Biso   1.000  N
  C193     1.0000 0.99107  0.27963  0.52983  Biso   1.000  C
  H158     1.0000 0.98727  0.30563  0.55373  Biso   1.000  H
  C194     1.0000 0.98807  0.27703  0.46803  Biso   1.000  C
  H159     1.0000 0.98187  0.30093  0.44323  Biso   1.000  H
  N62      1.0000 0.99597  0.23233  0.44973  Biso   1.000  N
  N63      1.0000 0.93117  0.14553  0.66783  Biso   1.000  N
  N64      1.0000 0.85057  0.06453  0.66533  Biso   1.000  N
  C195     1.0000 0.12437  0.50683  0.67283  Biso   1.000  C
  H160     1.0000 0.10397  0.52713  0.66863  Biso   1.000  H
  H161     1.0000 0.15067  0.51633  0.64043  Biso   1.000  H
  H162     1.0000 0.14487  0.51713  0.70983  Biso   1.000  H
  O5       1.0000 0.83377  0.16593  0.73063  Biso   1.000  O
  C196     1.0000 0.90267  0.18733  0.87033  Biso   1.000  C
  C197     1.0000 0.81667  0.10233  0.87333  Biso   1.000  C
  C198     1.0000 0.81997  0.17963  0.84933  Biso   1.000  C
  C199     1.0000 0.85087  0.14943  0.76233  Biso   1.000  C
  N65      1.0000 0.85057  0.14873  0.81373  Biso   1.000  N
  C200     1.0000 0.08127  0.26373  0.88103  Biso   1.000  C
  H163     1.0000 0.07627  0.29633  0.88143  Biso   1.000  H
  H164     1.0000 0.10847  0.26803  0.91093  Biso   1.000  H
  H165     1.0000 0.04537  0.23003  0.88913  Biso   1.000  H
  Zn11     1.0000 0.45181  0.33296  0.96633  Biso   1.000  Zn
  Zn12     1.0000 0.66699  0.54815  0.96633  Biso   1.000  Zn
  N66      1.0000 0.82023  0.55947  0.99597  Biso   1.000  N
  N67      1.0000 0.73883  0.55907  0.99677  Biso   1.000  N
  C201     1.0000 0.66573  0.55857  0.83317  Biso   1.000  C
  N68      1.0000 0.66733  0.52947  0.88347  Biso   1.000  N
  C202     1.0000 0.66803  0.48087  0.86467  Biso   1.000  C
  H166     1.0000 0.66913  0.45377  0.88927  Biso   1.000  H
  C203     1.0000 0.66683  0.47997  0.80277  Biso   1.000  C
  H167     1.0000 0.66703  0.45217  0.77867  Biso   1.000  H
  N69      1.0000 0.66543  0.52797  0.78327  Biso   1.000  N
  C204     1.0000 0.77653  0.55377  0.96677  Biso   1.000  C
  H168     1.0000 0.77243  0.54617  0.92607  Biso   1.000  H
  N70      1.0000 0.61143  0.65767  0.00957  Biso   1.000  N
  N71      1.0000 0.65713  0.61097  0.99037  Biso   1.000  N
  C205     1.0000 0.69543  0.66697  0.99397  Biso   1.000  C
  C206     1.0000 0.76053  0.57007  0.05247  Biso   1.000  C
  C207     1.0000 0.81123  0.57087  0.05137  Biso   1.000  C
  C208     1.0000 0.66753  0.69627  0.00597  Biso   1.000  C
  C209     1.0000 0.60843  0.60917  0.00017  Biso   1.000  C
  H169     1.0000 0.57393  0.57517  0.00037  Biso   1.000  H
  C210     1.0000 0.84243  0.58077  0.10277  Biso   1.000  C
  H170     1.0000 0.87643  0.58007  0.10317  Biso   1.000  H
  C211     1.0000 0.73873  0.58037  0.10277  Biso   1.000  C
  H171     1.0000 0.70403  0.57967  0.10237  Biso   1.000  H
  C212     1.0000 0.82163  0.59177  0.15287  Biso   1.000  C
  C213     1.0000 0.76973  0.59157  0.15257  Biso   1.000  C
  C214     1.0000 0.60943  0.43967  0.02777  Biso   1.000  C
  N72      1.0000 0.60983  0.47757  0.98957  Biso   1.000  N
  N73      1.0000 0.52733  0.39527  0.99267  Biso   1.000  N
  C215     1.0000 0.55883  0.38867  0.03027  Biso   1.000  C
  C216     1.0000 0.85193  0.59657  0.21407  Biso   1.000  C
  H172     1.0000 0.85553  0.56337  0.21977  Biso   1.000  H
  H173     1.0000 0.82963  0.59927  0.24577  Biso   1.000  H
  H174     1.0000 0.88903  0.62997  0.21397  Biso   1.000  H
  C217     1.0000 0.75403  0.69457  0.98797  Biso   1.000  C
  H175     1.0000 0.77343  0.67497  0.98037  Biso   1.000  H
  C218     1.0000 0.69453  0.75387  0.01247  Biso   1.000  C
  H176     1.0000 0.67493  0.77307  0.02107  Biso   1.000  H
  C219     1.0000 0.78153  0.75237  0.99397  Biso   1.000  C
  C220     1.0000 0.75243  0.78147  0.00557  Biso   1.000  C
  C221     1.0000 0.67243  0.61547  0.83297  Biso   1.000  C
  H177     1.0000 0.63573  0.61257  0.83617  Biso   1.000  H
  H178     1.0000 0.69033  0.63457  0.79657  Biso   1.000  H
  H179     1.0000 0.69573  0.63687  0.86607  Biso   1.000  H
  C222     1.0000 0.55873  0.44157  0.97037  Biso   1.000  C
  C223     1.0000 0.84183  0.79067  0.99007  Biso   1.000  C
  H180     1.0000 0.86093  0.76927  0.98407  Biso   1.000  H
  H181     1.0000 0.85513  0.81217  0.02627  Biso   1.000  H
  H182     1.0000 0.84983  0.81617  0.95717  Biso   1.000  H
  C224     1.0000 0.53123  0.46837  0.92237  Biso   1.000  C
  H183     1.0000 0.51063  0.48307  0.94387  Biso   1.000  H
  H184     1.0000 0.50573  0.43897  0.89567  Biso   1.000  H
  H185     1.0000 0.56143  0.49867  0.89997  Biso   1.000  H
  C225     1.0000 0.57313  0.47667  0.05617  Biso   1.000  C
  C226     1.0000 0.52303  0.42617  0.05617  Biso   1.000  C
  C227     1.0000 0.48943  0.40927  0.10567  Biso   1.000  C
  H186     1.0000 0.45523  0.37487  0.10567  Biso   1.000  H
  C228     1.0000 0.50603  0.44297  0.15507  Biso   1.000  C
  C229     1.0000 0.55603  0.49327  0.15517  Biso   1.000  C
  C230     1.0000 0.58963  0.51027  0.10567  Biso   1.000  C
  H187     1.0000 0.62383  0.54467  0.10567  Biso   1.000  H
  C231     1.0000 0.66473  0.48817  0.83467  Biso   1.000  C
  H188     1.0000 0.70173  0.49157  0.83227  Biso   1.000  H
  H189     1.0000 0.64203  0.46647  0.80137  Biso   1.000  H
  H190     1.0000 0.64643  0.46927  0.87097  Biso   1.000  H
  C232     1.0000 0.67053  0.54077  0.83367  Biso   1.000  C
  N74      1.0000 0.66753  0.57007  0.88317  Biso   1.000  N
  C233     1.0000 0.65773  0.61297  0.86317  Biso   1.000  C
  H191     1.0000 0.65393  0.63897  0.88707  Biso   1.000  H
  C234     1.0000 0.65473  0.61037  0.80137  Biso   1.000  C
  H192     1.0000 0.64853  0.63427  0.77657  Biso   1.000  H
  N75      1.0000 0.66263  0.56567  0.78307  Biso   1.000  N
  N76      1.0000 0.59783  0.47887  0.00117  Biso   1.000  N
  N77      1.0000 0.51723  0.39787  0.99867  Biso   1.000  N
  C235     1.0000 0.79103  0.84017  0.00617  Biso   1.000  C
  H193     1.0000 0.77063  0.86047  0.00197  Biso   1.000  H
  H194     1.0000 0.81733  0.84967  0.97377  Biso   1.000  H
  H195     1.0000 0.81153  0.85047  0.04317  Biso   1.000  H
  O6       1.0000 0.50043  0.49927  0.06397  Biso   1.000  O
  C236     1.0000 0.56933  0.52067  0.20367  Biso   1.000  C
  C237     1.0000 0.48333  0.43567  0.20667  Biso   1.000  C
  C238     1.0000 0.48663  0.51297  0.18267  Biso   1.000  C
  C239     1.0000 0.51753  0.48277  0.09567  Biso   1.000  C
  N78      1.0000 0.51723  0.48207  0.14707  Biso   1.000  N
  C240     1.0000 0.74793  0.59707  0.21437  Biso   1.000  C
  H196     1.0000 0.74293  0.62967  0.21477  Biso   1.000  H
  H197     1.0000 0.77513  0.60137  0.24427  Biso   1.000  H
  H198     1.0000 0.71203  0.56337  0.22247  Biso   1.000  H
  Zn13     1.0000 0.33371  0.45219  0.29966  Biso   1.000  Zn
  Zn14     1.0000 0.11852  0.45218  0.29966  Biso   1.000  Zn
  N79      1.0000 0.10720  0.59410  0.32930  Biso   1.000  N
  N80      1.0000 0.10760  0.51310  0.33010  Biso   1.000  N
  C241     1.0000 0.10810  0.44050  0.16650  Biso   1.000  C
  N81      1.0000 0.13720  0.47120  0.21680  Biso   1.000  N
  C242     1.0000 0.18580  0.52050  0.19800  Biso   1.000  C
  H199     1.0000 0.21290  0.54870  0.22260  Biso   1.000  H
  C243     1.0000 0.18670  0.52020  0.13610  Biso   1.000  C
  H200     1.0000 0.21450  0.54820  0.11200  Biso   1.000  H
  N82      1.0000 0.13870  0.47080  0.11660  Biso   1.000  N
  C244     1.0000 0.11290  0.55610  0.30010  Biso   1.000  C
  H201     1.0000 0.12050  0.55960  0.25940  Biso   1.000  H
  N83      1.0000 0.00900  0.28710  0.34290  Biso   1.000  N
  N84      1.0000 0.05570  0.37950  0.32370  Biso   1.000  N
  C245     1.0000 0.99970  0.36180  0.32730  Biso   1.000  C
  C246     1.0000 0.09660  0.52380  0.38580  Biso   1.000  C
  C247     1.0000 0.09580  0.57370  0.38470  Biso   1.000  C
  C248     1.0000 0.97040  0.30460  0.33930  Biso   1.000  C
  C249     1.0000 0.05750  0.33260  0.33350  Biso   1.000  C
  H202     1.0000 0.09150  0.33210  0.33370  Biso   1.000  H
  C250     1.0000 0.08590  0.59500  0.43610  Biso   1.000  C
  H203     1.0000 0.08660  0.62970  0.43650  Biso   1.000  H
  C251     1.0000 0.08630  0.49170  0.43610  Biso   1.000  C
  H204     1.0000 0.08700  0.45770  0.43570  Biso   1.000  H
  C252     1.0000 0.07490  0.56320  0.48620  Biso   1.000  C
  C253     1.0000 0.07510  0.51150  0.48590  Biso   1.000  C
  C254     1.0000 0.22700  0.50310  0.36110  Biso   1.000  C
  N85      1.0000 0.18910  0.46560  0.32290  Biso   1.000  N
  N86      1.0000 0.27140  0.46540  0.32600  Biso   1.000  N
  C255     1.0000 0.27800  0.50350  0.36360  Biso   1.000  C
  C256     1.0000 0.07010  0.58870  0.54740  Biso   1.000  C
  H205     1.0000 0.10330  0.62550  0.55310  Biso   1.000  H
  H206     1.0000 0.06740  0.56370  0.57910  Biso   1.000  H
  H207     1.0000 0.03670  0.59240  0.54730  Biso   1.000  H
  C257     1.0000 0.97210  0.39280  0.32130  Biso   1.000  C
  H208     1.0000 0.99170  0.43180  0.31370  Biso   1.000  H
  C258     1.0000 0.91280  0.27400  0.34580  Biso   1.000  C
  H209     1.0000 0.89360  0.23520  0.35440  Biso   1.000  H
  C259     1.0000 0.91430  0.36250  0.32730  Biso   1.000  C
  C260     1.0000 0.88520  0.30430  0.33890  Biso   1.000  C
  C261     1.0000 0.05120  0.39030  0.16630  Biso   1.000  C
  H210     1.0000 0.05410  0.35650  0.16950  Biso   1.000  H
  H211     1.0000 0.03210  0.38910  0.12990  Biso   1.000  H
  H212     1.0000 0.02980  0.39220  0.19940  Biso   1.000  H
  C262     1.0000 0.22510  0.45050  0.30370  Biso   1.000  C
  C263     1.0000 0.87600  0.38450  0.32340  Biso   1.000  C
  H213     1.0000 0.89740  0.42500  0.31740  Biso   1.000  H
  H214     1.0000 0.85450  0.37630  0.35960  Biso   1.000  H
  H215     1.0000 0.85050  0.36700  0.29050  Biso   1.000  H
  C264     1.0000 0.19830  0.39620  0.25570  Biso   1.000  C
  H216     1.0000 0.18360  0.36090  0.27720  Biso   1.000  H
  H217     1.0000 0.22770  0.40010  0.22900  Biso   1.000  H
  H218     1.0000 0.16800  0.39610  0.23330  Biso   1.000  H
  C265     1.0000 0.19000  0.42980  0.38950  Biso   1.000  C
  C266     1.0000 0.24050  0.43020  0.38950  Biso   1.000  C
  C267     1.0000 0.25740  0.41350  0.43900  Biso   1.000  C
  H219     1.0000 0.29180  0.41370  0.43900  Biso   1.000  H
  C268     1.0000 0.22370  0.39640  0.48840  Biso   1.000  C
  C269     1.0000 0.17340  0.39610  0.48850  Biso   1.000  C
  C270     1.0000 0.15640  0.41270  0.43900  Biso   1.000  C
  H220     1.0000 0.12200  0.41250  0.43900  Biso   1.000  H
  C271     1.0000 0.17850  0.50990  0.16800  Biso   1.000  C
  H221     1.0000 0.17510  0.54350  0.16560  Biso   1.000  H
  H222     1.0000 0.20020  0.50890  0.13470  Biso   1.000  H
  H223     1.0000 0.19740  0.51050  0.20430  Biso   1.000  H
  C272     1.0000 0.12590  0.46310  0.16700  Biso   1.000  C
  N87      1.0000 0.09660  0.43080  0.21650  Biso   1.000  N
  C273     1.0000 0.05370  0.37810  0.19650  Biso   1.000  C
  H224     1.0000 0.02770  0.34830  0.22040  Biso   1.000  H
  C274     1.0000 0.05630  0.37770  0.13470  Biso   1.000  C
  H225     1.0000 0.03240  0.34760  0.10990  Biso   1.000  H
  N88      1.0000 0.10100  0.43030  0.11640  Biso   1.000  N
  N89      1.0000 0.18780  0.45230  0.33450  Biso   1.000  N
  N90      1.0000 0.26880  0.45270  0.33200  Biso   1.000  N
  C275     1.0000 0.82650  0.28420  0.33950  Biso   1.000  C
  H226     1.0000 0.80620  0.24350  0.33530  Biso   1.000  H
  H227     1.0000 0.81700  0.30100  0.30710  Biso   1.000  H
  H228     1.0000 0.81620  0.29440  0.37650  Biso   1.000  H
  O7       1.0000 0.16740  0.33450  0.39730  Biso   1.000  O
  C276     1.0000 0.14600  0.38200  0.53700  Biso   1.000  C
  C277     1.0000 0.23100  0.38100  0.54000  Biso   1.000  C
  C278     1.0000 0.15370  0.30700  0.51600  Biso   1.000  C
  C279     1.0000 0.18390  0.36810  0.42900  Biso   1.000  C
  N91      1.0000 0.18460  0.36850  0.48040  Biso   1.000  N
  C280     1.0000 0.06960  0.48420  0.54770  Biso   1.000  C
  H229     1.0000 0.03700  0.44660  0.54810  Biso   1.000  H
  H230     1.0000 0.06530  0.50710  0.57760  Biso   1.000  H
  H231     1.0000 0.10330  0.48200  0.55580  Biso   1.000  H
  Zn15     1.0000 0.00038  0.78552  0.63299  Biso   1.000  Zn
  Zn16     1.0000 0.78519  0.78551  0.63299  Biso   1.000  Zn
  N92      1.0000 0.77387  0.92743  0.66263  Biso   1.000  N
  N93      1.0000 0.77427  0.84643  0.66343  Biso   1.000  N
  C281     1.0000 0.77477  0.77383  0.49983  Biso   1.000  C
  N94      1.0000 0.80387  0.80453  0.55013  Biso   1.000  N
  C282     1.0000 0.85247  0.85383  0.53133  Biso   1.000  C
  H232     1.0000 0.87957  0.88203  0.55593  Biso   1.000  H
  C283     1.0000 0.85337  0.85353  0.46943  Biso   1.000  C
  H233     1.0000 0.88117  0.88153  0.44533  Biso   1.000  H
  N95      1.0000 0.80537  0.80413  0.44993  Biso   1.000  N
  C284     1.0000 0.77957  0.88943  0.63343  Biso   1.000  C
  H234     1.0000 0.78717  0.89293  0.59273  Biso   1.000  H
  N96      1.0000 0.67567  0.62043  0.67623  Biso   1.000  N
  N97      1.0000 0.72237  0.71283  0.65703  Biso   1.000  N
  C285     1.0000 0.66637  0.69513  0.66063  Biso   1.000  C
  C286     1.0000 0.76327  0.85713  0.71913  Biso   1.000  C
  C287     1.0000 0.76247  0.90703  0.71803  Biso   1.000  C
  C288     1.0000 0.63707  0.63793  0.67263  Biso   1.000  C
  C289     1.0000 0.72417  0.66593  0.66683  Biso   1.000  C
  H235     1.0000 0.75817  0.66543  0.66703  Biso   1.000  H
  C290     1.0000 0.75257  0.92833  0.76943  Biso   1.000  C
  H236     1.0000 0.75327  0.96303  0.76983  Biso   1.000  H
  C291     1.0000 0.75297  0.82503  0.76943  Biso   1.000  C
  H237     1.0000 0.75367  0.79103  0.76903  Biso   1.000  H
  C292     1.0000 0.74157  0.89653  0.81953  Biso   1.000  C
  C293     1.0000 0.74177  0.84483  0.81923  Biso   1.000  C
  C294     1.0000 0.89367  0.83643  0.69443  Biso   1.000  C
  N98      1.0000 0.85577  0.79893  0.65623  Biso   1.000  N
  N99      1.0000 0.93807  0.79873  0.65933  Biso   1.000  N
  C295     1.0000 0.94467  0.83683  0.69693  Biso   1.000  C
  C296     1.0000 0.73677  0.92203  0.88073  Biso   1.000  C
  H238     1.0000 0.76997  0.95883  0.88643  Biso   1.000  H
  H239     1.0000 0.73407  0.89703  0.91243  Biso   1.000  H
  H240     1.0000 0.70337  0.92573  0.88063  Biso   1.000  H
  C297     1.0000 0.63877  0.72613  0.65463  Biso   1.000  C
  H241     1.0000 0.65837  0.76513  0.64703  Biso   1.000  H
  C298     1.0000 0.57947  0.60733  0.67913  Biso   1.000  C
  H242     1.0000 0.56027  0.56853  0.68773  Biso   1.000  H
  C299     1.0000 0.58097  0.69583  0.66063  Biso   1.000  C
  C300     1.0000 0.55187  0.63763  0.67223  Biso   1.000  C
  C301     1.0000 0.71787  0.72363  0.49963  Biso   1.000  C
  H243     1.0000 0.72077  0.68983  0.50283  Biso   1.000  H
  H244     1.0000 0.69877  0.72243  0.46323  Biso   1.000  H
  H245     1.0000 0.69647  0.72553  0.53273  Biso   1.000  H
  C302     1.0000 0.89177  0.78383  0.63703  Biso   1.000  C
  C303     1.0000 0.54267  0.71783  0.65673  Biso   1.000  C
  H246     1.0000 0.56407  0.75833  0.65073  Biso   1.000  H
  H247     1.0000 0.52117  0.70963  0.69293  Biso   1.000  H
  H248     1.0000 0.51717  0.70033  0.62383  Biso   1.000  H
  C304     1.0000 0.86497  0.72953  0.58903  Biso   1.000  C
  H249     1.0000 0.85027  0.69423  0.61053  Biso   1.000  H
  H250     1.0000 0.89437  0.73343  0.56233  Biso   1.000  H
  H251     1.0000 0.83467  0.72943  0.56663  Biso   1.000  H
  C305     1.0000 0.85667  0.76313  0.72283  Biso   1.000  C
  C306     1.0000 0.90717  0.76353  0.72283  Biso   1.000  C
  C307     1.0000 0.92407  0.74683  0.77233  Biso   1.000  C
  H252     1.0000 0.95847  0.74703  0.77233  Biso   1.000  H
  C308     1.0000 0.89037  0.72973  0.82173  Biso   1.000  C
  C309     1.0000 0.84007  0.72943  0.82183  Biso   1.000  C
  C310     1.0000 0.82307  0.74603  0.77233  Biso   1.000  C
  H253     1.0000 0.78867  0.74583  0.77233  Biso   1.000  H
  C311     1.0000 0.84517  0.84323  0.50133  Biso   1.000  C
  H254     1.0000 0.84177  0.87683  0.49893  Biso   1.000  H
  H255     1.0000 0.86687  0.84223  0.46803  Biso   1.000  H
  H256     1.0000 0.86407  0.84383  0.53763  Biso   1.000  H
  C312     1.0000 0.79257  0.79643  0.50033  Biso   1.000  C
  N100     1.0000 0.76327  0.76413  0.54983  Biso   1.000  N
  C313     1.0000 0.72037  0.71143  0.52983  Biso   1.000  C
  H257     1.0000 0.69437  0.68163  0.55373  Biso   1.000  H
  C314     1.0000 0.72297  0.71103  0.46803  Biso   1.000  C
  H258     1.0000 0.69907  0.68093  0.44323  Biso   1.000  H
  N101     1.0000 0.76767  0.76363  0.44973  Biso   1.000  N
  N102     1.0000 0.85447  0.78563  0.66783  Biso   1.000  N
  N103     1.0000 0.93547  0.78603  0.66533  Biso   1.000  N
  C315     1.0000 0.49317  0.61753  0.67283  Biso   1.000  C
  H259     1.0000 0.47287  0.57683  0.66863  Biso   1.000  H
  H260     1.0000 0.48367  0.63433  0.64043  Biso   1.000  H
  H261     1.0000 0.48287  0.62773  0.70983  Biso   1.000  H
  O8       1.0000 0.83407  0.66783  0.73063  Biso   1.000  O
  C316     1.0000 0.81267  0.71533  0.87033  Biso   1.000  C
  C317     1.0000 0.89767  0.71433  0.87333  Biso   1.000  C
  C318     1.0000 0.82037  0.64033  0.84933  Biso   1.000  C
  C319     1.0000 0.85057  0.70143  0.76233  Biso   1.000  C
  N104     1.0000 0.85127  0.70183  0.81373  Biso   1.000  N
  C320     1.0000 0.73627  0.81753  0.88103  Biso   1.000  C
  H262     1.0000 0.70367  0.77993  0.88143  Biso   1.000  H
  H263     1.0000 0.73197  0.84043  0.91093  Biso   1.000  H
  H264     1.0000 0.76997  0.81533  0.88913  Biso   1.000  H
  Zn17     1.0000 0.66704  0.11886  0.96633  Biso   1.000  Zn
  Zn18     1.0000 0.45185  0.11885  0.96633  Biso   1.000  Zn
  N105     1.0000 0.44053  0.26077  0.99597  Biso   1.000  N
  N106     1.0000 0.44093  0.17977  0.99677  Biso   1.000  N
  C321     1.0000 0.44143  0.10717  0.83317  Biso   1.000  C
  N107     1.0000 0.47053  0.13787  0.88347  Biso   1.000  N
  C322     1.0000 0.51913  0.18717  0.86467  Biso   1.000  C
  H265     1.0000 0.54623  0.21537  0.88927  Biso   1.000  H
  C323     1.0000 0.52003  0.18687  0.80277  Biso   1.000  C
  H266     1.0000 0.54783  0.21487  0.77867  Biso   1.000  H
  N108     1.0000 0.47203  0.13747  0.78327  Biso   1.000  N
  C324     1.0000 0.44623  0.22277  0.96677  Biso   1.000  C
  H267     1.0000 0.45383  0.22627  0.92607  Biso   1.000  H
  N109     1.0000 0.34233  0.95377  0.00957  Biso   1.000  N
  N110     1.0000 0.38903  0.04617  0.99037  Biso   1.000  N
  C325     1.0000 0.33303  0.02847  0.99397  Biso   1.000  C
  C326     1.0000 0.42993  0.19047  0.05247  Biso   1.000  C
  C327     1.0000 0.42913  0.24037  0.05137  Biso   1.000  C
  C328     1.0000 0.30373  0.97127  0.00597  Biso   1.000  C
  C329     1.0000 0.39083  0.99927  0.00017  Biso   1.000  C
  H268     1.0000 0.42483  0.99877  0.00037  Biso   1.000  H
  C330     1.0000 0.41923  0.26167  0.10277  Biso   1.000  C
  H269     1.0000 0.41993  0.29637  0.10317  Biso   1.000  H
  C331     1.0000 0.41963  0.15837  0.10277  Biso   1.000  C
  H270     1.0000 0.42033  0.12437  0.10237  Biso   1.000  H
  C332     1.0000 0.40823  0.22987  0.15287  Biso   1.000  C
  C333     1.0000 0.40843  0.17817  0.15257  Biso   1.000  C
  C334     1.0000 0.56033  0.16977  0.02777  Biso   1.000  C
  N111     1.0000 0.52243  0.13227  0.98957  Biso   1.000  N
  N112     1.0000 0.60473  0.13207  0.99267  Biso   1.000  N
  C335     1.0000 0.61133  0.17017  0.03027  Biso   1.000  C
  C336     1.0000 0.40343  0.25537  0.21407  Biso   1.000  C
  H271     1.0000 0.43663  0.29217  0.21977  Biso   1.000  H
  H272     1.0000 0.40073  0.23037  0.24577  Biso   1.000  H
  H273     1.0000 0.37003  0.25907  0.21397  Biso   1.000  H
  C337     1.0000 0.30543  0.05947  0.98797  Biso   1.000  C
  H274     1.0000 0.32503  0.09847  0.98037  Biso   1.000  H
  C338     1.0000 0.24613  0.94067  0.01247  Biso   1.000  C
  H275     1.0000 0.22693  0.90187  0.02107  Biso   1.000  H
  C339     1.0000 0.24763  0.02917  0.99397  Biso   1.000  C
  C340     1.0000 0.21853  0.97097  0.00557  Biso   1.000  C
  C341     1.0000 0.38453  0.05697  0.83297  Biso   1.000  C
  H276     1.0000 0.38743  0.02317  0.83617  Biso   1.000  H
  H277     1.0000 0.36543  0.05577  0.79657  Biso   1.000  H
  H278     1.0000 0.36313  0.05887  0.86607  Biso   1.000  H
  C342     1.0000 0.55843  0.11717  0.97037  Biso   1.000  C
  C343     1.0000 0.20933  0.05117  0.99007  Biso   1.000  C
  H279     1.0000 0.23073  0.09167  0.98407  Biso   1.000  H
  H280     1.0000 0.18783  0.04297  0.02627  Biso   1.000  H
  H281     1.0000 0.18383  0.03367  0.95717  Biso   1.000  H
  C344     1.0000 0.53163  0.06287  0.92237  Biso   1.000  C
  H282     1.0000 0.51693  0.02757  0.94387  Biso   1.000  H
  H283     1.0000 0.56103  0.06677  0.89567  Biso   1.000  H
  H284     1.0000 0.50133  0.06277  0.89997  Biso   1.000  H
  C345     1.0000 0.52333  0.09647  0.05617  Biso   1.000  C
  C346     1.0000 0.57383  0.09687  0.05617  Biso   1.000  C
  C347     1.0000 0.59073  0.08017  0.10567  Biso   1.000  C
  H285     1.0000 0.62513  0.08037  0.10567  Biso   1.000  H
  C348     1.0000 0.55703  0.06307  0.15507  Biso   1.000  C
  C349     1.0000 0.50673  0.06277  0.15517  Biso   1.000  C
  C350     1.0000 0.48973  0.07937  0.10567  Biso   1.000  C
  H286     1.0000 0.45533  0.07917  0.10567  Biso   1.000  H
  C351     1.0000 0.51183  0.17657  0.83467  Biso   1.000  C
  H287     1.0000 0.50843  0.21017  0.83227  Biso   1.000  H
  H288     1.0000 0.53353  0.17557  0.80137  Biso   1.000  H
  H289     1.0000 0.53073  0.17717  0.87097  Biso   1.000  H
  C352     1.0000 0.45923  0.12977  0.83367  Biso   1.000  C
  N113     1.0000 0.42993  0.09747  0.88317  Biso   1.000  N
  C353     1.0000 0.38703  0.04477  0.86317  Biso   1.000  C
  H290     1.0000 0.36103  0.01497  0.88707  Biso   1.000  H
  C354     1.0000 0.38963  0.04437  0.80137  Biso   1.000  C
  H291     1.0000 0.36573  0.01427  0.77657  Biso   1.000  H
  N114     1.0000 0.43433  0.09697  0.78307  Biso   1.000  N
  N115     1.0000 0.52113  0.11897  0.00117  Biso   1.000  N
  N116     1.0000 0.60213  0.11937  0.99867  Biso   1.000  N
  C355     1.0000 0.15983  0.95087  0.00617  Biso   1.000  C
  H292     1.0000 0.13953  0.91017  0.00197  Biso   1.000  H
  H293     1.0000 0.15033  0.96767  0.97377  Biso   1.000  H
  H294     1.0000 0.14953  0.96107  0.04317  Biso   1.000  H
  O9       1.0000 0.50073  0.00117  0.06397  Biso   1.000  O
  C356     1.0000 0.47933  0.04867  0.20367  Biso   1.000  C
  C357     1.0000 0.56433  0.04767  0.20667  Biso   1.000  C
  C358     1.0000 0.48703  0.97367  0.18267  Biso   1.000  C
  C359     1.0000 0.51723  0.03477  0.09567  Biso   1.000  C
  N117     1.0000 0.51793  0.03517  0.14707  Biso   1.000  N
  C360     1.0000 0.40293  0.15087  0.21437  Biso   1.000  C
  H295     1.0000 0.37033  0.11327  0.21477  Biso   1.000  H
  H296     1.0000 0.39863  0.17377  0.24427  Biso   1.000  H
  H297     1.0000 0.43663  0.14867  0.22247  Biso   1.000  H
  Zn19     1.0000 0.45219  0.11848  0.70034  Biso   1.000  Zn
  Zn20     1.0000 0.45218  0.33366  0.70034  Biso   1.000  Zn
  N118     1.0000 0.59410  0.48690  0.67070  Biso   1.000  N
  N119     1.0000 0.51310  0.40550  0.66990  Biso   1.000  N
  C361     1.0000 0.44050  0.33240  0.83350  Biso   1.000  C
  N120     1.0000 0.47120  0.33400  0.78320  Biso   1.000  N
  C362     1.0000 0.52050  0.33470  0.80200  Biso   1.000  C
  H298     1.0000 0.54870  0.33580  0.77740  Biso   1.000  H
  C363     1.0000 0.52020  0.33350  0.86390  Biso   1.000  C
  H299     1.0000 0.54820  0.33370  0.88800  Biso   1.000  H
  N121     1.0000 0.47080  0.33210  0.88340  Biso   1.000  N
  C364     1.0000 0.55610  0.44320  0.69990  Biso   1.000  C
  H300     1.0000 0.55960  0.43910  0.74060  Biso   1.000  H
  N122     1.0000 0.28710  0.27810  0.65710  Biso   1.000  N
  N123     1.0000 0.37950  0.32380  0.67630  Biso   1.000  N
  C365     1.0000 0.36180  0.36210  0.67270  Biso   1.000  C
  C366     1.0000 0.52380  0.42720  0.61420  Biso   1.000  C
  C367     1.0000 0.57370  0.47790  0.61530  Biso   1.000  C
  C368     1.0000 0.30460  0.33420  0.66070  Biso   1.000  C
  C369     1.0000 0.33260  0.27510  0.66650  Biso   1.000  C
  H301     1.0000 0.33210  0.24060  0.66630  Biso   1.000  H
  C370     1.0000 0.59500  0.50910  0.56390  Biso   1.000  C
  H302     1.0000 0.62970  0.54310  0.56350  Biso   1.000  H
  C371     1.0000 0.49170  0.40540  0.56390  Biso   1.000  C
  H303     1.0000 0.45770  0.37070  0.56430  Biso   1.000  H
  C372     1.0000 0.56320  0.48830  0.51380  Biso   1.000  C
  C373     1.0000 0.51150  0.43640  0.51410  Biso   1.000  C
  C374     1.0000 0.50310  0.27610  0.63890  Biso   1.000  C
  N124     1.0000 0.46560  0.27650  0.67710  Biso   1.000  N
  N125     1.0000 0.46540  0.19400  0.67400  Biso   1.000  N
  C375     1.0000 0.50350  0.22550  0.63640  Biso   1.000  C
  C376     1.0000 0.58870  0.51860  0.45260  Biso   1.000  C
  H304     1.0000 0.62550  0.52220  0.44690  Biso   1.000  H
  H305     1.0000 0.56370  0.49630  0.42090  Biso   1.000  H
  H306     1.0000 0.59240  0.55570  0.45270  Biso   1.000  H
  C377     1.0000 0.39280  0.42070  0.67870  Biso   1.000  C
  H307     1.0000 0.43180  0.44010  0.68630  Biso   1.000  H
  C378     1.0000 0.27400  0.36120  0.65420  Biso   1.000  C
  H308     1.0000 0.23520  0.34160  0.64560  Biso   1.000  H
  C379     1.0000 0.36250  0.44820  0.67270  Biso   1.000  C
  C380     1.0000 0.30430  0.41910  0.66110  Biso   1.000  C
  C381     1.0000 0.39030  0.33910  0.83370  Biso   1.000  C
  H309     1.0000 0.35650  0.30240  0.83050  Biso   1.000  H
  H310     1.0000 0.38910  0.35700  0.87010  Biso   1.000  H
  H311     1.0000 0.39220  0.36240  0.80060  Biso   1.000  H
  C382     1.0000 0.45050  0.22540  0.69630  Biso   1.000  C
  C383     1.0000 0.38450  0.50850  0.67660  Biso   1.000  C
  H312     1.0000 0.42500  0.52760  0.68260  Biso   1.000  H
  H313     1.0000 0.37630  0.52180  0.64040  Biso   1.000  H
  H314     1.0000 0.36700  0.51650  0.70950  Biso   1.000  H
  C384     1.0000 0.39620  0.19790  0.74430  Biso   1.000  C
  H315     1.0000 0.36090  0.17730  0.72280  Biso   1.000  H
  H316     1.0000 0.40010  0.17240  0.77100  Biso   1.000  H
  H317     1.0000 0.39610  0.22810  0.76670  Biso   1.000  H
  C385     1.0000 0.42980  0.23980  0.61050  Biso   1.000  C
  C386     1.0000 0.43020  0.18970  0.61050  Biso   1.000  C
  C387     1.0000 0.41350  0.15610  0.56100  Biso   1.000  C
  H318     1.0000 0.41370  0.12190  0.56100  Biso   1.000  H
  C388     1.0000 0.39640  0.17270  0.51160  Biso   1.000  C
  C389     1.0000 0.39610  0.22270  0.51150  Biso   1.000  C
  C390     1.0000 0.41270  0.25630  0.56100  Biso   1.000  C
  H319     1.0000 0.41250  0.29050  0.56100  Biso   1.000  H
  C391     1.0000 0.50990  0.33140  0.83200  Biso   1.000  C
  H320     1.0000 0.54350  0.36840  0.83440  Biso   1.000  H
  H321     1.0000 0.50890  0.30870  0.86530  Biso   1.000  H
  H322     1.0000 0.51050  0.31310  0.79570  Biso   1.000  H
  C392     1.0000 0.46310  0.33720  0.83300  Biso   1.000  C
  N126     1.0000 0.43080  0.33420  0.78350  Biso   1.000  N
  C393     1.0000 0.37810  0.32440  0.80350  Biso   1.000  C
  H323     1.0000 0.34830  0.32060  0.77960  Biso   1.000  H
  C394     1.0000 0.37770  0.32140  0.86530  Biso   1.000  C
  H324     1.0000 0.34760  0.31520  0.89010  Biso   1.000  H
  N127     1.0000 0.43030  0.32930  0.88360  Biso   1.000  N
  N128     1.0000 0.45230  0.26450  0.66550  Biso   1.000  N
  N129     1.0000 0.45270  0.18390  0.66800  Biso   1.000  N
  C395     1.0000 0.28420  0.45770  0.66050  Biso   1.000  C
  H325     1.0000 0.24350  0.43730  0.66470  Biso   1.000  H
  H326     1.0000 0.30100  0.48400  0.69290  Biso   1.000  H
  H327     1.0000 0.29440  0.47820  0.62350  Biso   1.000  H
  O10      1.0000 0.33450  0.16710  0.60270  Biso   1.000  O
  C396     1.0000 0.38200  0.23600  0.46300  Biso   1.000  C
  C397     1.0000 0.38100  0.15000  0.46000  Biso   1.000  C
  C398     1.0000 0.30700  0.15330  0.48400  Biso   1.000  C
  C399     1.0000 0.36810  0.18420  0.57100  Biso   1.000  C
  N130     1.0000 0.36850  0.18390  0.51960  Biso   1.000  N
  C400     1.0000 0.48420  0.41460  0.45230  Biso   1.000  C
  H328     1.0000 0.44660  0.40960  0.45190  Biso   1.000  H
  H329     1.0000 0.50710  0.44180  0.42240  Biso   1.000  H
  H330     1.0000 0.48200  0.37870  0.44420  Biso   1.000  H
  Zn21     1.0000 0.11886  0.45181  0.03367  Biso   1.000  Zn
  Zn22     1.0000 0.11885  0.66699  0.03367  Biso   1.000  Zn
  N131     1.0000 0.26077  0.82023  0.00403  Biso   1.000  N
  N132     1.0000 0.17977  0.73883  0.00323  Biso   1.000  N
  C401     1.0000 0.10717  0.66573  0.16683  Biso   1.000  C
  N133     1.0000 0.13787  0.66733  0.11653  Biso   1.000  N
  C402     1.0000 0.18717  0.66803  0.13533  Biso   1.000  C
  H331     1.0000 0.21537  0.66913  0.11073  Biso   1.000  H
  C403     1.0000 0.18687  0.66683  0.19723  Biso   1.000  C
  H332     1.0000 0.21487  0.66703  0.22133  Biso   1.000  H
  N134     1.0000 0.13747  0.66543  0.21673  Biso   1.000  N
  C404     1.0000 0.22277  0.77653  0.03323  Biso   1.000  C
  H333     1.0000 0.22627  0.77243  0.07393  Biso   1.000  H
  N135     1.0000 0.95377  0.61143  0.99043  Biso   1.000  N
  N136     1.0000 0.04617  0.65713  0.00963  Biso   1.000  N
  C405     1.0000 0.02847  0.69543  0.00603  Biso   1.000  C
  C406     1.0000 0.19047  0.76053  0.94753  Biso   1.000  C
  C407     1.0000 0.24037  0.81123  0.94863  Biso   1.000  C
  C408     1.0000 0.97127  0.66753  0.99403  Biso   1.000  C
  C409     1.0000 0.99927  0.60843  0.99983  Biso   1.000  C
  H334     1.0000 0.99877  0.57393  0.99963  Biso   1.000  H
  C410     1.0000 0.26167  0.84243  0.89723  Biso   1.000  C
  H335     1.0000 0.29637  0.87643  0.89683  Biso   1.000  H
  C411     1.0000 0.15837  0.73873  0.89723  Biso   1.000  C
  H336     1.0000 0.12437  0.70403  0.89763  Biso   1.000  H
  C412     1.0000 0.22987  0.82163  0.84713  Biso   1.000  C
  C413     1.0000 0.17817  0.76973  0.84743  Biso   1.000  C
  C414     1.0000 0.16977  0.60943  0.97223  Biso   1.000  C
  N137     1.0000 0.13227  0.60983  0.01043  Biso   1.000  N
  N138     1.0000 0.13207  0.52733  0.00733  Biso   1.000  N
  C415     1.0000 0.17017  0.55883  0.96973  Biso   1.000  C
  C416     1.0000 0.25537  0.85193  0.78593  Biso   1.000  C
  H337     1.0000 0.29217  0.85553  0.78023  Biso   1.000  H
  H338     1.0000 0.23037  0.82963  0.75423  Biso   1.000  H
  H339     1.0000 0.25907  0.88903  0.78603  Biso   1.000  H
  C417     1.0000 0.05947  0.75403  0.01203  Biso   1.000  C
  H340     1.0000 0.09847  0.77343  0.01963  Biso   1.000  H
  C418     1.0000 0.94067  0.69453  0.98753  Biso   1.000  C
  H341     1.0000 0.90187  0.67493  0.97893  Biso   1.000  H
  C419     1.0000 0.02917  0.78153  0.00603  Biso   1.000  C
  C420     1.0000 0.97097  0.75243  0.99443  Biso   1.000  C
  C421     1.0000 0.05697  0.67243  0.16703  Biso   1.000  C
  H342     1.0000 0.02317  0.63573  0.16383  Biso   1.000  H
  H343     1.0000 0.05577  0.69033  0.20343  Biso   1.000  H
  H344     1.0000 0.05887  0.69573  0.13393  Biso   1.000  H
  C422     1.0000 0.11717  0.55873  0.02963  Biso   1.000  C
  C423     1.0000 0.05117  0.84183  0.00993  Biso   1.000  C
  H345     1.0000 0.09167  0.86093  0.01593  Biso   1.000  H
  H346     1.0000 0.04297  0.85513  0.97373  Biso   1.000  H
  H347     1.0000 0.03367  0.84983  0.04283  Biso   1.000  H
  C424     1.0000 0.06287  0.53123  0.07763  Biso   1.000  C
  H348     1.0000 0.02757  0.51063  0.05613  Biso   1.000  H
  H349     1.0000 0.06677  0.50573  0.10433  Biso   1.000  H
  H350     1.0000 0.06277  0.56143  0.10003  Biso   1.000  H
  C425     1.0000 0.09647  0.57313  0.94383  Biso   1.000  C
  C426     1.0000 0.09687  0.52303  0.94383  Biso   1.000  C
  C427     1.0000 0.08017  0.48943  0.89433  Biso   1.000  C
  H351     1.0000 0.08037  0.45523  0.89433  Biso   1.000  H
  C428     1.0000 0.06307  0.50603  0.84493  Biso   1.000  C
  C429     1.0000 0.06277  0.55603  0.84483  Biso   1.000  C
  C430     1.0000 0.07937  0.58963  0.89433  Biso   1.000  C
  H352     1.0000 0.07917  0.62383  0.89433  Biso   1.000  H
  C431     1.0000 0.17657  0.66473  0.16533  Biso   1.000  C
  H353     1.0000 0.21017  0.70173  0.16773  Biso   1.000  H
  H354     1.0000 0.17557  0.64203  0.19863  Biso   1.000  H
  H355     1.0000 0.17717  0.64643  0.12903  Biso   1.000  H
  C432     1.0000 0.12977  0.67053  0.16633  Biso   1.000  C
  N139     1.0000 0.09747  0.66753  0.11683  Biso   1.000  N
  C433     1.0000 0.04477  0.65773  0.13683  Biso   1.000  C
  H356     1.0000 0.01497  0.65393  0.11293  Biso   1.000  H
  C434     1.0000 0.04437  0.65473  0.19863  Biso   1.000  C
  H357     1.0000 0.01427  0.64853  0.22343  Biso   1.000  H
  N140     1.0000 0.09697  0.66263  0.21693  Biso   1.000  N
  N141     1.0000 0.11897  0.59783  0.99883  Biso   1.000  N
  N142     1.0000 0.11937  0.51723  0.00133  Biso   1.000  N
  C435     1.0000 0.95087  0.79103  0.99383  Biso   1.000  C
  H358     1.0000 0.91017  0.77063  0.99803  Biso   1.000  H
  H359     1.0000 0.96767  0.81733  0.02623  Biso   1.000  H
  H360     1.0000 0.96107  0.81153  0.95683  Biso   1.000  H
  O11      1.0000 0.00117  0.50043  0.93603  Biso   1.000  O
  C436     1.0000 0.04867  0.56933  0.79633  Biso   1.000  C
  C437     1.0000 0.04767  0.48333  0.79333  Biso   1.000  C
  C438     1.0000 0.97367  0.48663  0.81733  Biso   1.000  C
  C439     1.0000 0.03477  0.51753  0.90433  Biso   1.000  C
  N143     1.0000 0.03517  0.51723  0.85293  Biso   1.000  N
  C440     1.0000 0.15087  0.74793  0.78563  Biso   1.000  C
  H361     1.0000 0.11327  0.74293  0.78523  Biso   1.000  H
  H362     1.0000 0.17377  0.77513  0.75573  Biso   1.000  H
  H363     1.0000 0.14867  0.71203  0.77753  Biso   1.000  H
  Zn23     1.0000 0.78552  0.78515  0.36701  Biso   1.000  Zn
  Zn24     1.0000 0.78551  0.00033  0.36701  Biso   1.000  Zn
  N144     1.0000 0.92743  0.15357  0.33737  Biso   1.000  N
  N145     1.0000 0.84643  0.07217  0.33657  Biso   1.000  N
  C441     1.0000 0.77383  0.99907  0.50017  Biso   1.000  C
  N146     1.0000 0.80453  0.00067  0.44987  Biso   1.000  N
  C442     1.0000 0.85383  0.00137  0.46867  Biso   1.000  C
  H364     1.0000 0.88203  0.00247  0.44407  Biso   1.000  H
  C443     1.0000 0.85353  0.00017  0.53057  Biso   1.000  C
  H365     1.0000 0.88153  0.00037  0.55467  Biso   1.000  H
  N147     1.0000 0.80413  0.99877  0.55007  Biso   1.000  N
  C444     1.0000 0.88943  0.10987  0.36657  Biso   1.000  C
  H366     1.0000 0.89293  0.10577  0.40727  Biso   1.000  H
  N148     1.0000 0.62043  0.94477  0.32377  Biso   1.000  N
  N149     1.0000 0.71283  0.99047  0.34297  Biso   1.000  N
  C445     1.0000 0.69513  0.02877  0.33937  Biso   1.000  C
  C446     1.0000 0.85713  0.09387  0.28087  Biso   1.000  C
  C447     1.0000 0.90703  0.14457  0.28197  Biso   1.000  C
  C448     1.0000 0.63793  0.00087  0.32737  Biso   1.000  C
  C449     1.0000 0.66593  0.94177  0.33317  Biso   1.000  C
  H367     1.0000 0.66543  0.90727  0.33297  Biso   1.000  H
  C450     1.0000 0.92833  0.17577  0.23057  Biso   1.000  C
  H368     1.0000 0.96303  0.20977  0.23017  Biso   1.000  H
  C451     1.0000 0.82503  0.07207  0.23057  Biso   1.000  C
  H369     1.0000 0.79103  0.03737  0.23097  Biso   1.000  H
  C452     1.0000 0.89653  0.15497  0.18047  Biso   1.000  C
  C453     1.0000 0.84483  0.10307  0.18077  Biso   1.000  C
  C454     1.0000 0.83643  0.94277  0.30557  Biso   1.000  C
  N150     1.0000 0.79893  0.94317  0.34377  Biso   1.000  N
  N151     1.0000 0.79873  0.86067  0.34067  Biso   1.000  N
  C455     1.0000 0.83683  0.89217  0.30307  Biso   1.000  C
  C456     1.0000 0.92203  0.18527  0.11927  Biso   1.000  C
  H370     1.0000 0.95883  0.18887  0.11357  Biso   1.000  H
  H371     1.0000 0.89703  0.16297  0.08757  Biso   1.000  H
  H372     1.0000 0.92573  0.22237  0.11937  Biso   1.000  H
  C457     1.0000 0.72613  0.08737  0.34537  Biso   1.000  C
  H373     1.0000 0.76513  0.10677  0.35297  Biso   1.000  H
  C458     1.0000 0.60733  0.02787  0.32087  Biso   1.000  C
  H374     1.0000 0.56853  0.00827  0.31227  Biso   1.000  H
  C459     1.0000 0.69583  0.11487  0.33937  Biso   1.000  C
  C460     1.0000 0.63763  0.08577  0.32777  Biso   1.000  C
  C461     1.0000 0.72363  0.00577  0.50037  Biso   1.000  C
  H375     1.0000 0.68983  0.96907  0.49717  Biso   1.000  H
  H376     1.0000 0.72243  0.02367  0.53677  Biso   1.000  H
  H377     1.0000 0.72553  0.02907  0.46727  Biso   1.000  H
  C462     1.0000 0.78383  0.89207  0.36297  Biso   1.000  C
  C463     1.0000 0.71783  0.17517  0.34327  Biso   1.000  C
  H378     1.0000 0.75833  0.19427  0.34927  Biso   1.000  H
  H379     1.0000 0.70963  0.18847  0.30707  Biso   1.000  H
  H380     1.0000 0.70033  0.18317  0.37617  Biso   1.000  H
  C464     1.0000 0.72953  0.86457  0.41097  Biso   1.000  C
  H381     1.0000 0.69423  0.84397  0.38947  Biso   1.000  H
  H382     1.0000 0.73343  0.83907  0.43767  Biso   1.000  H
  H383     1.0000 0.72943  0.89477  0.43337  Biso   1.000  H
  C465     1.0000 0.76313  0.90647  0.27717  Biso   1.000  C
  C466     1.0000 0.76353  0.85637  0.27717  Biso   1.000  C
  C467     1.0000 0.74683  0.82277  0.22767  Biso   1.000  C
  H384     1.0000 0.74703  0.78857  0.22767  Biso   1.000  H
  C468     1.0000 0.72973  0.83937  0.17827  Biso   1.000  C
  C469     1.0000 0.72943  0.88937  0.17817  Biso   1.000  C
  C470     1.0000 0.74603  0.92297  0.22767  Biso   1.000  C
  H385     1.0000 0.74583  0.95717  0.22767  Biso   1.000  H
  C471     1.0000 0.84323  0.99807  0.49867  Biso   1.000  C
  H386     1.0000 0.87683  0.03507  0.50107  Biso   1.000  H
  H387     1.0000 0.84223  0.97537  0.53197  Biso   1.000  H
  H388     1.0000 0.84383  0.97977  0.46237  Biso   1.000  H
  C472     1.0000 0.79643  0.00387  0.49967  Biso   1.000  C
  N152     1.0000 0.76413  0.00087  0.45017  Biso   1.000  N
  C473     1.0000 0.71143  0.99107  0.47017  Biso   1.000  C
  H389     1.0000 0.68163  0.98727  0.44627  Biso   1.000  H
  C474     1.0000 0.71103  0.98807  0.53197  Biso   1.000  C
  H390     1.0000 0.68093  0.98187  0.55677  Biso   1.000  H
  N153     1.0000 0.76363  0.99597  0.55027  Biso   1.000  N
  N154     1.0000 0.78563  0.93117  0.33217  Biso   1.000  N
  N155     1.0000 0.78603  0.85057  0.33467  Biso   1.000  N
  C475     1.0000 0.61753  0.12437  0.32717  Biso   1.000  C
  H391     1.0000 0.57683  0.10397  0.33137  Biso   1.000  H
  H392     1.0000 0.63433  0.15067  0.35957  Biso   1.000  H
  H393     1.0000 0.62773  0.14487  0.29017  Biso   1.000  H
  O12      1.0000 0.66783  0.83377  0.26937  Biso   1.000  O
  C476     1.0000 0.71533  0.90267  0.12967  Biso   1.000  C
  C477     1.0000 0.71433  0.81667  0.12667  Biso   1.000  C
  C478     1.0000 0.64033  0.81997  0.15067  Biso   1.000  C
  C479     1.0000 0.70143  0.85087  0.23767  Biso   1.000  C
  N156     1.0000 0.70183  0.85057  0.18627  Biso   1.000  N
  C480     1.0000 0.81753  0.08127  0.11897  Biso   1.000  C
  H394     1.0000 0.77993  0.07627  0.11857  Biso   1.000  H
  H395     1.0000 0.84043  0.10847  0.08907  Biso   1.000  H
  H396     1.0000 0.81533  0.04537  0.11087  Biso   1.000  H
  Zn25     1.0000 0.88152  0.33371  0.70034  Biso   1.000  Zn
  Zn26     1.0000 0.66634  0.11852  0.70034  Biso   1.000  Zn
  N157     1.0000 0.51310  0.10720  0.67070  Biso   1.000  N
  N158     1.0000 0.59450  0.10760  0.66990  Biso   1.000  N
  C481     1.0000 0.66760  0.10810  0.83350  Biso   1.000  C
  N159     1.0000 0.66600  0.13720  0.78320  Biso   1.000  N
  C482     1.0000 0.66530  0.18580  0.80200  Biso   1.000  C
  H397     1.0000 0.66420  0.21290  0.77740  Biso   1.000  H
  C483     1.0000 0.66650  0.18670  0.86390  Biso   1.000  C
  H398     1.0000 0.66630  0.21450  0.88800  Biso   1.000  H
  N160     1.0000 0.66790  0.13870  0.88340  Biso   1.000  N
  C484     1.0000 0.55680  0.11290  0.69990  Biso   1.000  C
  H399     1.0000 0.56090  0.12050  0.74060  Biso   1.000  H
  N161     1.0000 0.72190  0.00900  0.65710  Biso   1.000  N
  N162     1.0000 0.67620  0.05570  0.67630  Biso   1.000  N
  C485     1.0000 0.63790  0.99970  0.67270  Biso   1.000  C
  C486     1.0000 0.57280  0.09660  0.61420  Biso   1.000  C
  C487     1.0000 0.52210  0.09580  0.61530  Biso   1.000  C
  C488     1.0000 0.66580  0.97040  0.66070  Biso   1.000  C
  C489     1.0000 0.72490  0.05750  0.66650  Biso   1.000  C
  H400     1.0000 0.75940  0.09150  0.66630  Biso   1.000  H
  C490     1.0000 0.49090  0.08590  0.56390  Biso   1.000  C
  H401     1.0000 0.45690  0.08660  0.56350  Biso   1.000  H
  C491     1.0000 0.59460  0.08630  0.56390  Biso   1.000  C
  H402     1.0000 0.62930  0.08700  0.56430  Biso   1.000  H
  C492     1.0000 0.51170  0.07490  0.51380  Biso   1.000  C
  C493     1.0000 0.56360  0.07510  0.51410  Biso   1.000  C
  C494     1.0000 0.72390  0.22700  0.63890  Biso   1.000  C
  N163     1.0000 0.72350  0.18910  0.67710  Biso   1.000  N
  N164     1.0000 0.80600  0.27140  0.67400  Biso   1.000  N
  C495     1.0000 0.77450  0.27800  0.63640  Biso   1.000  C
  C496     1.0000 0.48140  0.07010  0.45260  Biso   1.000  C
  H403     1.0000 0.47780  0.10330  0.44690  Biso   1.000  H
  H404     1.0000 0.50370  0.06740  0.42090  Biso   1.000  H
  H405     1.0000 0.44430  0.03670  0.45270  Biso   1.000  H
  C497     1.0000 0.57930  0.97210  0.67870  Biso   1.000  C
  H406     1.0000 0.55990  0.99170  0.68630  Biso   1.000  H
  C498     1.0000 0.63880  0.91280  0.65420  Biso   1.000  C
  H407     1.0000 0.65840  0.89360  0.64560  Biso   1.000  H
  C499     1.0000 0.55180  0.91430  0.67270  Biso   1.000  C
  C500     1.0000 0.58090  0.88520  0.66110  Biso   1.000  C
  C501     1.0000 0.66090  0.05120  0.83370  Biso   1.000  C
  H408     1.0000 0.69760  0.05410  0.83050  Biso   1.000  H
  H409     1.0000 0.64300  0.03210  0.87010  Biso   1.000  H
  H410     1.0000 0.63760  0.02980  0.80060  Biso   1.000  H
  C502     1.0000 0.77460  0.22510  0.69630  Biso   1.000  C
  C503     1.0000 0.49150  0.87600  0.67660  Biso   1.000  C
  H411     1.0000 0.47240  0.89740  0.68260  Biso   1.000  H
  H412     1.0000 0.47820  0.85450  0.64040  Biso   1.000  H
  H413     1.0000 0.48350  0.85050  0.70950  Biso   1.000  H
  C504     1.0000 0.80210  0.19830  0.74430  Biso   1.000  C
  H414     1.0000 0.82270  0.18360  0.72280  Biso   1.000  H
  H415     1.0000 0.82760  0.22770  0.77100  Biso   1.000  H
  H416     1.0000 0.77190  0.16800  0.76670  Biso   1.000  H
  C505     1.0000 0.76020  0.19000  0.61050  Biso   1.000  C
  C506     1.0000 0.81030  0.24050  0.61050  Biso   1.000  C
  C507     1.0000 0.84390  0.25740  0.56100  Biso   1.000  C
  H417     1.0000 0.87810  0.29180  0.56100  Biso   1.000  H
  C508     1.0000 0.82730  0.22370  0.51160  Biso   1.000  C
  C509     1.0000 0.77730  0.17340  0.51150  Biso   1.000  C
  C510     1.0000 0.74370  0.15640  0.56100  Biso   1.000  C
  H418     1.0000 0.70950  0.12200  0.56100  Biso   1.000  H
  C511     1.0000 0.66860  0.17850  0.83200  Biso   1.000  C
  H419     1.0000 0.63160  0.17510  0.83440  Biso   1.000  H
  H420     1.0000 0.69130  0.20020  0.86530  Biso   1.000  H
  H421     1.0000 0.68690  0.19740  0.79570  Biso   1.000  H
  C512     1.0000 0.66280  0.12590  0.83300  Biso   1.000  C
  N165     1.0000 0.66580  0.09660  0.78350  Biso   1.000  N
  C513     1.0000 0.67560  0.05370  0.80350  Biso   1.000  C
  H422     1.0000 0.67940  0.02770  0.77960  Biso   1.000  H
  C514     1.0000 0.67860  0.05630  0.86530  Biso   1.000  C
  H423     1.0000 0.68480  0.03240  0.89010  Biso   1.000  H
  N166     1.0000 0.67070  0.10100  0.88360  Biso   1.000  N
  N167     1.0000 0.73550  0.18780  0.66550  Biso   1.000  N
  N168     1.0000 0.81610  0.26880  0.66800  Biso   1.000  N
  C515     1.0000 0.54230  0.82650  0.66050  Biso   1.000  C
  H424     1.0000 0.56270  0.80620  0.66470  Biso   1.000  H
  H425     1.0000 0.51600  0.81700  0.69290  Biso   1.000  H
  H426     1.0000 0.52180  0.81620  0.62350  Biso   1.000  H
  O13      1.0000 0.83290  0.16740  0.60270  Biso   1.000  O
  C516     1.0000 0.76400  0.14600  0.46300  Biso   1.000  C
  C517     1.0000 0.85000  0.23100  0.46000  Biso   1.000  C
  C518     1.0000 0.84670  0.15370  0.48400  Biso   1.000  C
  C519     1.0000 0.81580  0.18390  0.57100  Biso   1.000  C
  N169     1.0000 0.81610  0.18460  0.51960  Biso   1.000  N
  C520     1.0000 0.58540  0.06960  0.45230  Biso   1.000  C
  H427     1.0000 0.59040  0.03700  0.45190  Biso   1.000  H
  H428     1.0000 0.55820  0.06530  0.42240  Biso   1.000  H
  H429     1.0000 0.62130  0.10330  0.44420  Biso   1.000  H
  Zn27     1.0000 0.54819  0.66704  0.03367  Biso   1.000  Zn
  Zn28     1.0000 0.33301  0.45185  0.03367  Biso   1.000  Zn
  N170     1.0000 0.17977  0.44053  0.00403  Biso   1.000  N
  N171     1.0000 0.26117  0.44093  0.00323  Biso   1.000  N
  C521     1.0000 0.33427  0.44143  0.16683  Biso   1.000  C
  N172     1.0000 0.33267  0.47053  0.11653  Biso   1.000  N
  C522     1.0000 0.33197  0.51913  0.13533  Biso   1.000  C
  H430     1.0000 0.33087  0.54623  0.11073  Biso   1.000  H
  C523     1.0000 0.33317  0.52003  0.19723  Biso   1.000  C
  H431     1.0000 0.33297  0.54783  0.22133  Biso   1.000  H
  N173     1.0000 0.33457  0.47203  0.21673  Biso   1.000  N
  C524     1.0000 0.22347  0.44623  0.03323  Biso   1.000  C
  H432     1.0000 0.22757  0.45383  0.07393  Biso   1.000  H
  N174     1.0000 0.38857  0.34233  0.99043  Biso   1.000  N
  N175     1.0000 0.34287  0.38903  0.00963  Biso   1.000  N
  C525     1.0000 0.30457  0.33303  0.00603  Biso   1.000  C
  C526     1.0000 0.23947  0.42993  0.94753  Biso   1.000  C
  C527     1.0000 0.18877  0.42913  0.94863  Biso   1.000  C
  C528     1.0000 0.33247  0.30373  0.99403  Biso   1.000  C
  C529     1.0000 0.39157  0.39083  0.99983  Biso   1.000  C
  H433     1.0000 0.42607  0.42483  0.99963  Biso   1.000  H
  C530     1.0000 0.15757  0.41923  0.89723  Biso   1.000  C
  H434     1.0000 0.12357  0.41993  0.89683  Biso   1.000  H
  C531     1.0000 0.26127  0.41963  0.89723  Biso   1.000  C
  H435     1.0000 0.29597  0.42033  0.89763  Biso   1.000  H
  C532     1.0000 0.17837  0.40823  0.84713  Biso   1.000  C
  C533     1.0000 0.23027  0.40843  0.84743  Biso   1.000  C
  C534     1.0000 0.39057  0.56033  0.97223  Biso   1.000  C
  N176     1.0000 0.39017  0.52243  0.01043  Biso   1.000  N
  N177     1.0000 0.47267  0.60473  0.00733  Biso   1.000  N
  C535     1.0000 0.44117  0.61133  0.96973  Biso   1.000  C
  C536     1.0000 0.14807  0.40343  0.78593  Biso   1.000  C
  H436     1.0000 0.14447  0.43663  0.78023  Biso   1.000  H
  H437     1.0000 0.17037  0.40073  0.75423  Biso   1.000  H
  H438     1.0000 0.11097  0.37003  0.78603  Biso   1.000  H
  C537     1.0000 0.24597  0.30543  0.01203  Biso   1.000  C
  H439     1.0000 0.22657  0.32503  0.01963  Biso   1.000  H
  C538     1.0000 0.30547  0.24613  0.98753  Biso   1.000  C
  H440     1.0000 0.32507  0.22693  0.97893  Biso   1.000  H
  C539     1.0000 0.21847  0.24763  0.00603  Biso   1.000  C
  C540     1.0000 0.24757  0.21853  0.99443  Biso   1.000  C
  C541     1.0000 0.32757  0.38453  0.16703  Biso   1.000  C
  H441     1.0000 0.36427  0.38743  0.16383  Biso   1.000  H
  H442     1.0000 0.30967  0.36543  0.20343  Biso   1.000  H
  H443     1.0000 0.30427  0.36313  0.13393  Biso   1.000  H
  C542     1.0000 0.44127  0.55843  0.02963  Biso   1.000  C
  C543     1.0000 0.15817  0.20933  0.00993  Biso   1.000  C
  H444     1.0000 0.13907  0.23073  0.01593  Biso   1.000  H
  H445     1.0000 0.14487  0.18783  0.97373  Biso   1.000  H
  H446     1.0000 0.15017  0.18383  0.04283  Biso   1.000  H
  C544     1.0000 0.46877  0.53163  0.07763  Biso   1.000  C
  H447     1.0000 0.48937  0.51693  0.05613  Biso   1.000  H
  H448     1.0000 0.49427  0.56103  0.10433  Biso   1.000  H
  H449     1.0000 0.43857  0.50133  0.10003  Biso   1.000  H
  C545     1.0000 0.42687  0.52333  0.94383  Biso   1.000  C
  C546     1.0000 0.47697  0.57383  0.94383  Biso   1.000  C
  C547     1.0000 0.51057  0.59073  0.89433  Biso   1.000  C
  H450     1.0000 0.54477  0.62513  0.89433  Biso   1.000  H
  C548     1.0000 0.49397  0.55703  0.84493  Biso   1.000  C
  C549     1.0000 0.44397  0.50673  0.84483  Biso   1.000  C
  C550     1.0000 0.41037  0.48973  0.89433  Biso   1.000  C
  H451     1.0000 0.37617  0.45533  0.89433  Biso   1.000  H
  C551     1.0000 0.33527  0.51183  0.16533  Biso   1.000  C
  H452     1.0000 0.29827  0.50843  0.16773  Biso   1.000  H
  H453     1.0000 0.35797  0.53353  0.19863  Biso   1.000  H
  H454     1.0000 0.35357  0.53073  0.12903  Biso   1.000  H
  C552     1.0000 0.32947  0.45923  0.16633  Biso   1.000  C
  N178     1.0000 0.33247  0.42993  0.11683  Biso   1.000  N
  C553     1.0000 0.34227  0.38703  0.13683  Biso   1.000  C
  H455     1.0000 0.34607  0.36103  0.11293  Biso   1.000  H
  C554     1.0000 0.34527  0.38963  0.19863  Biso   1.000  C
  H456     1.0000 0.35147  0.36573  0.22343  Biso   1.000  H
  N179     1.0000 0.33737  0.43433  0.21693  Biso   1.000  N
  N180     1.0000 0.40217  0.52113  0.99883  Biso   1.000  N
  N181     1.0000 0.48277  0.60213  0.00133  Biso   1.000  N
  C555     1.0000 0.20897  0.15983  0.99383  Biso   1.000  C
  H457     1.0000 0.22937  0.13953  0.99803  Biso   1.000  H
  H458     1.0000 0.18267  0.15033  0.02623  Biso   1.000  H
  H459     1.0000 0.18847  0.14953  0.95683  Biso   1.000  H
  O14      1.0000 0.49957  0.50073  0.93603  Biso   1.000  O
  C556     1.0000 0.43067  0.47933  0.79633  Biso   1.000  C
  C557     1.0000 0.51667  0.56433  0.79333  Biso   1.000  C
  C558     1.0000 0.51337  0.48703  0.81733  Biso   1.000  C
  C559     1.0000 0.48247  0.51723  0.90433  Biso   1.000  C
  N182     1.0000 0.48277  0.51793  0.85293  Biso   1.000  N
  C560     1.0000 0.25207  0.40293  0.78563  Biso   1.000  C
  H460     1.0000 0.25707  0.37033  0.78523  Biso   1.000  H
  H461     1.0000 0.22487  0.39863  0.75573  Biso   1.000  H
  H462     1.0000 0.28797  0.43663  0.77753  Biso   1.000  H
  Zn29     1.0000 0.21485  0.00038  0.36701  Biso   1.000  Zn
  Zn30     1.0000 0.99967  0.78519  0.36701  Biso   1.000  Zn
  N183     1.0000 0.84643  0.77387  0.33737  Biso   1.000  N
  N184     1.0000 0.92783  0.77427  0.33657  Biso   1.000  N
  C561     1.0000 0.00093  0.77477  0.50017  Biso   1.000  C
  N185     1.0000 0.99933  0.80387  0.44987  Biso   1.000  N
  C562     1.0000 0.99863  0.85247  0.46867  Biso   1.000  C
  H463     1.0000 0.99753  0.87957  0.44407  Biso   1.000  H
  C563     1.0000 0.99983  0.85337  0.53057  Biso   1.000  C
  H464     1.0000 0.99963  0.88117  0.55467  Biso   1.000  H
  N186     1.0000 0.00123  0.80537  0.55007  Biso   1.000  N
  C564     1.0000 0.89013  0.77957  0.36657  Biso   1.000  C
  H465     1.0000 0.89423  0.78717  0.40727  Biso   1.000  H
  N187     1.0000 0.05523  0.67567  0.32377  Biso   1.000  N
  N188     1.0000 0.00953  0.72237  0.34297  Biso   1.000  N
  C565     1.0000 0.97123  0.66637  0.33937  Biso   1.000  C
  C566     1.0000 0.90613  0.76327  0.28087  Biso   1.000  C
  C567     1.0000 0.85543  0.76247  0.28197  Biso   1.000  C
  C568     1.0000 0.99913  0.63707  0.32737  Biso   1.000  C
  C569     1.0000 0.05823  0.72417  0.33317  Biso   1.000  C
  H466     1.0000 0.09273  0.75817  0.33297  Biso   1.000  H
  C570     1.0000 0.82423  0.75257  0.23057  Biso   1.000  C
  H467     1.0000 0.79023  0.75327  0.23017  Biso   1.000  H
  C571     1.0000 0.92793  0.75297  0.23057  Biso   1.000  C
  H468     1.0000 0.96263  0.75367  0.23097  Biso   1.000  H
  C572     1.0000 0.84503  0.74157  0.18047  Biso   1.000  C
  C573     1.0000 0.89693  0.74177  0.18077  Biso   1.000  C
  C574     1.0000 0.05723  0.89367  0.30557  Biso   1.000  C
  N189     1.0000 0.05683  0.85577  0.34377  Biso   1.000  N
  N190     1.0000 0.13933  0.93807  0.34067  Biso   1.000  N
  C575     1.0000 0.10783  0.94467  0.30307  Biso   1.000  C
  C576     1.0000 0.81473  0.73677  0.11927  Biso   1.000  C
  H469     1.0000 0.81113  0.76997  0.11357  Biso   1.000  H
  H470     1.0000 0.83703  0.73407  0.08757  Biso   1.000  H
  H471     1.0000 0.77763  0.70337  0.11937  Biso   1.000  H
  C577     1.0000 0.91263  0.63877  0.34537  Biso   1.000  C
  H472     1.0000 0.89323  0.65837  0.35297  Biso   1.000  H
  C578     1.0000 0.97213  0.57947  0.32087  Biso   1.000  C
  H473     1.0000 0.99173  0.56027  0.31227  Biso   1.000  H
  C579     1.0000 0.88513  0.58097  0.33937  Biso   1.000  C
  C580     1.0000 0.91423  0.55187  0.32777  Biso   1.000  C
  C581     1.0000 0.99423  0.71787  0.50037  Biso   1.000  C
  H474     1.0000 0.03093  0.72077  0.49717  Biso   1.000  H
  H475     1.0000 0.97633  0.69877  0.53677  Biso   1.000  H
  H476     1.0000 0.97093  0.69647  0.46727  Biso   1.000  H
  C582     1.0000 0.10793  0.89177  0.36297  Biso   1.000  C
  C583     1.0000 0.82483  0.54267  0.34327  Biso   1.000  C
  H477     1.0000 0.80573  0.56407  0.34927  Biso   1.000  H
  H478     1.0000 0.81153  0.52117  0.30707  Biso   1.000  H
  H479     1.0000 0.81683  0.51717  0.37617  Biso   1.000  H
  C584     1.0000 0.13543  0.86497  0.41097  Biso   1.000  C
  H480     1.0000 0.15603  0.85027  0.38947  Biso   1.000  H
  H481     1.0000 0.16093  0.89437  0.43767  Biso   1.000  H
  H482     1.0000 0.10523  0.83467  0.43337  Biso   1.000  H
  C585     1.0000 0.09353  0.85667  0.27717  Biso   1.000  C
  C586     1.0000 0.14363  0.90717  0.27717  Biso   1.000  C
  C587     1.0000 0.17723  0.92407  0.22767  Biso   1.000  C
  H483     1.0000 0.21143  0.95847  0.22767  Biso   1.000  H
  C588     1.0000 0.16063  0.89037  0.17827  Biso   1.000  C
  C589     1.0000 0.11063  0.84007  0.17817  Biso   1.000  C
  C590     1.0000 0.07703  0.82307  0.22767  Biso   1.000  C
  H484     1.0000 0.04283  0.78867  0.22767  Biso   1.000  H
  C591     1.0000 0.00193  0.84517  0.49867  Biso   1.000  C
  H485     1.0000 0.96493  0.84177  0.50107  Biso   1.000  H
  H486     1.0000 0.02463  0.86687  0.53197  Biso   1.000  H
  H487     1.0000 0.02023  0.86407  0.46237  Biso   1.000  H
  C592     1.0000 0.99613  0.79257  0.49967  Biso   1.000  C
  N191     1.0000 0.99913  0.76327  0.45017  Biso   1.000  N
  C593     1.0000 0.00893  0.72037  0.47017  Biso   1.000  C
  H488     1.0000 0.01273  0.69437  0.44627  Biso   1.000  H
  C594     1.0000 0.01193  0.72297  0.53197  Biso   1.000  C
  H489     1.0000 0.01813  0.69907  0.55677  Biso   1.000  H
  N192     1.0000 0.00403  0.76767  0.55027  Biso   1.000  N
  N193     1.0000 0.06883  0.85447  0.33217  Biso   1.000  N
  N194     1.0000 0.14943  0.93547  0.33467  Biso   1.000  N
  C595     1.0000 0.87563  0.49317  0.32717  Biso   1.000  C
  H490     1.0000 0.89603  0.47287  0.33137  Biso   1.000  H
  H491     1.0000 0.84933  0.48367  0.35957  Biso   1.000  H
  H492     1.0000 0.85513  0.48287  0.29017  Biso   1.000  H
  O15      1.0000 0.16623  0.83407  0.26937  Biso   1.000  O
  C596     1.0000 0.09733  0.81267  0.12967  Biso   1.000  C
  C597     1.0000 0.18333  0.89767  0.12667  Biso   1.000  C
  C598     1.0000 0.18003  0.82037  0.15067  Biso   1.000  C
  C599     1.0000 0.14913  0.85057  0.23767  Biso   1.000  C
  N195     1.0000 0.14943  0.85127  0.18627  Biso   1.000  N
  C600     1.0000 0.91873  0.73627  0.11897  Biso   1.000  C
  H493     1.0000 0.92373  0.70367  0.11857  Biso   1.000  H
  H494     1.0000 0.89153  0.73197  0.08907  Biso   1.000  H
  H495     1.0000 0.95463  0.76997  0.11087  Biso   1.000  H
  Zn31     1.0000 0.66629  0.54781  0.70034  Biso   1.000  Zn
  Zn32     1.0000 0.88148  0.54782  0.70034  Biso   1.000  Zn
  N196     1.0000 0.89280  0.40590  0.67070  Biso   1.000  N
  N197     1.0000 0.89240  0.48690  0.66990  Biso   1.000  N
  C601     1.0000 0.89190  0.55950  0.83350  Biso   1.000  C
  N198     1.0000 0.86280  0.52880  0.78320  Biso   1.000  N
  C602     1.0000 0.81420  0.47950  0.80200  Biso   1.000  C
  H496     1.0000 0.78710  0.45130  0.77740  Biso   1.000  H
  C603     1.0000 0.81330  0.47980  0.86390  Biso   1.000  C
  H497     1.0000 0.78550  0.45180  0.88800  Biso   1.000  H
  N199     1.0000 0.86130  0.52920  0.88340  Biso   1.000  N
  C604     1.0000 0.88710  0.44390  0.69990  Biso   1.000  C
  H498     1.0000 0.87950  0.44040  0.74060  Biso   1.000  H
  N200     1.0000 0.99100  0.71290  0.65710  Biso   1.000  N
  N201     1.0000 0.94430  0.62050  0.67630  Biso   1.000  N
  C605     1.0000 0.00030  0.63820  0.67270  Biso   1.000  C
  C606     1.0000 0.90340  0.47620  0.61420  Biso   1.000  C
  C607     1.0000 0.90420  0.42630  0.61530  Biso   1.000  C
  C608     1.0000 0.02960  0.69540  0.66070  Biso   1.000  C
  C609     1.0000 0.94250  0.66740  0.66650  Biso   1.000  C
  H499     1.0000 0.90850  0.66790  0.66630  Biso   1.000  H
  C610     1.0000 0.91410  0.40500  0.56390  Biso   1.000  C
  H500     1.0000 0.91340  0.37030  0.56350  Biso   1.000  H
  C611     1.0000 0.91370  0.50830  0.56390  Biso   1.000  C
  H501     1.0000 0.91300  0.54230  0.56430  Biso   1.000  H
  C612     1.0000 0.92510  0.43680  0.51380  Biso   1.000  C
  C613     1.0000 0.92490  0.48850  0.51410  Biso   1.000  C
  C614     1.0000 0.77300  0.49690  0.63890  Biso   1.000  C
  N202     1.0000 0.81090  0.53440  0.67710  Biso   1.000  N
  N203     1.0000 0.72860  0.53460  0.67400  Biso   1.000  N
  C615     1.0000 0.72200  0.49650  0.63640  Biso   1.000  C
  C616     1.0000 0.92990  0.41130  0.45260  Biso   1.000  C
  H502     1.0000 0.89670  0.37450  0.44690  Biso   1.000  H
  H503     1.0000 0.93260  0.43630  0.42090  Biso   1.000  H
  H504     1.0000 0.96330  0.40760  0.45270  Biso   1.000  H
  C617     1.0000 0.02790  0.60720  0.67870  Biso   1.000  C
  H505     1.0000 0.00830  0.56820  0.68630  Biso   1.000  H
  C618     1.0000 0.08720  0.72600  0.65420  Biso   1.000  C
  H506     1.0000 0.10640  0.76480  0.64560  Biso   1.000  H
  C619     1.0000 0.08570  0.63750  0.67270  Biso   1.000  C
  C620     1.0000 0.11480  0.69570  0.66110  Biso   1.000  C
  C621     1.0000 0.94880  0.60970  0.83370  Biso   1.000  C
  H507     1.0000 0.94590  0.64350  0.83050  Biso   1.000  H
  H508     1.0000 0.96790  0.61090  0.87010  Biso   1.000  H
  H509     1.0000 0.97020  0.60780  0.80060  Biso   1.000  H
  C622     1.0000 0.77490  0.54950  0.69630  Biso   1.000  C
  C623     1.0000 0.12400  0.61550  0.67660  Biso   1.000  C
  H510     1.0000 0.10260  0.57500  0.68260  Biso   1.000  H
  H511     1.0000 0.14550  0.62370  0.64040  Biso   1.000  H
  H512     1.0000 0.14950  0.63300  0.70950  Biso   1.000  H
  C624     1.0000 0.80170  0.60380  0.74430  Biso   1.000  C
  H513     1.0000 0.81640  0.63910  0.72280  Biso   1.000  H
  H514     1.0000 0.77230  0.59990  0.77100  Biso   1.000  H
  H515     1.0000 0.83200  0.60390  0.76670  Biso   1.000  H
  C625     1.0000 0.81000  0.57020  0.61050  Biso   1.000  C
  C626     1.0000 0.75950  0.56980  0.61050  Biso   1.000  C
  C627     1.0000 0.74260  0.58650  0.56100  Biso   1.000  C
  H516     1.0000 0.70820  0.58630  0.56100  Biso   1.000  H
  C628     1.0000 0.77630  0.60360  0.51160  Biso   1.000  C
  C629     1.0000 0.82660  0.60390  0.51150  Biso   1.000  C
  C630     1.0000 0.84360  0.58730  0.56100  Biso   1.000  C
  H517     1.0000 0.87800  0.58750  0.56100  Biso   1.000  H
  C631     1.0000 0.82150  0.49010  0.83200  Biso   1.000  C
  H518     1.0000 0.82490  0.45650  0.83440  Biso   1.000  H
  H519     1.0000 0.79980  0.49110  0.86530  Biso   1.000  H
  H520     1.0000 0.80260  0.48950  0.79570  Biso   1.000  H
  C632     1.0000 0.87410  0.53690  0.83300  Biso   1.000  C
  N204     1.0000 0.90340  0.56920  0.78350  Biso   1.000  N
  C633     1.0000 0.94630  0.62190  0.80350  Biso   1.000  C
  H521     1.0000 0.97230  0.65170  0.77960  Biso   1.000  H
  C634     1.0000 0.94370  0.62230  0.86530  Biso   1.000  C
  H522     1.0000 0.96760  0.65240  0.89010  Biso   1.000  H
  N205     1.0000 0.89900  0.56970  0.88360  Biso   1.000  N
  N206     1.0000 0.81220  0.54770  0.66550  Biso   1.000  N
  N207     1.0000 0.73120  0.54730  0.66800  Biso   1.000  N
  C635     1.0000 0.17350  0.71580  0.66050  Biso   1.000  C
  H523     1.0000 0.19380  0.75650  0.66470  Biso   1.000  H
  H524     1.0000 0.18300  0.69900  0.69290  Biso   1.000  H
  H525     1.0000 0.18380  0.70560  0.62350  Biso   1.000  H
  O16      1.0000 0.83260  0.66550  0.60270  Biso   1.000  O
  C636     1.0000 0.85400  0.61800  0.46300  Biso   1.000  C
  C637     1.0000 0.76900  0.61900  0.46000  Biso   1.000  C
  C638     1.0000 0.84630  0.69300  0.48400  Biso   1.000  C
  C639     1.0000 0.81610  0.63190  0.57100  Biso   1.000  C
  N208     1.0000 0.81540  0.63150  0.51960  Biso   1.000  N
  C640     1.0000 0.93040  0.51580  0.45230  Biso   1.000  C
  H526     1.0000 0.96300  0.55340  0.45190  Biso   1.000  H
  H527     1.0000 0.93470  0.49290  0.42240  Biso   1.000  H
  H528     1.0000 0.89670  0.51800  0.44420  Biso   1.000  H
  Zn33     1.0000 0.33296  0.88114  0.03367  Biso   1.000  Zn
  Zn34     1.0000 0.54815  0.88115  0.03367  Biso   1.000  Zn
  N209     1.0000 0.55947  0.73923  0.00403  Biso   1.000  N
  N210     1.0000 0.55907  0.82023  0.00323  Biso   1.000  N
  C641     1.0000 0.55857  0.89283  0.16683  Biso   1.000  C
  N211     1.0000 0.52947  0.86213  0.11653  Biso   1.000  N
  C642     1.0000 0.48087  0.81283  0.13533  Biso   1.000  C
  H529     1.0000 0.45377  0.78463  0.11073  Biso   1.000  H
  C643     1.0000 0.47997  0.81313  0.19723  Biso   1.000  C
  H530     1.0000 0.45217  0.78513  0.22133  Biso   1.000  H
  N212     1.0000 0.52797  0.86253  0.21673  Biso   1.000  N
  C644     1.0000 0.55377  0.77723  0.03323  Biso   1.000  C
  H531     1.0000 0.54617  0.77373  0.07393  Biso   1.000  H
  N213     1.0000 0.65767  0.04623  0.99043  Biso   1.000  N
  N214     1.0000 0.61097  0.95383  0.00963  Biso   1.000  N
  C645     1.0000 0.66697  0.97153  0.00603  Biso   1.000  C
  C646     1.0000 0.57007  0.80953  0.94753  Biso   1.000  C
  C647     1.0000 0.57087  0.75963  0.94863  Biso   1.000  C
  C648     1.0000 0.69627  0.02873  0.99403  Biso   1.000  C
  C649     1.0000 0.60917  0.00073  0.99983  Biso   1.000  C
  H532     1.0000 0.57517  0.00123  0.99963  Biso   1.000  H
  C650     1.0000 0.58077  0.73833  0.89723  Biso   1.000  C
  H533     1.0000 0.58007  0.70363  0.89683  Biso   1.000  H
  C651     1.0000 0.58037  0.84163  0.89723  Biso   1.000  C
  H534     1.0000 0.57967  0.87563  0.89763  Biso   1.000  H
  C652     1.0000 0.59177  0.77013  0.84713  Biso   1.000  C
  C653     1.0000 0.59157  0.82183  0.84743  Biso   1.000  C
  C654     1.0000 0.43967  0.83023  0.97223  Biso   1.000  C
  N215     1.0000 0.47757  0.86773  0.01043  Biso   1.000  N
  N216     1.0000 0.39527  0.86793  0.00733  Biso   1.000  N
  C655     1.0000 0.38867  0.82983  0.96973  Biso   1.000  C
  C656     1.0000 0.59657  0.74463  0.78593  Biso   1.000  C
  H535     1.0000 0.56337  0.70783  0.78023  Biso   1.000  H
  H536     1.0000 0.59927  0.76963  0.75423  Biso   1.000  H
  H537     1.0000 0.62997  0.74093  0.78603  Biso   1.000  H
  C657     1.0000 0.69457  0.94053  0.01203  Biso   1.000  C
  H538     1.0000 0.67497  0.90153  0.01963  Biso   1.000  H
  C658     1.0000 0.75387  0.05933  0.98753  Biso   1.000  C
  H539     1.0000 0.77307  0.09813  0.97893  Biso   1.000  H
  C659     1.0000 0.75237  0.97083  0.00603  Biso   1.000  C
  C660     1.0000 0.78147  0.02903  0.99443  Biso   1.000  C
  C661     1.0000 0.61547  0.94303  0.16703  Biso   1.000  C
  H540     1.0000 0.61257  0.97683  0.16383  Biso   1.000  H
  H541     1.0000 0.63457  0.94423  0.20343  Biso   1.000  H
  H542     1.0000 0.63687  0.94113  0.13393  Biso   1.000  H
  C662     1.0000 0.44157  0.88283  0.02963  Biso   1.000  C
  C663     1.0000 0.79067  0.94883  0.00993  Biso   1.000  C
  H543     1.0000 0.76927  0.90833  0.01593  Biso   1.000  H
  H544     1.0000 0.81217  0.95703  0.97373  Biso   1.000  H
  H545     1.0000 0.81617  0.96633  0.04283  Biso   1.000  H
  C664     1.0000 0.46837  0.93713  0.07763  Biso   1.000  C
  H546     1.0000 0.48307  0.97243  0.05613  Biso   1.000  H
  H547     1.0000 0.43897  0.93323  0.10433  Biso   1.000  H
  H548     1.0000 0.49867  0.93723  0.10003  Biso   1.000  H
  C665     1.0000 0.47667  0.90353  0.94383  Biso   1.000  C
  C666     1.0000 0.42617  0.90313  0.94383  Biso   1.000  C
  C667     1.0000 0.40927  0.91983  0.89433  Biso   1.000  C
  H549     1.0000 0.37487  0.91963  0.89433  Biso   1.000  H
  C668     1.0000 0.44297  0.93693  0.84493  Biso   1.000  C
  C669     1.0000 0.49327  0.93723  0.84483  Biso   1.000  C
  C670     1.0000 0.51027  0.92063  0.89433  Biso   1.000  C
  H550     1.0000 0.54467  0.92083  0.89433  Biso   1.000  H
  C671     1.0000 0.48817  0.82343  0.16533  Biso   1.000  C
  H551     1.0000 0.49157  0.78983  0.16773  Biso   1.000  H
  H552     1.0000 0.46647  0.82443  0.19863  Biso   1.000  H
  H553     1.0000 0.46927  0.82283  0.12903  Biso   1.000  H
  C672     1.0000 0.54077  0.87023  0.16633  Biso   1.000  C
  N217     1.0000 0.57007  0.90253  0.11683  Biso   1.000  N
  C673     1.0000 0.61297  0.95523  0.13683  Biso   1.000  C
  H554     1.0000 0.63897  0.98503  0.11293  Biso   1.000  H
  C674     1.0000 0.61037  0.95563  0.19863  Biso   1.000  C
  H555     1.0000 0.63427  0.98573  0.22343  Biso   1.000  H
  N218     1.0000 0.56567  0.90303  0.21693  Biso   1.000  N
  N219     1.0000 0.47887  0.88103  0.99883  Biso   1.000  N
  N220     1.0000 0.39787  0.88063  0.00133  Biso   1.000  N
  C675     1.0000 0.84017  0.04913  0.99383  Biso   1.000  C
  H556     1.0000 0.86047  0.08983  0.99803  Biso   1.000  H
  H557     1.0000 0.84967  0.03233  0.02623  Biso   1.000  H
  H558     1.0000 0.85047  0.03893  0.95683  Biso   1.000  H
  O17      1.0000 0.49927  0.99883  0.93603  Biso   1.000  O
  C676     1.0000 0.52067  0.95133  0.79633  Biso   1.000  C
  C677     1.0000 0.43567  0.95233  0.79333  Biso   1.000  C
  C678     1.0000 0.51297  0.02633  0.81733  Biso   1.000  C
  C679     1.0000 0.48277  0.96523  0.90433  Biso   1.000  C
  N221     1.0000 0.48207  0.96483  0.85293  Biso   1.000  N
  C680     1.0000 0.59707  0.84913  0.78563  Biso   1.000  C
  H559     1.0000 0.62967  0.88673  0.78523  Biso   1.000  H
  H560     1.0000 0.60137  0.82623  0.75573  Biso   1.000  H
  H561     1.0000 0.56337  0.85133  0.77753  Biso   1.000  H
  Zn35     1.0000 0.99962  0.21448  0.36701  Biso   1.000  Zn
  Zn36     1.0000 0.21481  0.21449  0.36701  Biso   1.000  Zn
  N222     1.0000 0.22613  0.07257  0.33737  Biso   1.000  N
  N223     1.0000 0.22573  0.15357  0.33657  Biso   1.000  N
  C681     1.0000 0.22523  0.22617  0.50017  Biso   1.000  C
  N224     1.0000 0.19613  0.19547  0.44987  Biso   1.000  N
  C682     1.0000 0.14753  0.14617  0.46867  Biso   1.000  C
  H562     1.0000 0.12043  0.11797  0.44407  Biso   1.000  H
  C683     1.0000 0.14663  0.14647  0.53057  Biso   1.000  C
  H563     1.0000 0.11883  0.11847  0.55467  Biso   1.000  H
  N225     1.0000 0.19463  0.19587  0.55007  Biso   1.000  N
  C684     1.0000 0.22043  0.11057  0.36657  Biso   1.000  C
  H564     1.0000 0.21283  0.10707  0.40727  Biso   1.000  H
  N226     1.0000 0.32433  0.37957  0.32377  Biso   1.000  N
  N227     1.0000 0.27763  0.28717  0.34297  Biso   1.000  N
  C685     1.0000 0.33363  0.30487  0.33937  Biso   1.000  C
  C686     1.0000 0.23673  0.14287  0.28087  Biso   1.000  C
  C687     1.0000 0.23753  0.09297  0.28197  Biso   1.000  C
  C688     1.0000 0.36293  0.36207  0.32737  Biso   1.000  C
  C689     1.0000 0.27583  0.33407  0.33317  Biso   1.000  C
  H565     1.0000 0.24183  0.33457  0.33297  Biso   1.000  H
  C690     1.0000 0.24743  0.07167  0.23057  Biso   1.000  C
  H566     1.0000 0.24673  0.03697  0.23017  Biso   1.000  H
  C691     1.0000 0.24703  0.17497  0.23057  Biso   1.000  C
  H567     1.0000 0.24633  0.20897  0.23097  Biso   1.000  H
  C692     1.0000 0.25843  0.10347  0.18047  Biso   1.000  C
  C693     1.0000 0.25823  0.15517  0.18077  Biso   1.000  C
  C694     1.0000 0.10633  0.16357  0.30557  Biso   1.000  C
  N228     1.0000 0.14423  0.20107  0.34377  Biso   1.000  N
  N229     1.0000 0.06193  0.20127  0.34067  Biso   1.000  N
  C695     1.0000 0.05533  0.16317  0.30307  Biso   1.000  C
  C696     1.0000 0.26323  0.07797  0.11927  Biso   1.000  C
  H568     1.0000 0.23003  0.04117  0.11357  Biso   1.000  H
  H569     1.0000 0.26593  0.10297  0.08757  Biso   1.000  H
  H570     1.0000 0.29663  0.07427  0.11937  Biso   1.000  H
  C697     1.0000 0.36123  0.27387  0.34537  Biso   1.000  C
  H571     1.0000 0.34163  0.23487  0.35297  Biso   1.000  H
  C698     1.0000 0.42053  0.39267  0.32087  Biso   1.000  C
  H572     1.0000 0.43973  0.43147  0.31227  Biso   1.000  H
  C699     1.0000 0.41903  0.30417  0.33937  Biso   1.000  C
  C700     1.0000 0.44813  0.36237  0.32777  Biso   1.000  C
  C701     1.0000 0.28213  0.27637  0.50037  Biso   1.000  C
  H573     1.0000 0.27923  0.31017  0.49717  Biso   1.000  H
  H574     1.0000 0.30123  0.27757  0.53677  Biso   1.000  H
  H575     1.0000 0.30353  0.27447  0.46727  Biso   1.000  H
  C702     1.0000 0.10823  0.21617  0.36297  Biso   1.000  C
  C703     1.0000 0.45733  0.28217  0.34327  Biso   1.000  C
  H576     1.0000 0.43593  0.24167  0.34927  Biso   1.000  H
  H577     1.0000 0.47883  0.29037  0.30707  Biso   1.000  H
  H578     1.0000 0.48283  0.29967  0.37617  Biso   1.000  H
  C704     1.0000 0.13503  0.27047  0.41097  Biso   1.000  C
  H579     1.0000 0.14973  0.30577  0.38947  Biso   1.000  H
  H580     1.0000 0.10563  0.26657  0.43767  Biso   1.000  H
  H581     1.0000 0.16533  0.27057  0.43337  Biso   1.000  H
  C705     1.0000 0.14333  0.23687  0.27717  Biso   1.000  C
  C706     1.0000 0.09283  0.23647  0.27717  Biso   1.000  C
  C707     1.0000 0.07593  0.25317  0.22767  Biso   1.000  C
  H582     1.0000 0.04153  0.25297  0.22767  Biso   1.000  H
  C708     1.0000 0.10963  0.27027  0.17827  Biso   1.000  C
  C709     1.0000 0.15993  0.27057  0.17817  Biso   1.000  C
  C710     1.0000 0.17693  0.25397  0.22767  Biso   1.000  C
  H583     1.0000 0.21133  0.25417  0.22767  Biso   1.000  H
  C711     1.0000 0.15483  0.15677  0.49867  Biso   1.000  C
  H584     1.0000 0.15823  0.12317  0.50107  Biso   1.000  H
  H585     1.0000 0.13313  0.15777  0.53197  Biso   1.000  H
  H586     1.0000 0.13593  0.15617  0.46237  Biso   1.000  H
  C712     1.0000 0.20743  0.20357  0.49967  Biso   1.000  C
  N230     1.0000 0.23673  0.23587  0.45017  Biso   1.000  N
  C713     1.0000 0.27963  0.28857  0.47017  Biso   1.000  C
  H587     1.0000 0.30563  0.31837  0.44627  Biso   1.000  H
  C714     1.0000 0.27703  0.28897  0.53197  Biso   1.000  C
  H588     1.0000 0.30093  0.31907  0.55677  Biso   1.000  H
  N231     1.0000 0.23233  0.23637  0.55027  Biso   1.000  N
  N232     1.0000 0.14553  0.21437  0.33217  Biso   1.000  N
  N233     1.0000 0.06453  0.21397  0.33467  Biso   1.000  N
  C715     1.0000 0.50683  0.38247  0.32717  Biso   1.000  C
  H589     1.0000 0.52713  0.42317  0.33137  Biso   1.000  H
  H590     1.0000 0.51633  0.36567  0.35957  Biso   1.000  H
  H591     1.0000 0.51713  0.37227  0.29017  Biso   1.000  H
  O18      1.0000 0.16593  0.33217  0.26937  Biso   1.000  O
  C716     1.0000 0.18733  0.28467  0.12967  Biso   1.000  C
  C717     1.0000 0.10233  0.28567  0.12667  Biso   1.000  C
  C718     1.0000 0.17963  0.35967  0.15067  Biso   1.000  C
  C719     1.0000 0.14943  0.29857  0.23767  Biso   1.000  C
  N234     1.0000 0.14873  0.29817  0.18627  Biso   1.000  N
  C720     1.0000 0.26373  0.18247  0.11897  Biso   1.000  C
  H592     1.0000 0.29633  0.22007  0.11857  Biso   1.000  H
  H593     1.0000 0.26803  0.15957  0.08907  Biso   1.000  H
  H594     1.0000 0.23003  0.18467  0.11087  Biso   1.000  H
