data_image0
_cell_length_a       27.59
_cell_length_b       27.59
_cell_length_c       21.891
_cell_angle_alpha    90
_cell_angle_beta     90
_cell_angle_gamma    120

_symmetry_space_group_name_H-M    "P 1"
_symmetry_int_tables_number       1

loop_
  _symmetry_equiv_pos_as_xyz
  'x, y, z'

loop_
  _atom_site_label
  _atom_site_occupancy
  _atom_site_fract_x
  _atom_site_fract_y
  _atom_site_fract_z
  _atom_site_thermal_displace_type
  _atom_site_B_iso_or_equiv
  _atom_site_type_symbol
  Zn1      1.0000 0.88055  0.54806  0.47334  Biso   1.000  Zn
  Zn2      1.0000 0.66751  0.54801  0.47338  Biso   1.000  Zn
  N1       1.0000 0.59880  0.48220  0.50610  Biso   1.000  N
  N2       1.0000 0.66650  0.53060  0.28250  Biso   1.000  N
  N3       1.0000 0.51780  0.40090  0.50620  Biso   1.000  N
  N4       1.0000 0.81780  0.55370  0.50690  Biso   1.000  N
  N5       1.0000 0.66660  0.53090  0.38400  Biso   1.000  N
  N6       1.0000 0.73570  0.55310  0.50710  Biso   1.000  N
  C1       1.0000 0.55510  0.44500  0.47590  Biso   1.000  C
  C2       1.0000 0.78220  0.56120  0.48300  Biso   1.000  C
  C3       1.0000 0.66600  0.48430  0.30330  Biso   1.000  C
  H1       1.0000 0.66480  0.45570  0.27820  Biso   1.000  H
  C4       1.0000 0.66670  0.55760  0.33340  Biso   1.000  C
  C5       1.0000 0.52460  0.42390  0.56530  Biso   1.000  C
  C6       1.0000 0.57630  0.47470  0.56450  Biso   1.000  C
  C7       1.0000 0.73280  0.51170  0.55450  Biso   1.000  C
  H2       1.0000 0.70160  0.48930  0.58000  Biso   1.000  H
  C8       1.0000 0.49380  0.40400  0.61780  Biso   1.000  C
  H3       1.0000 0.45870  0.37030  0.61730  Biso   1.000  H
  C9       1.0000 0.59680  0.50670  0.61790  Biso   1.000  C
  H4       1.0000 0.63030  0.54200  0.61800  Biso   1.000  H
  C10      1.0000 0.56440  0.48340  0.67180  Biso   1.000  C
  C11      1.0000 0.51520  0.43420  0.67230  Biso   1.000  C
  C12      1.0000 0.77860  0.51200  0.55440  Biso   1.000  C
  H5       1.0000 0.78740  0.48960  0.58000  Biso   1.000  H
  C13      1.0000 0.79920  0.59800  0.42820  Biso   1.000  C
  H6       1.0000 0.83980  0.62360  0.42930  Biso   1.000  H
  H7       1.0000 0.77990  0.61960  0.42830  Biso   1.000  H
  H8       1.0000 0.78940  0.57500  0.39120  Biso   1.000  H
  C14      1.0000 0.66750  0.48460  0.36320  Biso   1.000  C
  H9       1.0000 0.66910  0.45720  0.38800  Biso   1.000  H
  C15      1.0000 0.66650  0.61370  0.33350  Biso   1.000  C
  H10      1.0000 0.70310  0.64390  0.31980  Biso   1.000  H
  H11      1.0000 0.65910  0.62170  0.37490  Biso   1.000  H
  H12      1.0000 0.63740  0.61090  0.30580  Biso   1.000  H
  Cl1      1.0000 0.59320  0.51960  0.73890  Biso   1.000  Cl
  N7       1.0000 0.04710  0.66120  0.50680  Biso   1.000  N
  N8       1.0000 0.95340  0.61380  0.49370  Biso   1.000  N
  C16      1.0000 0.99990  0.61370  0.50030  Biso   1.000  C
  H13      1.0000 0.00000  0.57930  0.50040  Biso   1.000  H
  C17      1.0000 0.03500  0.77900  0.43850  Biso   1.000  C
  C18      1.0000 0.97700  0.75120  0.43490  Biso   1.000  C
  C19      1.0000 0.94550  0.69690  0.45710  Biso   1.000  C
  C20      1.0000 0.97220  0.67040  0.48290  Biso   1.000  C
  C21      1.0000 0.03020  0.69820  0.48660  Biso   1.000  C
  C22      1.0000 0.06170  0.75250  0.46430  Biso   1.000  C
  Cl2      1.0000 0.06400  0.84990  0.41900  Biso   1.000  Cl
  Cl3      1.0000 0.90280  0.70510  0.68670  Biso   1.000  Cl
  C23      1.0000 0.77050  0.59160  0.55410  Biso   1.000  C
  C24      1.0000 0.82070  0.59140  0.55340  Biso   1.000  C
  C25      1.0000 0.76180  0.62530  0.60010  Biso   1.000  C
  C26      1.0000 0.53150  0.46780  0.42690  Biso   1.000  C
  H14      1.0000 0.51230  0.48540  0.44680  Biso   1.000  H
  H15      1.0000 0.50500  0.43700  0.40090  Biso   1.000  H
  H16      1.0000 0.56230  0.49570  0.40180  Biso   1.000  H
  C27      1.0000 0.60130  0.44550  0.55150  Biso   1.000  C
  H17      1.0000 0.63250  0.45440  0.57710  Biso   1.000  H
  C28      1.0000 0.55460  0.39890  0.55180  Biso   1.000  C
  H18      1.0000 0.54570  0.36810  0.57790  Biso   1.000  H
  C29      1.0000 0.77130  0.54400  0.47300  Biso   1.000  C
  C30      1.0000 0.86450  0.62730  0.59920  Biso   1.000  C
  C31      1.0000 0.80230  0.65550  0.63780  Biso   1.000  C
  C32      1.0000 0.75620  0.70050  0.47510  Biso   1.000  C
  C33      1.0000 0.69850  0.67050  0.48350  Biso   1.000  C
  C34      1.0000 0.66860  0.69850  0.48880  Biso   1.000  C
  C35      1.0000 0.69640  0.75660  0.48590  Biso   1.000  C
  C36      1.0000 0.75400  0.78670  0.47750  Biso   1.000  C
  C37      1.0000 0.78390  0.75860  0.47220  Biso   1.000  C
  C38      1.0000 0.85250  0.65690  0.63660  Biso   1.000  C
  C39      1.0000 0.69200  0.75200  0.46200  Biso   1.000  C
  C40      1.0000 0.73790  0.78420  0.42700  Biso   1.000  C
  C41      1.0000 0.74900  0.69100  0.45600  Biso   1.000  C
  C42      1.0000 0.77530  0.75100  0.43800  Biso   1.000  C
  C43      1.0000 0.69800  0.75600  0.51900  Biso   1.000  C
  C44      1.0000 0.76300  0.78410  0.52750  Biso   1.000  C
  C45      1.0000 0.75800  0.69900  0.51000  Biso   1.000  C
  Cl4      1.0000 0.79250  0.85520  0.47400  Biso   1.000  Cl
  Cl5      1.0000 0.85330  0.79690  0.46000  Biso   1.000  Cl
  Cl6      1.0000 0.84110  0.78290  0.40400  Biso   1.000  Cl
  Cl7      1.0000 0.78510  0.84970  0.41800  Biso   1.000  Cl
  Cl8      1.0000 0.85620  0.79070  0.53100  Biso   1.000  Cl
  Cl9      1.0000 0.78050  0.84030  0.59800  Biso   1.000  Cl
  Cl10     1.0000 0.79660  0.85340  0.54700  Biso   1.000  Cl
  C46      1.0000 0.78940  0.75350  0.52100  Biso   1.000  C
  Cl11     1.0000 0.47960  0.40660  0.73880  Biso   1.000  Cl
  Cl12     1.0000 0.86440  0.62910  0.64640  Biso   1.000  Cl
  Zn3      1.0000 0.54722  0.88139  0.80667  Biso   1.000  Zn
  Zn4      1.0000 0.33418  0.88134  0.80671  Biso   1.000  Zn
  N9       1.0000 0.26547  0.81553  0.83943  Biso   1.000  N
  N10      1.0000 0.33317  0.86393  0.61583  Biso   1.000  N
  N11      1.0000 0.18447  0.73423  0.83953  Biso   1.000  N
  N12      1.0000 0.48447  0.88703  0.84023  Biso   1.000  N
  N13      1.0000 0.33327  0.86423  0.71733  Biso   1.000  N
  N14      1.0000 0.40237  0.88643  0.84043  Biso   1.000  N
  C47      1.0000 0.22177  0.77833  0.80923  Biso   1.000  C
  C48      1.0000 0.44887  0.89453  0.81633  Biso   1.000  C
  C49      1.0000 0.33267  0.81763  0.63663  Biso   1.000  C
  H19      1.0000 0.33147  0.78903  0.61153  Biso   1.000  H
  C50      1.0000 0.33337  0.89093  0.66673  Biso   1.000  C
  C51      1.0000 0.19127  0.75723  0.89863  Biso   1.000  C
  C52      1.0000 0.24297  0.80803  0.89783  Biso   1.000  C
  C53      1.0000 0.39947  0.84503  0.88783  Biso   1.000  C
  H20      1.0000 0.36827  0.82263  0.91333  Biso   1.000  H
  C54      1.0000 0.16047  0.73733  0.95113  Biso   1.000  C
  H21      1.0000 0.12537  0.70363  0.95063  Biso   1.000  H
  C55      1.0000 0.26347  0.84003  0.95123  Biso   1.000  C
  H22      1.0000 0.29697  0.87533  0.95133  Biso   1.000  H
  C56      1.0000 0.23107  0.81673  0.00513  Biso   1.000  C
  C57      1.0000 0.18187  0.76753  0.00563  Biso   1.000  C
  C58      1.0000 0.44527  0.84533  0.88773  Biso   1.000  C
  H23      1.0000 0.45407  0.82293  0.91333  Biso   1.000  H
  C59      1.0000 0.46587  0.93133  0.76153  Biso   1.000  C
  H24      1.0000 0.50647  0.95693  0.76263  Biso   1.000  H
  H25      1.0000 0.44657  0.95293  0.76163  Biso   1.000  H
  H26      1.0000 0.45607  0.90833  0.72453  Biso   1.000  H
  C60      1.0000 0.33417  0.81793  0.69653  Biso   1.000  C
  H27      1.0000 0.33577  0.79053  0.72133  Biso   1.000  H
  C61      1.0000 0.33317  0.94703  0.66683  Biso   1.000  C
  H28      1.0000 0.36977  0.97723  0.65313  Biso   1.000  H
  H29      1.0000 0.32577  0.95503  0.70823  Biso   1.000  H
  H30      1.0000 0.30407  0.94423  0.63913  Biso   1.000  H
  Cl13     1.0000 0.25987  0.85293  0.07223  Biso   1.000  Cl
  N15      1.0000 0.71377  0.99453  0.84013  Biso   1.000  N
  N16      1.0000 0.62007  0.94713  0.82703  Biso   1.000  N
  C62      1.0000 0.66657  0.94703  0.83363  Biso   1.000  C
  H31      1.0000 0.66667  0.91263  0.83373  Biso   1.000  H
  C63      1.0000 0.70167  0.11233  0.77183  Biso   1.000  C
  C64      1.0000 0.64367  0.08453  0.76823  Biso   1.000  C
  C65      1.0000 0.61217  0.03023  0.79043  Biso   1.000  C
  C66      1.0000 0.63887  0.00373  0.81623  Biso   1.000  C
  C67      1.0000 0.69687  0.03153  0.81993  Biso   1.000  C
  C68      1.0000 0.72837  0.08583  0.79763  Biso   1.000  C
  Cl14     1.0000 0.73067  0.18323  0.75233  Biso   1.000  Cl
  Cl15     1.0000 0.56947  0.03843  0.02003  Biso   1.000  Cl
  C69      1.0000 0.43717  0.92493  0.88743  Biso   1.000  C
  C70      1.0000 0.48737  0.92473  0.88673  Biso   1.000  C
  C71      1.0000 0.42847  0.95863  0.93343  Biso   1.000  C
  C72      1.0000 0.19817  0.80113  0.76023  Biso   1.000  C
  H32      1.0000 0.17897  0.81873  0.78013  Biso   1.000  H
  H33      1.0000 0.17167  0.77033  0.73423  Biso   1.000  H
  H34      1.0000 0.22897  0.82903  0.73513  Biso   1.000  H
  C73      1.0000 0.26797  0.77883  0.88483  Biso   1.000  C
  H35      1.0000 0.29917  0.78773  0.91043  Biso   1.000  H
  C74      1.0000 0.22127  0.73223  0.88513  Biso   1.000  C
  H36      1.0000 0.21237  0.70143  0.91123  Biso   1.000  H
  C75      1.0000 0.43797  0.87733  0.80633  Biso   1.000  C
  C76      1.0000 0.53117  0.96063  0.93253  Biso   1.000  C
  C77      1.0000 0.46897  0.98883  0.97113  Biso   1.000  C
  C78      1.0000 0.42287  0.03383  0.80843  Biso   1.000  C
  C79      1.0000 0.36517  0.00383  0.81683  Biso   1.000  C
  C80      1.0000 0.33527  0.03183  0.82213  Biso   1.000  C
  C81      1.0000 0.36307  0.08993  0.81923  Biso   1.000  C
  C82      1.0000 0.42067  0.12003  0.81083  Biso   1.000  C
  C83      1.0000 0.45057  0.09193  0.80553  Biso   1.000  C
  C84      1.0000 0.51917  0.99023  0.96993  Biso   1.000  C
  C85      1.0000 0.35867  0.08533  0.79533  Biso   1.000  C
  C86      1.0000 0.40457  0.11753  0.76033  Biso   1.000  C
  C87      1.0000 0.41567  0.02433  0.78933  Biso   1.000  C
  C88      1.0000 0.44197  0.08433  0.77133  Biso   1.000  C
  C89      1.0000 0.36467  0.08933  0.85233  Biso   1.000  C
  C90      1.0000 0.42967  0.11743  0.86083  Biso   1.000  C
  C91      1.0000 0.42467  0.03233  0.84333  Biso   1.000  C
  Cl16     1.0000 0.45917  0.18853  0.80733  Biso   1.000  Cl
  Cl17     1.0000 0.51997  0.13023  0.79333  Biso   1.000  Cl
  Cl18     1.0000 0.50777  0.11623  0.73733  Biso   1.000  Cl
  Cl19     1.0000 0.45177  0.18303  0.75133  Biso   1.000  Cl
  Cl20     1.0000 0.52287  0.12403  0.86433  Biso   1.000  Cl
  Cl21     1.0000 0.44717  0.17363  0.93133  Biso   1.000  Cl
  Cl22     1.0000 0.46327  0.18673  0.88033  Biso   1.000  Cl
  C92      1.0000 0.45607  0.08683  0.85433  Biso   1.000  C
  Cl23     1.0000 0.14627  0.73993  0.07213  Biso   1.000  Cl
  Cl24     1.0000 0.53107  0.96243  0.97973  Biso   1.000  Cl
  Zn5      1.0000 0.21388  0.21473  0.14001  Biso   1.000  Zn
  Zn6      1.0000 0.00084  0.21468  0.14005  Biso   1.000  Zn
  N17      1.0000 0.93213  0.14887  0.17277  Biso   1.000  N
  N18      1.0000 0.99983  0.19727  0.94917  Biso   1.000  N
  N19      1.0000 0.85113  0.06757  0.17287  Biso   1.000  N
  N20      1.0000 0.15113  0.22037  0.17357  Biso   1.000  N
  N21      1.0000 0.99993  0.19757  0.05067  Biso   1.000  N
  N22      1.0000 0.06903  0.21977  0.17377  Biso   1.000  N
  C93      1.0000 0.88843  0.11167  0.14257  Biso   1.000  C
  C94      1.0000 0.11553  0.22787  0.14967  Biso   1.000  C
  C95      1.0000 0.99933  0.15097  0.96997  Biso   1.000  C
  H37      1.0000 0.99813  0.12237  0.94487  Biso   1.000  H
  C96      1.0000 0.00003  0.22427  0.00007  Biso   1.000  C
  C97      1.0000 0.85793  0.09057  0.23197  Biso   1.000  C
  C98      1.0000 0.90963  0.14137  0.23117  Biso   1.000  C
  C99      1.0000 0.06613  0.17837  0.22117  Biso   1.000  C
  H38      1.0000 0.03493  0.15597  0.24667  Biso   1.000  H
  C100     1.0000 0.82713  0.07067  0.28447  Biso   1.000  C
  H39      1.0000 0.79203  0.03697  0.28397  Biso   1.000  H
  C101     1.0000 0.93013  0.17337  0.28457  Biso   1.000  C
  H40      1.0000 0.96363  0.20867  0.28467  Biso   1.000  H
  C102     1.0000 0.89773  0.15007  0.33847  Biso   1.000  C
  C103     1.0000 0.84853  0.10087  0.33897  Biso   1.000  C
  C104     1.0000 0.11193  0.17867  0.22107  Biso   1.000  C
  H41      1.0000 0.12073  0.15627  0.24667  Biso   1.000  H
  C105     1.0000 0.13253  0.26467  0.09487  Biso   1.000  C
  H42      1.0000 0.17313  0.29027  0.09597  Biso   1.000  H
  H43      1.0000 0.11323  0.28627  0.09497  Biso   1.000  H
  H44      1.0000 0.12273  0.24167  0.05787  Biso   1.000  H
  C106     1.0000 0.00083  0.15127  0.02987  Biso   1.000  C
  H45      1.0000 0.00243  0.12387  0.05467  Biso   1.000  H
  C107     1.0000 0.99983  0.28037  0.00017  Biso   1.000  C
  H46      1.0000 0.03643  0.31057  0.98647  Biso   1.000  H
  H47      1.0000 0.99243  0.28837  0.04157  Biso   1.000  H
  H48      1.0000 0.97073  0.27757  0.97247  Biso   1.000  H
  Cl25     1.0000 0.92653  0.18627  0.40557  Biso   1.000  Cl
  N23      1.0000 0.38043  0.32787  0.17347  Biso   1.000  N
  N24      1.0000 0.28673  0.28047  0.16037  Biso   1.000  N
  C108     1.0000 0.33323  0.28037  0.16697  Biso   1.000  C
  H49      1.0000 0.33333  0.24597  0.16707  Biso   1.000  H
  C109     1.0000 0.36833  0.44567  0.10517  Biso   1.000  C
  C110     1.0000 0.31033  0.41787  0.10157  Biso   1.000  C
  C111     1.0000 0.27883  0.36357  0.12377  Biso   1.000  C
  C112     1.0000 0.30553  0.33707  0.14957  Biso   1.000  C
  C113     1.0000 0.36353  0.36487  0.15327  Biso   1.000  C
  C114     1.0000 0.39503  0.41917  0.13097  Biso   1.000  C
  Cl26     1.0000 0.39733  0.51657  0.08567  Biso   1.000  Cl
  Cl27     1.0000 0.23613  0.37177  0.35337  Biso   1.000  Cl
  C115     1.0000 0.10383  0.25827  0.22077  Biso   1.000  C
  C116     1.0000 0.15403  0.25807  0.22007  Biso   1.000  C
  C117     1.0000 0.09513  0.29197  0.26677  Biso   1.000  C
  C118     1.0000 0.86483  0.13447  0.09357  Biso   1.000  C
  H50      1.0000 0.84563  0.15207  0.11347  Biso   1.000  H
  H51      1.0000 0.83833  0.10367  0.06757  Biso   1.000  H
  H52      1.0000 0.89563  0.16237  0.06847  Biso   1.000  H
  C119     1.0000 0.93463  0.11217  0.21817  Biso   1.000  C
  H53      1.0000 0.96583  0.12107  0.24377  Biso   1.000  H
  C120     1.0000 0.88793  0.06557  0.21847  Biso   1.000  C
  H54      1.0000 0.87903  0.03477  0.24457  Biso   1.000  H
  C121     1.0000 0.10463  0.21067  0.13967  Biso   1.000  C
  C122     1.0000 0.19783  0.29397  0.26587  Biso   1.000  C
  C123     1.0000 0.13563  0.32217  0.30447  Biso   1.000  C
  C124     1.0000 0.08953  0.36717  0.14177  Biso   1.000  C
  C125     1.0000 0.03183  0.33717  0.15017  Biso   1.000  C
  C126     1.0000 0.00193  0.36517  0.15547  Biso   1.000  C
  C127     1.0000 0.02973  0.42327  0.15257  Biso   1.000  C
  C128     1.0000 0.08733  0.45337  0.14417  Biso   1.000  C
  C129     1.0000 0.11723  0.42527  0.13887  Biso   1.000  C
  C130     1.0000 0.18583  0.32357  0.30327  Biso   1.000  C
  C131     1.0000 0.02533  0.41867  0.12867  Biso   1.000  C
  C132     1.0000 0.07123  0.45087  0.09367  Biso   1.000  C
  C133     1.0000 0.08233  0.35767  0.12267  Biso   1.000  C
  C134     1.0000 0.10863  0.41767  0.10467  Biso   1.000  C
  C135     1.0000 0.03133  0.42267  0.18567  Biso   1.000  C
  C136     1.0000 0.09633  0.45077  0.19417  Biso   1.000  C
  C137     1.0000 0.09133  0.36567  0.17667  Biso   1.000  C
  Cl28     1.0000 0.12583  0.52187  0.14067  Biso   1.000  Cl
  Cl29     1.0000 0.18663  0.46357  0.12667  Biso   1.000  Cl
  Cl30     1.0000 0.17443  0.44957  0.07067  Biso   1.000  Cl
  Cl31     1.0000 0.11843  0.51637  0.08467  Biso   1.000  Cl
  Cl32     1.0000 0.18953  0.45737  0.19767  Biso   1.000  Cl
  Cl33     1.0000 0.11383  0.50697  0.26467  Biso   1.000  Cl
  Cl34     1.0000 0.12993  0.52007  0.21367  Biso   1.000  Cl
  C138     1.0000 0.12273  0.42017  0.18767  Biso   1.000  C
  Cl35     1.0000 0.81293  0.07327  0.40547  Biso   1.000  Cl
  Cl36     1.0000 0.19773  0.29577  0.31307  Biso   1.000  Cl
  Zn7      1.0000 0.45194  0.33249  0.47334  Biso   1.000  Zn
  Zn8      1.0000 0.45199  0.11950  0.47338  Biso   1.000  Zn
  N25      1.0000 0.51780  0.11660  0.50610  Biso   1.000  N
  N26      1.0000 0.46940  0.13590  0.28250  Biso   1.000  N
  N27      1.0000 0.59910  0.11690  0.50620  Biso   1.000  N
  N28      1.0000 0.44630  0.26410  0.50690  Biso   1.000  N
  N29      1.0000 0.46910  0.13570  0.38400  Biso   1.000  N
  N30      1.0000 0.44690  0.18260  0.50710  Biso   1.000  N
  C139     1.0000 0.55500  0.11010  0.47590  Biso   1.000  C
  C140     1.0000 0.43880  0.22100  0.48300  Biso   1.000  C
  C141     1.0000 0.51570  0.18170  0.30330  Biso   1.000  C
  H55      1.0000 0.54430  0.20910  0.27820  Biso   1.000  H
  C142     1.0000 0.44240  0.10910  0.33340  Biso   1.000  C
  C143     1.0000 0.57610  0.10070  0.56530  Biso   1.000  C
  C144     1.0000 0.52530  0.10160  0.56450  Biso   1.000  C
  C145     1.0000 0.48830  0.22110  0.55450  Biso   1.000  C
  H56      1.0000 0.51070  0.21230  0.58000  Biso   1.000  H
  C146     1.0000 0.59600  0.08980  0.61780  Biso   1.000  C
  H57      1.0000 0.62970  0.08840  0.61730  Biso   1.000  H
  C147     1.0000 0.49330  0.09010  0.61790  Biso   1.000  C
  H58      1.0000 0.45800  0.08830  0.61800  Biso   1.000  H
  C148     1.0000 0.51660  0.08100  0.67180  Biso   1.000  C
  C149     1.0000 0.56580  0.08100  0.67230  Biso   1.000  C
  C150     1.0000 0.48800  0.26660  0.55440  Biso   1.000  C
  H59      1.0000 0.51040  0.29780  0.58000  Biso   1.000  H
  C151     1.0000 0.40200  0.20120  0.42820  Biso   1.000  C
  H60      1.0000 0.37640  0.21620  0.42930  Biso   1.000  H
  H61      1.0000 0.38040  0.16030  0.42830  Biso   1.000  H
  H62      1.0000 0.42500  0.21440  0.39120  Biso   1.000  H
  C152     1.0000 0.51540  0.18290  0.36320  Biso   1.000  C
  H63      1.0000 0.54280  0.21190  0.38800  Biso   1.000  H
  C153     1.0000 0.38630  0.05280  0.33350  Biso   1.000  C
  H64      1.0000 0.35610  0.05920  0.31980  Biso   1.000  H
  H65      1.0000 0.37830  0.03740  0.37490  Biso   1.000  H
  H66      1.0000 0.38910  0.02650  0.30580  Biso   1.000  H
  Cl37     1.0000 0.48040  0.07360  0.73890  Biso   1.000  Cl
  N31      1.0000 0.33880  0.38590  0.50680  Biso   1.000  N
  N32      1.0000 0.38620  0.33960  0.49370  Biso   1.000  N
  C154     1.0000 0.38630  0.38620  0.50030  Biso   1.000  C
  H67      1.0000 0.42070  0.42070  0.50040  Biso   1.000  H
  C155     1.0000 0.22100  0.25600  0.43850  Biso   1.000  C
  C156     1.0000 0.24880  0.22580  0.43490  Biso   1.000  C
  C157     1.0000 0.30310  0.24860  0.45710  Biso   1.000  C
  C158     1.0000 0.32960  0.30180  0.48290  Biso   1.000  C
  C159     1.0000 0.30180  0.33200  0.48660  Biso   1.000  C
  C160     1.0000 0.24750  0.30920  0.46430  Biso   1.000  C
  Cl38     1.0000 0.15010  0.21410  0.41900  Biso   1.000  Cl
  Cl39     1.0000 0.29490  0.19770  0.68670  Biso   1.000  Cl
  C161     1.0000 0.40840  0.17890  0.55410  Biso   1.000  C
  C162     1.0000 0.40860  0.22930  0.55340  Biso   1.000  C
  C163     1.0000 0.37470  0.13650  0.60010  Biso   1.000  C
  C164     1.0000 0.53220  0.06370  0.42690  Biso   1.000  C
  H68      1.0000 0.51460  0.02690  0.44680  Biso   1.000  H
  H69      1.0000 0.56300  0.06800  0.40090  Biso   1.000  H
  H70      1.0000 0.50430  0.06660  0.40180  Biso   1.000  H
  C165     1.0000 0.55450  0.15580  0.55150  Biso   1.000  C
  H71      1.0000 0.54560  0.17810  0.57710  Biso   1.000  H
  C166     1.0000 0.60110  0.15570  0.55180  Biso   1.000  C
  H72      1.0000 0.63190  0.17760  0.57790  Biso   1.000  H
  C167     1.0000 0.45600  0.22730  0.47300  Biso   1.000  C
  C168     1.0000 0.37270  0.23720  0.59920  Biso   1.000  C
  C169     1.0000 0.34450  0.14680  0.63780  Biso   1.000  C
  C170     1.0000 0.29950  0.05570  0.47510  Biso   1.000  C
  C171     1.0000 0.32950  0.02800  0.48350  Biso   1.000  C
  C172     1.0000 0.30150  0.97010  0.48880  Biso   1.000  C
  C173     1.0000 0.24340  0.93980  0.48590  Biso   1.000  C
  C174     1.0000 0.21330  0.96730  0.47750  Biso   1.000  C
  C175     1.0000 0.24140  0.02530  0.47220  Biso   1.000  C
  C176     1.0000 0.34310  0.19560  0.63660  Biso   1.000  C
  C177     1.0000 0.24800  0.94000  0.46200  Biso   1.000  C
  C178     1.0000 0.21580  0.95370  0.42700  Biso   1.000  C
  C179     1.0000 0.30900  0.05800  0.45600  Biso   1.000  C
  C180     1.0000 0.24900  0.02430  0.43800  Biso   1.000  C
  C181     1.0000 0.24400  0.94200  0.51900  Biso   1.000  C
  C182     1.0000 0.21590  0.97890  0.52750  Biso   1.000  C
  C183     1.0000 0.30100  0.05900  0.51000  Biso   1.000  C
  Cl40     1.0000 0.14480  0.93730  0.47400  Biso   1.000  Cl
  Cl41     1.0000 0.20310  0.05640  0.46000  Biso   1.000  Cl
  Cl42     1.0000 0.21710  0.05820  0.40400  Biso   1.000  Cl
  Cl43     1.0000 0.15030  0.93540  0.41800  Biso   1.000  Cl
  Cl44     1.0000 0.20930  0.06550  0.53100  Biso   1.000  Cl
  Cl45     1.0000 0.15970  0.94020  0.59800  Biso   1.000  Cl
  Cl46     1.0000 0.14660  0.94320  0.54700  Biso   1.000  Cl
  C184     1.0000 0.24650  0.03590  0.52100  Biso   1.000  C
  Cl47     1.0000 0.59340  0.07300  0.73880  Biso   1.000  Cl
  Cl48     1.0000 0.37090  0.23530  0.64640  Biso   1.000  Cl
  Zn9      1.0000 0.11861  0.66582  0.80667  Biso   1.000  Zn
  Zn10     1.0000 0.11866  0.45283  0.80671  Biso   1.000  Zn
  N33      1.0000 0.18447  0.44993  0.83943  Biso   1.000  N
  N34      1.0000 0.13607  0.46923  0.61583  Biso   1.000  N
  N35      1.0000 0.26577  0.45023  0.83953  Biso   1.000  N
  N36      1.0000 0.11297  0.59743  0.84023  Biso   1.000  N
  N37      1.0000 0.13577  0.46903  0.71733  Biso   1.000  N
  N38      1.0000 0.11357  0.51593  0.84043  Biso   1.000  N
  C185     1.0000 0.22167  0.44343  0.80923  Biso   1.000  C
  C186     1.0000 0.10547  0.55433  0.81633  Biso   1.000  C
  C187     1.0000 0.18237  0.51503  0.63663  Biso   1.000  C
  H73      1.0000 0.21097  0.54243  0.61153  Biso   1.000  H
  C188     1.0000 0.10907  0.44243  0.66673  Biso   1.000  C
  C189     1.0000 0.24277  0.43403  0.89863  Biso   1.000  C
  C190     1.0000 0.19197  0.43493  0.89783  Biso   1.000  C
  C191     1.0000 0.15497  0.55443  0.88783  Biso   1.000  C
  H74      1.0000 0.17737  0.54563  0.91333  Biso   1.000  H
  C192     1.0000 0.26267  0.42313  0.95113  Biso   1.000  C
  H75      1.0000 0.29637  0.42173  0.95063  Biso   1.000  H
  C193     1.0000 0.15997  0.42343  0.95123  Biso   1.000  C
  H76      1.0000 0.12467  0.42163  0.95133  Biso   1.000  H
  C194     1.0000 0.18327  0.41433  0.00513  Biso   1.000  C
  C195     1.0000 0.23247  0.41433  0.00563  Biso   1.000  C
  C196     1.0000 0.15467  0.59993  0.88773  Biso   1.000  C
  H77      1.0000 0.17707  0.63113  0.91333  Biso   1.000  H
  C197     1.0000 0.06867  0.53453  0.76153  Biso   1.000  C
  H78      1.0000 0.04307  0.54953  0.76263  Biso   1.000  H
  H79      1.0000 0.04707  0.49363  0.76163  Biso   1.000  H
  H80      1.0000 0.09167  0.54773  0.72453  Biso   1.000  H
  C198     1.0000 0.18207  0.51623  0.69653  Biso   1.000  C
  H81      1.0000 0.20947  0.54523  0.72133  Biso   1.000  H
  C199     1.0000 0.05297  0.38613  0.66683  Biso   1.000  C
  H82      1.0000 0.02277  0.39253  0.65313  Biso   1.000  H
  H83      1.0000 0.04497  0.37073  0.70823  Biso   1.000  H
  H84      1.0000 0.05577  0.35983  0.63913  Biso   1.000  H
  Cl49     1.0000 0.14707  0.40693  0.07223  Biso   1.000  Cl
  N39      1.0000 0.00547  0.71923  0.84013  Biso   1.000  N
  N40      1.0000 0.05287  0.67293  0.82703  Biso   1.000  N
  C200     1.0000 0.05297  0.71953  0.83363  Biso   1.000  C
  H85      1.0000 0.08737  0.75403  0.83373  Biso   1.000  H
  C201     1.0000 0.88767  0.58933  0.77183  Biso   1.000  C
  C202     1.0000 0.91547  0.55913  0.76823  Biso   1.000  C
  C203     1.0000 0.96977  0.58193  0.79043  Biso   1.000  C
  C204     1.0000 0.99627  0.63513  0.81623  Biso   1.000  C
  C205     1.0000 0.96847  0.66533  0.81993  Biso   1.000  C
  C206     1.0000 0.91417  0.64253  0.79763  Biso   1.000  C
  Cl50     1.0000 0.81677  0.54743  0.75233  Biso   1.000  Cl
  Cl51     1.0000 0.96157  0.53103  0.02003  Biso   1.000  Cl
  C207     1.0000 0.07507  0.51223  0.88743  Biso   1.000  C
  C208     1.0000 0.07527  0.56263  0.88673  Biso   1.000  C
  C209     1.0000 0.04137  0.46983  0.93343  Biso   1.000  C
  C210     1.0000 0.19887  0.39703  0.76023  Biso   1.000  C
  H86      1.0000 0.18127  0.36023  0.78013  Biso   1.000  H
  H87      1.0000 0.22967  0.40133  0.73423  Biso   1.000  H
  H88      1.0000 0.17097  0.39993  0.73513  Biso   1.000  H
  C211     1.0000 0.22117  0.48913  0.88483  Biso   1.000  C
  H89      1.0000 0.21227  0.51143  0.91043  Biso   1.000  H
  C212     1.0000 0.26777  0.48903  0.88513  Biso   1.000  C
  H90      1.0000 0.29857  0.51093  0.91123  Biso   1.000  H
  C213     1.0000 0.12267  0.56063  0.80633  Biso   1.000  C
  C214     1.0000 0.03937  0.57053  0.93253  Biso   1.000  C
  C215     1.0000 0.01117  0.48013  0.97113  Biso   1.000  C
  C216     1.0000 0.96617  0.38903  0.80843  Biso   1.000  C
  C217     1.0000 0.99617  0.36133  0.81683  Biso   1.000  C
  C218     1.0000 0.96817  0.30343  0.82213  Biso   1.000  C
  C219     1.0000 0.91007  0.27313  0.81923  Biso   1.000  C
  C220     1.0000 0.87997  0.30063  0.81083  Biso   1.000  C
  C221     1.0000 0.90807  0.35863  0.80553  Biso   1.000  C
  C222     1.0000 0.00977  0.52893  0.96993  Biso   1.000  C
  C223     1.0000 0.91467  0.27333  0.79533  Biso   1.000  C
  C224     1.0000 0.88247  0.28703  0.76033  Biso   1.000  C
  C225     1.0000 0.97567  0.39133  0.78933  Biso   1.000  C
  C226     1.0000 0.91567  0.35763  0.77133  Biso   1.000  C
  C227     1.0000 0.91067  0.27533  0.85233  Biso   1.000  C
  C228     1.0000 0.88257  0.31223  0.86083  Biso   1.000  C
  C229     1.0000 0.96767  0.39233  0.84333  Biso   1.000  C
  Cl52     1.0000 0.81147  0.27063  0.80733  Biso   1.000  Cl
  Cl53     1.0000 0.86977  0.38973  0.79333  Biso   1.000  Cl
  Cl54     1.0000 0.88377  0.39153  0.73733  Biso   1.000  Cl
  Cl55     1.0000 0.81697  0.26873  0.75133  Biso   1.000  Cl
  Cl56     1.0000 0.87597  0.39883  0.86433  Biso   1.000  Cl
  Cl57     1.0000 0.82637  0.27353  0.93133  Biso   1.000  Cl
  Cl58     1.0000 0.81327  0.27653  0.88033  Biso   1.000  Cl
  C230     1.0000 0.91317  0.36923  0.85433  Biso   1.000  C
  Cl59     1.0000 0.26007  0.40633  0.07213  Biso   1.000  Cl
  Cl60     1.0000 0.03757  0.56863  0.97973  Biso   1.000  Cl
  Zn11     1.0000 0.78527  0.99916  0.14001  Biso   1.000  Zn
  Zn12     1.0000 0.78532  0.78617  0.14005  Biso   1.000  Zn
  N41      1.0000 0.85113  0.78327  0.17277  Biso   1.000  N
  N42      1.0000 0.80273  0.80257  0.94917  Biso   1.000  N
  N43      1.0000 0.93243  0.78357  0.17287  Biso   1.000  N
  N44      1.0000 0.77963  0.93077  0.17357  Biso   1.000  N
  N45      1.0000 0.80243  0.80237  0.05067  Biso   1.000  N
  N46      1.0000 0.78023  0.84927  0.17377  Biso   1.000  N
  C231     1.0000 0.88833  0.77677  0.14257  Biso   1.000  C
  C232     1.0000 0.77213  0.88767  0.14967  Biso   1.000  C
  C233     1.0000 0.84903  0.84837  0.96997  Biso   1.000  C
  H91      1.0000 0.87763  0.87577  0.94487  Biso   1.000  H
  C234     1.0000 0.77573  0.77577  0.00007  Biso   1.000  C
  C235     1.0000 0.90943  0.76737  0.23197  Biso   1.000  C
  C236     1.0000 0.85863  0.76827  0.23117  Biso   1.000  C
  C237     1.0000 0.82163  0.88777  0.22117  Biso   1.000  C
  H92      1.0000 0.84403  0.87897  0.24667  Biso   1.000  H
  C238     1.0000 0.92933  0.75647  0.28447  Biso   1.000  C
  H93      1.0000 0.96303  0.75507  0.28397  Biso   1.000  H
  C239     1.0000 0.82663  0.75677  0.28457  Biso   1.000  C
  H94      1.0000 0.79133  0.75497  0.28467  Biso   1.000  H
  C240     1.0000 0.84993  0.74767  0.33847  Biso   1.000  C
  C241     1.0000 0.89913  0.74767  0.33897  Biso   1.000  C
  C242     1.0000 0.82133  0.93327  0.22107  Biso   1.000  C
  H95      1.0000 0.84373  0.96447  0.24667  Biso   1.000  H
  C243     1.0000 0.73533  0.86787  0.09487  Biso   1.000  C
  H96      1.0000 0.70973  0.88287  0.09597  Biso   1.000  H
  H97      1.0000 0.71373  0.82697  0.09497  Biso   1.000  H
  H98      1.0000 0.75833  0.88107  0.05787  Biso   1.000  H
  C244     1.0000 0.84873  0.84957  0.02987  Biso   1.000  C
  H99      1.0000 0.87613  0.87857  0.05467  Biso   1.000  H
  C245     1.0000 0.71963  0.71947  0.00017  Biso   1.000  C
  H100     1.0000 0.68943  0.72587  0.98647  Biso   1.000  H
  H101     1.0000 0.71163  0.70407  0.04157  Biso   1.000  H
  H102     1.0000 0.72243  0.69317  0.97247  Biso   1.000  H
  Cl61     1.0000 0.81373  0.74027  0.40557  Biso   1.000  Cl
  N47      1.0000 0.67213  0.05257  0.17347  Biso   1.000  N
  N48      1.0000 0.71953  0.00627  0.16037  Biso   1.000  N
  C246     1.0000 0.71963  0.05287  0.16697  Biso   1.000  C
  H103     1.0000 0.75403  0.08737  0.16707  Biso   1.000  H
  C247     1.0000 0.55433  0.92267  0.10517  Biso   1.000  C
  C248     1.0000 0.58213  0.89247  0.10157  Biso   1.000  C
  C249     1.0000 0.63643  0.91527  0.12377  Biso   1.000  C
  C250     1.0000 0.66293  0.96847  0.14957  Biso   1.000  C
  C251     1.0000 0.63513  0.99867  0.15327  Biso   1.000  C
  C252     1.0000 0.58083  0.97587  0.13097  Biso   1.000  C
  Cl62     1.0000 0.48343  0.88077  0.08567  Biso   1.000  Cl
  Cl63     1.0000 0.62823  0.86437  0.35337  Biso   1.000  Cl
  C253     1.0000 0.74173  0.84557  0.22077  Biso   1.000  C
  C254     1.0000 0.74193  0.89597  0.22007  Biso   1.000  C
  C255     1.0000 0.70803  0.80317  0.26677  Biso   1.000  C
  C256     1.0000 0.86553  0.73037  0.09357  Biso   1.000  C
  H104     1.0000 0.84793  0.69357  0.11347  Biso   1.000  H
  H105     1.0000 0.89633  0.73467  0.06757  Biso   1.000  H
  H106     1.0000 0.83763  0.73327  0.06847  Biso   1.000  H
  C257     1.0000 0.88783  0.82247  0.21817  Biso   1.000  C
  H107     1.0000 0.87893  0.84477  0.24377  Biso   1.000  H
  C258     1.0000 0.93443  0.82237  0.21847  Biso   1.000  C
  H108     1.0000 0.96523  0.84427  0.24457  Biso   1.000  H
  C259     1.0000 0.78933  0.89397  0.13967  Biso   1.000  C
  C260     1.0000 0.70603  0.90387  0.26587  Biso   1.000  C
  C261     1.0000 0.67783  0.81347  0.30447  Biso   1.000  C
  C262     1.0000 0.63283  0.72237  0.14177  Biso   1.000  C
  C263     1.0000 0.66283  0.69467  0.15017  Biso   1.000  C
  C264     1.0000 0.63483  0.63677  0.15547  Biso   1.000  C
  C265     1.0000 0.57673  0.60647  0.15257  Biso   1.000  C
  C266     1.0000 0.54663  0.63397  0.14417  Biso   1.000  C
  C267     1.0000 0.57473  0.69197  0.13887  Biso   1.000  C
  C268     1.0000 0.67643  0.86227  0.30327  Biso   1.000  C
  C269     1.0000 0.58133  0.60667  0.12867  Biso   1.000  C
  C270     1.0000 0.54913  0.62037  0.09367  Biso   1.000  C
  C271     1.0000 0.64233  0.72467  0.12267  Biso   1.000  C
  C272     1.0000 0.58233  0.69097  0.10467  Biso   1.000  C
  C273     1.0000 0.57733  0.60867  0.18567  Biso   1.000  C
  C274     1.0000 0.54923  0.64557  0.19417  Biso   1.000  C
  C275     1.0000 0.63433  0.72567  0.17667  Biso   1.000  C
  Cl64     1.0000 0.47813  0.60397  0.14067  Biso   1.000  Cl
  Cl65     1.0000 0.53643  0.72307  0.12667  Biso   1.000  Cl
  Cl66     1.0000 0.55043  0.72487  0.07067  Biso   1.000  Cl
  Cl67     1.0000 0.48363  0.60207  0.08467  Biso   1.000  Cl
  Cl68     1.0000 0.54263  0.73217  0.19767  Biso   1.000  Cl
  Cl69     1.0000 0.49303  0.60687  0.26467  Biso   1.000  Cl
  Cl70     1.0000 0.47993  0.60987  0.21367  Biso   1.000  Cl
  C276     1.0000 0.57983  0.70257  0.18767  Biso   1.000  C
  Cl71     1.0000 0.92673  0.73967  0.40547  Biso   1.000  Cl
  Cl72     1.0000 0.70423  0.90197  0.31307  Biso   1.000  Cl
  Zn13     1.0000 0.66751  0.11945  0.47334  Biso   1.000  Zn
  Zn14     1.0000 0.88050  0.33249  0.47338  Biso   1.000  Zn
  N49      1.0000 0.88340  0.40120  0.50610  Biso   1.000  N
  N50      1.0000 0.86410  0.33350  0.28250  Biso   1.000  N
  N51      1.0000 0.88310  0.48220  0.50620  Biso   1.000  N
  N52      1.0000 0.73590  0.18220  0.50690  Biso   1.000  N
  N53      1.0000 0.86430  0.33340  0.38400  Biso   1.000  N
  N54      1.0000 0.81740  0.26430  0.50710  Biso   1.000  N
  C277     1.0000 0.88990  0.44490  0.47590  Biso   1.000  C
  C278     1.0000 0.77900  0.21780  0.48300  Biso   1.000  C
  C279     1.0000 0.81830  0.33400  0.30330  Biso   1.000  C
  H109     1.0000 0.79090  0.33520  0.27820  Biso   1.000  H
  C280     1.0000 0.89090  0.33330  0.33340  Biso   1.000  C
  C281     1.0000 0.89930  0.47540  0.56530  Biso   1.000  C
  C282     1.0000 0.89840  0.42370  0.56450  Biso   1.000  C
  C283     1.0000 0.77890  0.26720  0.55450  Biso   1.000  C
  H110     1.0000 0.78770  0.29840  0.58000  Biso   1.000  H
  C284     1.0000 0.91020  0.50620  0.61780  Biso   1.000  C
  H111     1.0000 0.91160  0.54130  0.61730  Biso   1.000  H
  C285     1.0000 0.90990  0.40320  0.61790  Biso   1.000  C
  H112     1.0000 0.91170  0.36970  0.61800  Biso   1.000  H
  C286     1.0000 0.91900  0.43560  0.67180  Biso   1.000  C
  C287     1.0000 0.91900  0.48480  0.67230  Biso   1.000  C
  C288     1.0000 0.73340  0.22140  0.55440  Biso   1.000  C
  H113     1.0000 0.70220  0.21260  0.58000  Biso   1.000  H
  C289     1.0000 0.79880  0.20080  0.42820  Biso   1.000  C
  H114     1.0000 0.78380  0.16020  0.42930  Biso   1.000  H
  H115     1.0000 0.83970  0.22010  0.42830  Biso   1.000  H
  H116     1.0000 0.78560  0.21060  0.39120  Biso   1.000  H
  C290     1.0000 0.81710  0.33250  0.36320  Biso   1.000  C
  H117     1.0000 0.78810  0.33090  0.38800  Biso   1.000  H
  C291     1.0000 0.94720  0.33350  0.33350  Biso   1.000  C
  H118     1.0000 0.94080  0.29690  0.31980  Biso   1.000  H
  H119     1.0000 0.96260  0.34090  0.37490  Biso   1.000  H
  H120     1.0000 0.97350  0.36260  0.30580  Biso   1.000  H
  Cl73     1.0000 0.92640  0.40680  0.73890  Biso   1.000  Cl
  N55      1.0000 0.61410  0.95290  0.50680  Biso   1.000  N
  N56      1.0000 0.66040  0.04660  0.49370  Biso   1.000  N
  C292     1.0000 0.61380  0.00010  0.50030  Biso   1.000  C
  H121     1.0000 0.57930  0.00000  0.50040  Biso   1.000  H
  C293     1.0000 0.74400  0.96500  0.43850  Biso   1.000  C
  C294     1.0000 0.77420  0.02300  0.43490  Biso   1.000  C
  C295     1.0000 0.75140  0.05450  0.45710  Biso   1.000  C
  C296     1.0000 0.69820  0.02780  0.48290  Biso   1.000  C
  C297     1.0000 0.66800  0.96980  0.48660  Biso   1.000  C
  C298     1.0000 0.69080  0.93830  0.46430  Biso   1.000  C
  Cl74     1.0000 0.78590  0.93600  0.41900  Biso   1.000  Cl
  Cl75     1.0000 0.80230  0.09720  0.68670  Biso   1.000  Cl
  C299     1.0000 0.82110  0.22950  0.55410  Biso   1.000  C
  C300     1.0000 0.77070  0.17930  0.55340  Biso   1.000  C
  C301     1.0000 0.86350  0.23820  0.60010  Biso   1.000  C
  C302     1.0000 0.93630  0.46850  0.42690  Biso   1.000  C
  H122     1.0000 0.97310  0.48770  0.44680  Biso   1.000  H
  H123     1.0000 0.93200  0.49500  0.40090  Biso   1.000  H
  H124     1.0000 0.93340  0.43770  0.40180  Biso   1.000  H
  C303     1.0000 0.84420  0.39870  0.55150  Biso   1.000  C
  H125     1.0000 0.82190  0.36750  0.57710  Biso   1.000  H
  C304     1.0000 0.84430  0.44540  0.55180  Biso   1.000  C
  H126     1.0000 0.82240  0.45430  0.57790  Biso   1.000  H
  C305     1.0000 0.77270  0.22870  0.47300  Biso   1.000  C
  C306     1.0000 0.76280  0.13550  0.59920  Biso   1.000  C
  C307     1.0000 0.85320  0.19770  0.63780  Biso   1.000  C
  C308     1.0000 0.94430  0.24380  0.47510  Biso   1.000  C
  C309     1.0000 0.97200  0.30150  0.48350  Biso   1.000  C
  C310     1.0000 0.02990  0.33140  0.48880  Biso   1.000  C
  C311     1.0000 0.06020  0.30360  0.48590  Biso   1.000  C
  C312     1.0000 0.03270  0.24600  0.47750  Biso   1.000  C
  C313     1.0000 0.97470  0.21610  0.47220  Biso   1.000  C
  C314     1.0000 0.80440  0.14750  0.63660  Biso   1.000  C
  C315     1.0000 0.06000  0.30800  0.46200  Biso   1.000  C
  C316     1.0000 0.04630  0.26210  0.42700  Biso   1.000  C
  C317     1.0000 0.94200  0.25100  0.45600  Biso   1.000  C
  C318     1.0000 0.97570  0.22470  0.43800  Biso   1.000  C
  C319     1.0000 0.05800  0.30200  0.51900  Biso   1.000  C
  C320     1.0000 0.02110  0.23700  0.52750  Biso   1.000  C
  C321     1.0000 0.94100  0.24200  0.51000  Biso   1.000  C
  Cl76     1.0000 0.06270  0.20750  0.47400  Biso   1.000  Cl
  Cl77     1.0000 0.94360  0.14670  0.46000  Biso   1.000  Cl
  Cl78     1.0000 0.94180  0.15890  0.40400  Biso   1.000  Cl
  Cl79     1.0000 0.06460  0.21490  0.41800  Biso   1.000  Cl
  Cl80     1.0000 0.93450  0.14380  0.53100  Biso   1.000  Cl
  Cl81     1.0000 0.05980  0.21950  0.59800  Biso   1.000  Cl
  Cl82     1.0000 0.05680  0.20340  0.54700  Biso   1.000  Cl
  C322     1.0000 0.96410  0.21060  0.52100  Biso   1.000  C
  Cl83     1.0000 0.92700  0.52040  0.73880  Biso   1.000  Cl
  Cl84     1.0000 0.76470  0.13560  0.64640  Biso   1.000  Cl
  Zn15     1.0000 0.33418  0.45278  0.80667  Biso   1.000  Zn
  Zn16     1.0000 0.54717  0.66582  0.80671  Biso   1.000  Zn
  N57      1.0000 0.55007  0.73453  0.83943  Biso   1.000  N
  N58      1.0000 0.53077  0.66683  0.61583  Biso   1.000  N
  N59      1.0000 0.54977  0.81553  0.83953  Biso   1.000  N
  N60      1.0000 0.40257  0.51553  0.84023  Biso   1.000  N
  N61      1.0000 0.53097  0.66673  0.71733  Biso   1.000  N
  N62      1.0000 0.48407  0.59763  0.84043  Biso   1.000  N
  C323     1.0000 0.55657  0.77823  0.80923  Biso   1.000  C
  C324     1.0000 0.44567  0.55113  0.81633  Biso   1.000  C
  C325     1.0000 0.48497  0.66733  0.63663  Biso   1.000  C
  H127     1.0000 0.45757  0.66853  0.61153  Biso   1.000  H
  C326     1.0000 0.55757  0.66663  0.66673  Biso   1.000  C
  C327     1.0000 0.56597  0.80873  0.89863  Biso   1.000  C
  C328     1.0000 0.56507  0.75703  0.89783  Biso   1.000  C
  C329     1.0000 0.44557  0.60053  0.88783  Biso   1.000  C
  H128     1.0000 0.45437  0.63173  0.91333  Biso   1.000  H
  C330     1.0000 0.57687  0.83953  0.95113  Biso   1.000  C
  H129     1.0000 0.57827  0.87463  0.95063  Biso   1.000  H
  C331     1.0000 0.57657  0.73653  0.95123  Biso   1.000  C
  H130     1.0000 0.57837  0.70303  0.95133  Biso   1.000  H
  C332     1.0000 0.58567  0.76893  0.00513  Biso   1.000  C
  C333     1.0000 0.58567  0.81813  0.00563  Biso   1.000  C
  C334     1.0000 0.40007  0.55473  0.88773  Biso   1.000  C
  H131     1.0000 0.36887  0.54593  0.91333  Biso   1.000  H
  C335     1.0000 0.46547  0.53413  0.76153  Biso   1.000  C
  H132     1.0000 0.45047  0.49353  0.76263  Biso   1.000  H
  H133     1.0000 0.50637  0.55343  0.76163  Biso   1.000  H
  H134     1.0000 0.45227  0.54393  0.72453  Biso   1.000  H
  C336     1.0000 0.48377  0.66583  0.69653  Biso   1.000  C
  H135     1.0000 0.45477  0.66423  0.72133  Biso   1.000  H
  C337     1.0000 0.61387  0.66683  0.66683  Biso   1.000  C
  H136     1.0000 0.60747  0.63023  0.65313  Biso   1.000  H
  H137     1.0000 0.62927  0.67423  0.70823  Biso   1.000  H
  H138     1.0000 0.64017  0.69593  0.63913  Biso   1.000  H
  Cl85     1.0000 0.59307  0.74013  0.07223  Biso   1.000  Cl
  N63      1.0000 0.28077  0.28623  0.84013  Biso   1.000  N
  N64      1.0000 0.32707  0.37993  0.82703  Biso   1.000  N
  C338     1.0000 0.28047  0.33343  0.83363  Biso   1.000  C
  H139     1.0000 0.24597  0.33333  0.83373  Biso   1.000  H
  C339     1.0000 0.41067  0.29833  0.77183  Biso   1.000  C
  C340     1.0000 0.44087  0.35633  0.76823  Biso   1.000  C
  C341     1.0000 0.41807  0.38783  0.79043  Biso   1.000  C
  C342     1.0000 0.36487  0.36113  0.81623  Biso   1.000  C
  C343     1.0000 0.33467  0.30313  0.81993  Biso   1.000  C
  C344     1.0000 0.35747  0.27163  0.79763  Biso   1.000  C
  Cl86     1.0000 0.45257  0.26933  0.75233  Biso   1.000  Cl
  Cl87     1.0000 0.46897  0.43053  0.02003  Biso   1.000  Cl
  C345     1.0000 0.48777  0.56283  0.88743  Biso   1.000  C
  C346     1.0000 0.43737  0.51263  0.88673  Biso   1.000  C
  C347     1.0000 0.53017  0.57153  0.93343  Biso   1.000  C
  C348     1.0000 0.60297  0.80183  0.76023  Biso   1.000  C
  H140     1.0000 0.63977  0.82103  0.78013  Biso   1.000  H
  H141     1.0000 0.59867  0.82833  0.73423  Biso   1.000  H
  H142     1.0000 0.60007  0.77103  0.73513  Biso   1.000  H
  C349     1.0000 0.51087  0.73203  0.88483  Biso   1.000  C
  H143     1.0000 0.48857  0.70083  0.91043  Biso   1.000  H
  C350     1.0000 0.51097  0.77873  0.88513  Biso   1.000  C
  H144     1.0000 0.48907  0.78763  0.91123  Biso   1.000  H
  C351     1.0000 0.43937  0.56203  0.80633  Biso   1.000  C
  C352     1.0000 0.42947  0.46883  0.93253  Biso   1.000  C
  C353     1.0000 0.51987  0.53103  0.97113  Biso   1.000  C
  C354     1.0000 0.61097  0.57713  0.80843  Biso   1.000  C
  C355     1.0000 0.63867  0.63483  0.81683  Biso   1.000  C
  C356     1.0000 0.69657  0.66473  0.82213  Biso   1.000  C
  C357     1.0000 0.72687  0.63693  0.81923  Biso   1.000  C
  C358     1.0000 0.69937  0.57933  0.81083  Biso   1.000  C
  C359     1.0000 0.64137  0.54943  0.80553  Biso   1.000  C
  C360     1.0000 0.47107  0.48083  0.96993  Biso   1.000  C
  C361     1.0000 0.72667  0.64133  0.79533  Biso   1.000  C
  C362     1.0000 0.71297  0.59543  0.76033  Biso   1.000  C
  C363     1.0000 0.60867  0.58433  0.78933  Biso   1.000  C
  C364     1.0000 0.64237  0.55803  0.77133  Biso   1.000  C
  C365     1.0000 0.72467  0.63533  0.85233  Biso   1.000  C
  C366     1.0000 0.68777  0.57033  0.86083  Biso   1.000  C
  C367     1.0000 0.60767  0.57533  0.84333  Biso   1.000  C
  Cl88     1.0000 0.72937  0.54083  0.80733  Biso   1.000  Cl
  Cl89     1.0000 0.61027  0.48003  0.79333  Biso   1.000  Cl
  Cl90     1.0000 0.60847  0.49223  0.73733  Biso   1.000  Cl
  Cl91     1.0000 0.73127  0.54823  0.75133  Biso   1.000  Cl
  Cl92     1.0000 0.60117  0.47713  0.86433  Biso   1.000  Cl
  Cl93     1.0000 0.72647  0.55283  0.93133  Biso   1.000  Cl
  Cl94     1.0000 0.72347  0.53673  0.88033  Biso   1.000  Cl
  C368     1.0000 0.63077  0.54393  0.85433  Biso   1.000  C
  Cl95     1.0000 0.59367  0.85373  0.07213  Biso   1.000  Cl
  Cl96     1.0000 0.43137  0.46893  0.97973  Biso   1.000  Cl
  Zn17     1.0000 0.00084  0.78612  0.14001  Biso   1.000  Zn
  Zn18     1.0000 0.21383  0.99916  0.14005  Biso   1.000  Zn
  N65      1.0000 0.21673  0.06787  0.17277  Biso   1.000  N
  N66      1.0000 0.19743  0.00017  0.94917  Biso   1.000  N
  N67      1.0000 0.21643  0.14887  0.17287  Biso   1.000  N
  N68      1.0000 0.06923  0.84887  0.17357  Biso   1.000  N
  N69      1.0000 0.19763  0.00007  0.05067  Biso   1.000  N
  N70      1.0000 0.15073  0.93097  0.17377  Biso   1.000  N
  C369     1.0000 0.22323  0.11157  0.14257  Biso   1.000  C
  C370     1.0000 0.11233  0.88447  0.14967  Biso   1.000  C
  C371     1.0000 0.15163  0.00067  0.96997  Biso   1.000  C
  H145     1.0000 0.12423  0.00187  0.94487  Biso   1.000  H
  C372     1.0000 0.22423  0.99997  0.00007  Biso   1.000  C
  C373     1.0000 0.23263  0.14207  0.23197  Biso   1.000  C
  C374     1.0000 0.23173  0.09037  0.23117  Biso   1.000  C
  C375     1.0000 0.11223  0.93387  0.22117  Biso   1.000  C
  H146     1.0000 0.12103  0.96507  0.24667  Biso   1.000  H
  C376     1.0000 0.24353  0.17287  0.28447  Biso   1.000  C
  H147     1.0000 0.24493  0.20797  0.28397  Biso   1.000  H
  C377     1.0000 0.24323  0.06987  0.28457  Biso   1.000  C
  H148     1.0000 0.24503  0.03637  0.28467  Biso   1.000  H
  C378     1.0000 0.25233  0.10227  0.33847  Biso   1.000  C
  C379     1.0000 0.25233  0.15147  0.33897  Biso   1.000  C
  C380     1.0000 0.06673  0.88807  0.22107  Biso   1.000  C
  H149     1.0000 0.03553  0.87927  0.24667  Biso   1.000  H
  C381     1.0000 0.13213  0.86747  0.09487  Biso   1.000  C
  H150     1.0000 0.11713  0.82687  0.09597  Biso   1.000  H
  H151     1.0000 0.17303  0.88677  0.09497  Biso   1.000  H
  H152     1.0000 0.11893  0.87727  0.05787  Biso   1.000  H
  C382     1.0000 0.15043  0.99917  0.02987  Biso   1.000  C
  H153     1.0000 0.12143  0.99757  0.05467  Biso   1.000  H
  C383     1.0000 0.28053  0.00017  0.00017  Biso   1.000  C
  H154     1.0000 0.27413  0.96357  0.98647  Biso   1.000  H
  H155     1.0000 0.29593  0.00757  0.04157  Biso   1.000  H
  H156     1.0000 0.30683  0.02927  0.97247  Biso   1.000  H
  Cl97     1.0000 0.25973  0.07347  0.40557  Biso   1.000  Cl
  N71      1.0000 0.94743  0.61957  0.17347  Biso   1.000  N
  N72      1.0000 0.99373  0.71327  0.16037  Biso   1.000  N
  C384     1.0000 0.94713  0.66677  0.16697  Biso   1.000  C
  H157     1.0000 0.91263  0.66667  0.16707  Biso   1.000  H
  C385     1.0000 0.07733  0.63167  0.10517  Biso   1.000  C
  C386     1.0000 0.10753  0.68967  0.10157  Biso   1.000  C
  C387     1.0000 0.08473  0.72117  0.12377  Biso   1.000  C
  C388     1.0000 0.03153  0.69447  0.14957  Biso   1.000  C
  C389     1.0000 0.00133  0.63647  0.15327  Biso   1.000  C
  C390     1.0000 0.02413  0.60497  0.13097  Biso   1.000  C
  Cl98     1.0000 0.11923  0.60267  0.08567  Biso   1.000  Cl
  Cl99     1.0000 0.13563  0.76387  0.35337  Biso   1.000  Cl
  C391     1.0000 0.15443  0.89617  0.22077  Biso   1.000  C
  C392     1.0000 0.10403  0.84597  0.22007  Biso   1.000  C
  C393     1.0000 0.19683  0.90487  0.26677  Biso   1.000  C
  C394     1.0000 0.26963  0.13517  0.09357  Biso   1.000  C
  H158     1.0000 0.30643  0.15437  0.11347  Biso   1.000  H
  H159     1.0000 0.26533  0.16167  0.06757  Biso   1.000  H
  H160     1.0000 0.26673  0.10437  0.06847  Biso   1.000  H
  C395     1.0000 0.17753  0.06537  0.21817  Biso   1.000  C
  H161     1.0000 0.15523  0.03417  0.24377  Biso   1.000  H
  C396     1.0000 0.17763  0.11207  0.21847  Biso   1.000  C
  H162     1.0000 0.15573  0.12097  0.24457  Biso   1.000  H
  C397     1.0000 0.10603  0.89537  0.13967  Biso   1.000  C
  C398     1.0000 0.09613  0.80217  0.26587  Biso   1.000  C
  C399     1.0000 0.18653  0.86437  0.30447  Biso   1.000  C
  C400     1.0000 0.27763  0.91047  0.14177  Biso   1.000  C
  C401     1.0000 0.30533  0.96817  0.15017  Biso   1.000  C
  C402     1.0000 0.36323  0.99807  0.15547  Biso   1.000  C
  C403     1.0000 0.39353  0.97027  0.15257  Biso   1.000  C
  C404     1.0000 0.36603  0.91267  0.14417  Biso   1.000  C
  C405     1.0000 0.30803  0.88277  0.13887  Biso   1.000  C
  C406     1.0000 0.13773  0.81417  0.30327  Biso   1.000  C
  C407     1.0000 0.39333  0.97467  0.12867  Biso   1.000  C
  C408     1.0000 0.37963  0.92877  0.09367  Biso   1.000  C
  C409     1.0000 0.27533  0.91767  0.12267  Biso   1.000  C
  C410     1.0000 0.30903  0.89137  0.10467  Biso   1.000  C
  C411     1.0000 0.39133  0.96867  0.18567  Biso   1.000  C
  C412     1.0000 0.35443  0.90367  0.19417  Biso   1.000  C
  C413     1.0000 0.27433  0.90867  0.17667  Biso   1.000  C
  Cl100    1.0000 0.39603  0.87417  0.14067  Biso   1.000  Cl
  Cl101    1.0000 0.27693  0.81337  0.12667  Biso   1.000  Cl
  Cl102    1.0000 0.27513  0.82557  0.07067  Biso   1.000  Cl
  Cl103    1.0000 0.39793  0.88157  0.08467  Biso   1.000  Cl
  Cl104    1.0000 0.26783  0.81047  0.19767  Biso   1.000  Cl
  Cl105    1.0000 0.39313  0.88617  0.26467  Biso   1.000  Cl
  Cl106    1.0000 0.39013  0.87007  0.21367  Biso   1.000  Cl
  C414     1.0000 0.29743  0.87727  0.18767  Biso   1.000  C
  Cl107    1.0000 0.26033  0.18707  0.40547  Biso   1.000  Cl
  Cl108    1.0000 0.09803  0.80227  0.31307  Biso   1.000  Cl
  Zn19     1.0000 0.11945  0.45194  0.52666  Biso   1.000  Zn
  Zn20     1.0000 0.33249  0.45199  0.52662  Biso   1.000  Zn
  N73      1.0000 0.40120  0.51780  0.49390  Biso   1.000  N
  N74      1.0000 0.33350  0.46940  0.71750  Biso   1.000  N
  N75      1.0000 0.48220  0.59910  0.49380  Biso   1.000  N
  N76      1.0000 0.18220  0.44630  0.49310  Biso   1.000  N
  N77      1.0000 0.33340  0.46910  0.61600  Biso   1.000  N
  N78      1.0000 0.26430  0.44690  0.49290  Biso   1.000  N
  C415     1.0000 0.44490  0.55500  0.52410  Biso   1.000  C
  C416     1.0000 0.21780  0.43880  0.51700  Biso   1.000  C
  C417     1.0000 0.33400  0.51570  0.69670  Biso   1.000  C
  H163     1.0000 0.33520  0.54430  0.72180  Biso   1.000  H
  C418     1.0000 0.33330  0.44240  0.66660  Biso   1.000  C
  C419     1.0000 0.47540  0.57610  0.43470  Biso   1.000  C
  C420     1.0000 0.42370  0.52530  0.43550  Biso   1.000  C
  C421     1.0000 0.26720  0.48830  0.44550  Biso   1.000  C
  H164     1.0000 0.29840  0.51070  0.42000  Biso   1.000  H
  C422     1.0000 0.50620  0.59600  0.38220  Biso   1.000  C
  H165     1.0000 0.54130  0.62970  0.38270  Biso   1.000  H
  C423     1.0000 0.40320  0.49330  0.38210  Biso   1.000  C
  H166     1.0000 0.36970  0.45800  0.38200  Biso   1.000  H
  C424     1.0000 0.43560  0.51660  0.32820  Biso   1.000  C
  C425     1.0000 0.48480  0.56580  0.32770  Biso   1.000  C
  C426     1.0000 0.22140  0.48800  0.44560  Biso   1.000  C
  H167     1.0000 0.21260  0.51040  0.42000  Biso   1.000  H
  C427     1.0000 0.20080  0.40200  0.57180  Biso   1.000  C
  H168     1.0000 0.16020  0.37640  0.57070  Biso   1.000  H
  H169     1.0000 0.22010  0.38040  0.57170  Biso   1.000  H
  H170     1.0000 0.21060  0.42500  0.60880  Biso   1.000  H
  C428     1.0000 0.33250  0.51540  0.63680  Biso   1.000  C
  H171     1.0000 0.33090  0.54280  0.61200  Biso   1.000  H
  C429     1.0000 0.33350  0.38630  0.66650  Biso   1.000  C
  H172     1.0000 0.29690  0.35610  0.68020  Biso   1.000  H
  H173     1.0000 0.34090  0.37830  0.62510  Biso   1.000  H
  H174     1.0000 0.36260  0.38910  0.69420  Biso   1.000  H
  Cl109    1.0000 0.40680  0.48040  0.26110  Biso   1.000  Cl
  N79      1.0000 0.95290  0.33880  0.49320  Biso   1.000  N
  N80      1.0000 0.04660  0.38620  0.50630  Biso   1.000  N
  C430     1.0000 0.00010  0.38630  0.49970  Biso   1.000  C
  H175     1.0000 0.00000  0.42070  0.49960  Biso   1.000  H
  C431     1.0000 0.96500  0.22100  0.56150  Biso   1.000  C
  C432     1.0000 0.02300  0.24880  0.56510  Biso   1.000  C
  C433     1.0000 0.05450  0.30310  0.54290  Biso   1.000  C
  C434     1.0000 0.02780  0.32960  0.51710  Biso   1.000  C
  C435     1.0000 0.96980  0.30180  0.51340  Biso   1.000  C
  C436     1.0000 0.93830  0.24750  0.53570  Biso   1.000  C
  Cl110    1.0000 0.93600  0.15010  0.58100  Biso   1.000  Cl
  Cl111    1.0000 0.09720  0.29490  0.31330  Biso   1.000  Cl
  C437     1.0000 0.22950  0.40840  0.44590  Biso   1.000  C
  C438     1.0000 0.17930  0.40860  0.44660  Biso   1.000  C
  C439     1.0000 0.23820  0.37470  0.39990  Biso   1.000  C
  C440     1.0000 0.46850  0.53220  0.57310  Biso   1.000  C
  H176     1.0000 0.48770  0.51460  0.55320  Biso   1.000  H
  H177     1.0000 0.49500  0.56300  0.59910  Biso   1.000  H
  H178     1.0000 0.43770  0.50430  0.59820  Biso   1.000  H
  C441     1.0000 0.39870  0.55450  0.44850  Biso   1.000  C
  H179     1.0000 0.36750  0.54560  0.42290  Biso   1.000  H
  C442     1.0000 0.44540  0.60110  0.44820  Biso   1.000  C
  H180     1.0000 0.45430  0.63190  0.42210  Biso   1.000  H
  C443     1.0000 0.22870  0.45600  0.52700  Biso   1.000  C
  C444     1.0000 0.13550  0.37270  0.40080  Biso   1.000  C
  C445     1.0000 0.19770  0.34450  0.36220  Biso   1.000  C
  C446     1.0000 0.24380  0.29950  0.52490  Biso   1.000  C
  C447     1.0000 0.30150  0.32950  0.51650  Biso   1.000  C
  C448     1.0000 0.33140  0.30150  0.51120  Biso   1.000  C
  C449     1.0000 0.30360  0.24340  0.51410  Biso   1.000  C
  C450     1.0000 0.24600  0.21330  0.52250  Biso   1.000  C
  C451     1.0000 0.21610  0.24140  0.52780  Biso   1.000  C
  C452     1.0000 0.14750  0.34310  0.36340  Biso   1.000  C
  C453     1.0000 0.30800  0.24800  0.53800  Biso   1.000  C
  C454     1.0000 0.26210  0.21580  0.57300  Biso   1.000  C
  C455     1.0000 0.25100  0.30900  0.54400  Biso   1.000  C
  C456     1.0000 0.22470  0.24900  0.56200  Biso   1.000  C
  C457     1.0000 0.30200  0.24400  0.48100  Biso   1.000  C
  C458     1.0000 0.23700  0.21590  0.47250  Biso   1.000  C
  C459     1.0000 0.24200  0.30100  0.49000  Biso   1.000  C
  Cl112    1.0000 0.20750  0.14480  0.52600  Biso   1.000  Cl
  Cl113    1.0000 0.14670  0.20310  0.54000  Biso   1.000  Cl
  Cl114    1.0000 0.15890  0.21710  0.59600  Biso   1.000  Cl
  Cl115    1.0000 0.21490  0.15030  0.58200  Biso   1.000  Cl
  Cl116    1.0000 0.14380  0.20930  0.46900  Biso   1.000  Cl
  Cl117    1.0000 0.21950  0.15970  0.40200  Biso   1.000  Cl
  Cl118    1.0000 0.20340  0.14660  0.45300  Biso   1.000  Cl
  C460     1.0000 0.21060  0.24650  0.47900  Biso   1.000  C
  Cl119    1.0000 0.52040  0.59340  0.26120  Biso   1.000  Cl
  Cl120    1.0000 0.13560  0.37090  0.35360  Biso   1.000  Cl
  Zn21     1.0000 0.78612  0.78527  0.85999  Biso   1.000  Zn
  Zn22     1.0000 0.99916  0.78532  0.85995  Biso   1.000  Zn
  N81      1.0000 0.06787  0.85113  0.82723  Biso   1.000  N
  N82      1.0000 0.00017  0.80273  0.05083  Biso   1.000  N
  N83      1.0000 0.14887  0.93243  0.82713  Biso   1.000  N
  N84      1.0000 0.84887  0.77963  0.82643  Biso   1.000  N
  N85      1.0000 0.00007  0.80243  0.94933  Biso   1.000  N
  N86      1.0000 0.93097  0.78023  0.82623  Biso   1.000  N
  C461     1.0000 0.11157  0.88833  0.85743  Biso   1.000  C
  C462     1.0000 0.88447  0.77213  0.85033  Biso   1.000  C
  C463     1.0000 0.00067  0.84903  0.03003  Biso   1.000  C
  H181     1.0000 0.00187  0.87763  0.05513  Biso   1.000  H
  C464     1.0000 0.99997  0.77573  0.99993  Biso   1.000  C
  C465     1.0000 0.14207  0.90943  0.76803  Biso   1.000  C
  C466     1.0000 0.09037  0.85863  0.76883  Biso   1.000  C
  C467     1.0000 0.93387  0.82163  0.77883  Biso   1.000  C
  H182     1.0000 0.96507  0.84403  0.75333  Biso   1.000  H
  C468     1.0000 0.17287  0.92933  0.71553  Biso   1.000  C
  H183     1.0000 0.20797  0.96303  0.71603  Biso   1.000  H
  C469     1.0000 0.06987  0.82663  0.71543  Biso   1.000  C
  H184     1.0000 0.03637  0.79133  0.71533  Biso   1.000  H
  C470     1.0000 0.10227  0.84993  0.66153  Biso   1.000  C
  C471     1.0000 0.15147  0.89913  0.66103  Biso   1.000  C
  C472     1.0000 0.88807  0.82133  0.77893  Biso   1.000  C
  H185     1.0000 0.87927  0.84373  0.75333  Biso   1.000  H
  C473     1.0000 0.86747  0.73533  0.90513  Biso   1.000  C
  H186     1.0000 0.82687  0.70973  0.90403  Biso   1.000  H
  H187     1.0000 0.88677  0.71373  0.90503  Biso   1.000  H
  H188     1.0000 0.87727  0.75833  0.94213  Biso   1.000  H
  C474     1.0000 0.99917  0.84873  0.97013  Biso   1.000  C
  H189     1.0000 0.99757  0.87613  0.94533  Biso   1.000  H
  C475     1.0000 0.00017  0.71963  0.99983  Biso   1.000  C
  H190     1.0000 0.96357  0.68943  0.01353  Biso   1.000  H
  H191     1.0000 0.00757  0.71163  0.95843  Biso   1.000  H
  H192     1.0000 0.02927  0.72243  0.02753  Biso   1.000  H
  Cl121    1.0000 0.07347  0.81373  0.59443  Biso   1.000  Cl
  N87      1.0000 0.61957  0.67213  0.82653  Biso   1.000  N
  N88      1.0000 0.71327  0.71953  0.83963  Biso   1.000  N
  C476     1.0000 0.66677  0.71963  0.83303  Biso   1.000  C
  H193     1.0000 0.66667  0.75403  0.83293  Biso   1.000  H
  C477     1.0000 0.63167  0.55433  0.89483  Biso   1.000  C
  C478     1.0000 0.68967  0.58213  0.89843  Biso   1.000  C
  C479     1.0000 0.72117  0.63643  0.87623  Biso   1.000  C
  C480     1.0000 0.69447  0.66293  0.85043  Biso   1.000  C
  C481     1.0000 0.63647  0.63513  0.84673  Biso   1.000  C
  C482     1.0000 0.60497  0.58083  0.86903  Biso   1.000  C
  Cl122    1.0000 0.60267  0.48343  0.91433  Biso   1.000  Cl
  Cl123    1.0000 0.76387  0.62823  0.64663  Biso   1.000  Cl
  C483     1.0000 0.89617  0.74173  0.77923  Biso   1.000  C
  C484     1.0000 0.84597  0.74193  0.77993  Biso   1.000  C
  C485     1.0000 0.90487  0.70803  0.73323  Biso   1.000  C
  C486     1.0000 0.13517  0.86553  0.90643  Biso   1.000  C
  H194     1.0000 0.15437  0.84793  0.88653  Biso   1.000  H
  H195     1.0000 0.16167  0.89633  0.93243  Biso   1.000  H
  H196     1.0000 0.10437  0.83763  0.93153  Biso   1.000  H
  C487     1.0000 0.06537  0.88783  0.78183  Biso   1.000  C
  H197     1.0000 0.03417  0.87893  0.75623  Biso   1.000  H
  C488     1.0000 0.11207  0.93443  0.78153  Biso   1.000  C
  H198     1.0000 0.12097  0.96523  0.75543  Biso   1.000  H
  C489     1.0000 0.89537  0.78933  0.86033  Biso   1.000  C
  C490     1.0000 0.80217  0.70603  0.73413  Biso   1.000  C
  C491     1.0000 0.86437  0.67783  0.69553  Biso   1.000  C
  C492     1.0000 0.91047  0.63283  0.85823  Biso   1.000  C
  C493     1.0000 0.96817  0.66283  0.84983  Biso   1.000  C
  C494     1.0000 0.99807  0.63483  0.84453  Biso   1.000  C
  C495     1.0000 0.97027  0.57673  0.84743  Biso   1.000  C
  C496     1.0000 0.91267  0.54663  0.85583  Biso   1.000  C
  C497     1.0000 0.88277  0.57473  0.86113  Biso   1.000  C
  C498     1.0000 0.81417  0.67643  0.69673  Biso   1.000  C
  C499     1.0000 0.97467  0.58133  0.87133  Biso   1.000  C
  C500     1.0000 0.92877  0.54913  0.90633  Biso   1.000  C
  C501     1.0000 0.91767  0.64233  0.87733  Biso   1.000  C
  C502     1.0000 0.89137  0.58233  0.89533  Biso   1.000  C
  C503     1.0000 0.96867  0.57733  0.81433  Biso   1.000  C
  C504     1.0000 0.90367  0.54923  0.80583  Biso   1.000  C
  C505     1.0000 0.90867  0.63433  0.82333  Biso   1.000  C
  Cl124    1.0000 0.87417  0.47813  0.85933  Biso   1.000  Cl
  Cl125    1.0000 0.81337  0.53643  0.87333  Biso   1.000  Cl
  Cl126    1.0000 0.82557  0.55043  0.92933  Biso   1.000  Cl
  Cl127    1.0000 0.88157  0.48363  0.91533  Biso   1.000  Cl
  Cl128    1.0000 0.81047  0.54263  0.80233  Biso   1.000  Cl
  Cl129    1.0000 0.88617  0.49303  0.73533  Biso   1.000  Cl
  Cl130    1.0000 0.87007  0.47993  0.78633  Biso   1.000  Cl
  C506     1.0000 0.87727  0.57983  0.81233  Biso   1.000  C
  Cl131    1.0000 0.18707  0.92673  0.59453  Biso   1.000  Cl
  Cl132    1.0000 0.80227  0.70423  0.68693  Biso   1.000  Cl
  Zn23     1.0000 0.45278  0.11861  0.19333  Biso   1.000  Zn
  Zn24     1.0000 0.66582  0.11866  0.19329  Biso   1.000  Zn
  N89      1.0000 0.73453  0.18447  0.16057  Biso   1.000  N
  N90      1.0000 0.66683  0.13607  0.38417  Biso   1.000  N
  N91      1.0000 0.81553  0.26577  0.16047  Biso   1.000  N
  N92      1.0000 0.51553  0.11297  0.15977  Biso   1.000  N
  N93      1.0000 0.66673  0.13577  0.28267  Biso   1.000  N
  N94      1.0000 0.59763  0.11357  0.15957  Biso   1.000  N
  C507     1.0000 0.77823  0.22167  0.19077  Biso   1.000  C
  C508     1.0000 0.55113  0.10547  0.18367  Biso   1.000  C
  C509     1.0000 0.66733  0.18237  0.36337  Biso   1.000  C
  H199     1.0000 0.66853  0.21097  0.38847  Biso   1.000  H
  C510     1.0000 0.66663  0.10907  0.33327  Biso   1.000  C
  C511     1.0000 0.80873  0.24277  0.10137  Biso   1.000  C
  C512     1.0000 0.75703  0.19197  0.10217  Biso   1.000  C
  C513     1.0000 0.60053  0.15497  0.11217  Biso   1.000  C
  H200     1.0000 0.63173  0.17737  0.08667  Biso   1.000  H
  C514     1.0000 0.83953  0.26267  0.04887  Biso   1.000  C
  H201     1.0000 0.87463  0.29637  0.04937  Biso   1.000  H
  C515     1.0000 0.73653  0.15997  0.04877  Biso   1.000  C
  H202     1.0000 0.70303  0.12467  0.04867  Biso   1.000  H
  C516     1.0000 0.76893  0.18327  0.99487  Biso   1.000  C
  C517     1.0000 0.81813  0.23247  0.99437  Biso   1.000  C
  C518     1.0000 0.55473  0.15467  0.11227  Biso   1.000  C
  H203     1.0000 0.54593  0.17707  0.08667  Biso   1.000  H
  C519     1.0000 0.53413  0.06867  0.23847  Biso   1.000  C
  H204     1.0000 0.49353  0.04307  0.23737  Biso   1.000  H
  H205     1.0000 0.55343  0.04707  0.23837  Biso   1.000  H
  H206     1.0000 0.54393  0.09167  0.27547  Biso   1.000  H
  C520     1.0000 0.66583  0.18207  0.30347  Biso   1.000  C
  H207     1.0000 0.66423  0.20947  0.27867  Biso   1.000  H
  C521     1.0000 0.66683  0.05297  0.33317  Biso   1.000  C
  H208     1.0000 0.63023  0.02277  0.34687  Biso   1.000  H
  H209     1.0000 0.67423  0.04497  0.29177  Biso   1.000  H
  H210     1.0000 0.69593  0.05577  0.36087  Biso   1.000  H
  Cl133    1.0000 0.74013  0.14707  0.92777  Biso   1.000  Cl
  N95      1.0000 0.28623  0.00547  0.15987  Biso   1.000  N
  N96      1.0000 0.37993  0.05287  0.17297  Biso   1.000  N
  C522     1.0000 0.33343  0.05297  0.16637  Biso   1.000  C
  H211     1.0000 0.33333  0.08737  0.16627  Biso   1.000  H
  C523     1.0000 0.29833  0.88767  0.22817  Biso   1.000  C
  C524     1.0000 0.35633  0.91547  0.23177  Biso   1.000  C
  C525     1.0000 0.38783  0.96977  0.20957  Biso   1.000  C
  C526     1.0000 0.36113  0.99627  0.18377  Biso   1.000  C
  C527     1.0000 0.30313  0.96847  0.18007  Biso   1.000  C
  C528     1.0000 0.27163  0.91417  0.20237  Biso   1.000  C
  Cl134    1.0000 0.26933  0.81677  0.24767  Biso   1.000  Cl
  Cl135    1.0000 0.43053  0.96157  0.97997  Biso   1.000  Cl
  C529     1.0000 0.56283  0.07507  0.11257  Biso   1.000  C
  C530     1.0000 0.51263  0.07527  0.11327  Biso   1.000  C
  C531     1.0000 0.57153  0.04137  0.06657  Biso   1.000  C
  C532     1.0000 0.80183  0.19887  0.23977  Biso   1.000  C
  H212     1.0000 0.82103  0.18127  0.21987  Biso   1.000  H
  H213     1.0000 0.82833  0.22967  0.26577  Biso   1.000  H
  H214     1.0000 0.77103  0.17097  0.26487  Biso   1.000  H
  C533     1.0000 0.73203  0.22117  0.11517  Biso   1.000  C
  H215     1.0000 0.70083  0.21227  0.08957  Biso   1.000  H
  C534     1.0000 0.77873  0.26777  0.11487  Biso   1.000  C
  H216     1.0000 0.78763  0.29857  0.08877  Biso   1.000  H
  C535     1.0000 0.56203  0.12267  0.19367  Biso   1.000  C
  C536     1.0000 0.46883  0.03937  0.06747  Biso   1.000  C
  C537     1.0000 0.53103  0.01117  0.02887  Biso   1.000  C
  C538     1.0000 0.57713  0.96617  0.19157  Biso   1.000  C
  C539     1.0000 0.63483  0.99617  0.18317  Biso   1.000  C
  C540     1.0000 0.66473  0.96817  0.17787  Biso   1.000  C
  C541     1.0000 0.63693  0.91007  0.18077  Biso   1.000  C
  C542     1.0000 0.57933  0.87997  0.18917  Biso   1.000  C
  C543     1.0000 0.54943  0.90807  0.19447  Biso   1.000  C
  C544     1.0000 0.48083  0.00977  0.03007  Biso   1.000  C
  C545     1.0000 0.64133  0.91467  0.20467  Biso   1.000  C
  C546     1.0000 0.59543  0.88247  0.23967  Biso   1.000  C
  C547     1.0000 0.58433  0.97567  0.21067  Biso   1.000  C
  C548     1.0000 0.55803  0.91567  0.22867  Biso   1.000  C
  C549     1.0000 0.63533  0.91067  0.14767  Biso   1.000  C
  C550     1.0000 0.57033  0.88257  0.13917  Biso   1.000  C
  C551     1.0000 0.57533  0.96767  0.15667  Biso   1.000  C
  Cl136    1.0000 0.54083  0.81147  0.19267  Biso   1.000  Cl
  Cl137    1.0000 0.48003  0.86977  0.20667  Biso   1.000  Cl
  Cl138    1.0000 0.49223  0.88377  0.26267  Biso   1.000  Cl
  Cl139    1.0000 0.54823  0.81697  0.24867  Biso   1.000  Cl
  Cl140    1.0000 0.47713  0.87597  0.13567  Biso   1.000  Cl
  Cl141    1.0000 0.55283  0.82637  0.06867  Biso   1.000  Cl
  Cl142    1.0000 0.53673  0.81327  0.11967  Biso   1.000  Cl
  C552     1.0000 0.54393  0.91317  0.14567  Biso   1.000  C
  Cl143    1.0000 0.85373  0.26007  0.92787  Biso   1.000  Cl
  Cl144    1.0000 0.46893  0.03757  0.02027  Biso   1.000  Cl
  Zn25     1.0000 0.54806  0.66751  0.52666  Biso   1.000  Zn
  Zn26     1.0000 0.54801  0.88050  0.52662  Biso   1.000  Zn
  N97      1.0000 0.48220  0.88340  0.49390  Biso   1.000  N
  N98      1.0000 0.53060  0.86410  0.71750  Biso   1.000  N
  N99      1.0000 0.40090  0.88310  0.49380  Biso   1.000  N
  N100     1.0000 0.55370  0.73590  0.49310  Biso   1.000  N
  N101     1.0000 0.53090  0.86430  0.61600  Biso   1.000  N
  N102     1.0000 0.55310  0.81740  0.49290  Biso   1.000  N
  C553     1.0000 0.44500  0.88990  0.52410  Biso   1.000  C
  C554     1.0000 0.56120  0.77900  0.51700  Biso   1.000  C
  C555     1.0000 0.48430  0.81830  0.69670  Biso   1.000  C
  H217     1.0000 0.45570  0.79090  0.72180  Biso   1.000  H
  C556     1.0000 0.55760  0.89090  0.66660  Biso   1.000  C
  C557     1.0000 0.42390  0.89930  0.43470  Biso   1.000  C
  C558     1.0000 0.47470  0.89840  0.43550  Biso   1.000  C
  C559     1.0000 0.51170  0.77890  0.44550  Biso   1.000  C
  H218     1.0000 0.48930  0.78770  0.42000  Biso   1.000  H
  C560     1.0000 0.40400  0.91020  0.38220  Biso   1.000  C
  H219     1.0000 0.37030  0.91160  0.38270  Biso   1.000  H
  C561     1.0000 0.50670  0.90990  0.38210  Biso   1.000  C
  H220     1.0000 0.54200  0.91170  0.38200  Biso   1.000  H
  C562     1.0000 0.48340  0.91900  0.32820  Biso   1.000  C
  C563     1.0000 0.43420  0.91900  0.32770  Biso   1.000  C
  C564     1.0000 0.51200  0.73340  0.44560  Biso   1.000  C
  H221     1.0000 0.48960  0.70220  0.42000  Biso   1.000  H
  C565     1.0000 0.59800  0.79880  0.57180  Biso   1.000  C
  H222     1.0000 0.62360  0.78380  0.57070  Biso   1.000  H
  H223     1.0000 0.61960  0.83970  0.57170  Biso   1.000  H
  H224     1.0000 0.57500  0.78560  0.60880  Biso   1.000  H
  C566     1.0000 0.48460  0.81710  0.63680  Biso   1.000  C
  H225     1.0000 0.45720  0.78810  0.61200  Biso   1.000  H
  C567     1.0000 0.61370  0.94720  0.66650  Biso   1.000  C
  H226     1.0000 0.64390  0.94080  0.68020  Biso   1.000  H
  H227     1.0000 0.62170  0.96260  0.62510  Biso   1.000  H
  H228     1.0000 0.61090  0.97350  0.69420  Biso   1.000  H
  Cl145    1.0000 0.51960  0.92640  0.26110  Biso   1.000  Cl
  N103     1.0000 0.66120  0.61410  0.49320  Biso   1.000  N
  N104     1.0000 0.61380  0.66040  0.50630  Biso   1.000  N
  C568     1.0000 0.61370  0.61380  0.49970  Biso   1.000  C
  H229     1.0000 0.57930  0.57930  0.49960  Biso   1.000  H
  C569     1.0000 0.77900  0.74400  0.56150  Biso   1.000  C
  C570     1.0000 0.75120  0.77420  0.56510  Biso   1.000  C
  C571     1.0000 0.69690  0.75140  0.54290  Biso   1.000  C
  C572     1.0000 0.67040  0.69820  0.51710  Biso   1.000  C
  C573     1.0000 0.69820  0.66800  0.51340  Biso   1.000  C
  C574     1.0000 0.75250  0.69080  0.53570  Biso   1.000  C
  Cl146    1.0000 0.84990  0.78590  0.58100  Biso   1.000  Cl
  Cl147    1.0000 0.70510  0.80230  0.31330  Biso   1.000  Cl
  C575     1.0000 0.59160  0.82110  0.44590  Biso   1.000  C
  C576     1.0000 0.59140  0.77070  0.44660  Biso   1.000  C
  C577     1.0000 0.62530  0.86350  0.39990  Biso   1.000  C
  C578     1.0000 0.46780  0.93630  0.57310  Biso   1.000  C
  H230     1.0000 0.48540  0.97310  0.55320  Biso   1.000  H
  H231     1.0000 0.43700  0.93200  0.59910  Biso   1.000  H
  H232     1.0000 0.49570  0.93340  0.59820  Biso   1.000  H
  C579     1.0000 0.44550  0.84420  0.44850  Biso   1.000  C
  H233     1.0000 0.45440  0.82190  0.42290  Biso   1.000  H
  C580     1.0000 0.39890  0.84430  0.44820  Biso   1.000  C
  H234     1.0000 0.36810  0.82240  0.42210  Biso   1.000  H
  C581     1.0000 0.54400  0.77270  0.52700  Biso   1.000  C
  C582     1.0000 0.62730  0.76280  0.40080  Biso   1.000  C
  C583     1.0000 0.65550  0.85320  0.36220  Biso   1.000  C
  C584     1.0000 0.70050  0.94430  0.52490  Biso   1.000  C
  C585     1.0000 0.67050  0.97200  0.51650  Biso   1.000  C
  C586     1.0000 0.69850  0.02990  0.51120  Biso   1.000  C
  C587     1.0000 0.75660  0.06020  0.51410  Biso   1.000  C
  C588     1.0000 0.78670  0.03270  0.52250  Biso   1.000  C
  C589     1.0000 0.75860  0.97470  0.52780  Biso   1.000  C
  C590     1.0000 0.65690  0.80440  0.36340  Biso   1.000  C
  C591     1.0000 0.75200  0.06000  0.53800  Biso   1.000  C
  C592     1.0000 0.78420  0.04630  0.57300  Biso   1.000  C
  C593     1.0000 0.69100  0.94200  0.54400  Biso   1.000  C
  C594     1.0000 0.75100  0.97570  0.56200  Biso   1.000  C
  C595     1.0000 0.75600  0.05800  0.48100  Biso   1.000  C
  C596     1.0000 0.78410  0.02110  0.47250  Biso   1.000  C
  C597     1.0000 0.69900  0.94100  0.49000  Biso   1.000  C
  Cl148    1.0000 0.85520  0.06270  0.52600  Biso   1.000  Cl
  Cl149    1.0000 0.79690  0.94360  0.54000  Biso   1.000  Cl
  Cl150    1.0000 0.78290  0.94180  0.59600  Biso   1.000  Cl
  Cl151    1.0000 0.84970  0.06460  0.58200  Biso   1.000  Cl
  Cl152    1.0000 0.79070  0.93450  0.46900  Biso   1.000  Cl
  Cl153    1.0000 0.84030  0.05980  0.40200  Biso   1.000  Cl
  Cl154    1.0000 0.85340  0.05680  0.45300  Biso   1.000  Cl
  C598     1.0000 0.75350  0.96410  0.47900  Biso   1.000  C
  Cl155    1.0000 0.40660  0.92700  0.26120  Biso   1.000  Cl
  Cl156    1.0000 0.62910  0.76470  0.35360  Biso   1.000  Cl
  Zn27     1.0000 0.21473  0.00084  0.85999  Biso   1.000  Zn
  Zn28     1.0000 0.21468  0.21383  0.85995  Biso   1.000  Zn
  N105     1.0000 0.14887  0.21673  0.82723  Biso   1.000  N
  N106     1.0000 0.19727  0.19743  0.05083  Biso   1.000  N
  N107     1.0000 0.06757  0.21643  0.82713  Biso   1.000  N
  N108     1.0000 0.22037  0.06923  0.82643  Biso   1.000  N
  N109     1.0000 0.19757  0.19763  0.94933  Biso   1.000  N
  N110     1.0000 0.21977  0.15073  0.82623  Biso   1.000  N
  C599     1.0000 0.11167  0.22323  0.85743  Biso   1.000  C
  C600     1.0000 0.22787  0.11233  0.85033  Biso   1.000  C
  C601     1.0000 0.15097  0.15163  0.03003  Biso   1.000  C
  H235     1.0000 0.12237  0.12423  0.05513  Biso   1.000  H
  C602     1.0000 0.22427  0.22423  0.99993  Biso   1.000  C
  C603     1.0000 0.09057  0.23263  0.76803  Biso   1.000  C
  C604     1.0000 0.14137  0.23173  0.76883  Biso   1.000  C
  C605     1.0000 0.17837  0.11223  0.77883  Biso   1.000  C
  H236     1.0000 0.15597  0.12103  0.75333  Biso   1.000  H
  C606     1.0000 0.07067  0.24353  0.71553  Biso   1.000  C
  H237     1.0000 0.03697  0.24493  0.71603  Biso   1.000  H
  C607     1.0000 0.17337  0.24323  0.71543  Biso   1.000  C
  H238     1.0000 0.20867  0.24503  0.71533  Biso   1.000  H
  C608     1.0000 0.15007  0.25233  0.66153  Biso   1.000  C
  C609     1.0000 0.10087  0.25233  0.66103  Biso   1.000  C
  C610     1.0000 0.17867  0.06673  0.77893  Biso   1.000  C
  H239     1.0000 0.15627  0.03553  0.75333  Biso   1.000  H
  C611     1.0000 0.26467  0.13213  0.90513  Biso   1.000  C
  H240     1.0000 0.29027  0.11713  0.90403  Biso   1.000  H
  H241     1.0000 0.28627  0.17303  0.90503  Biso   1.000  H
  H242     1.0000 0.24167  0.11893  0.94213  Biso   1.000  H
  C612     1.0000 0.15127  0.15043  0.97013  Biso   1.000  C
  H243     1.0000 0.12387  0.12143  0.94533  Biso   1.000  H
  C613     1.0000 0.28037  0.28053  0.99983  Biso   1.000  C
  H244     1.0000 0.31057  0.27413  0.01353  Biso   1.000  H
  H245     1.0000 0.28837  0.29593  0.95843  Biso   1.000  H
  H246     1.0000 0.27757  0.30683  0.02753  Biso   1.000  H
  Cl157    1.0000 0.18627  0.25973  0.59443  Biso   1.000  Cl
  N111     1.0000 0.32787  0.94743  0.82653  Biso   1.000  N
  N112     1.0000 0.28047  0.99373  0.83963  Biso   1.000  N
  C614     1.0000 0.28037  0.94713  0.83303  Biso   1.000  C
  H247     1.0000 0.24597  0.91263  0.83293  Biso   1.000  H
  C615     1.0000 0.44567  0.07733  0.89483  Biso   1.000  C
  C616     1.0000 0.41787  0.10753  0.89843  Biso   1.000  C
  C617     1.0000 0.36357  0.08473  0.87623  Biso   1.000  C
  C618     1.0000 0.33707  0.03153  0.85043  Biso   1.000  C
  C619     1.0000 0.36487  0.00133  0.84673  Biso   1.000  C
  C620     1.0000 0.41917  0.02413  0.86903  Biso   1.000  C
  Cl158    1.0000 0.51657  0.11923  0.91433  Biso   1.000  Cl
  Cl159    1.0000 0.37177  0.13563  0.64663  Biso   1.000  Cl
  C621     1.0000 0.25827  0.15443  0.77923  Biso   1.000  C
  C622     1.0000 0.25807  0.10403  0.77993  Biso   1.000  C
  C623     1.0000 0.29197  0.19683  0.73323  Biso   1.000  C
  C624     1.0000 0.13447  0.26963  0.90643  Biso   1.000  C
  H248     1.0000 0.15207  0.30643  0.88653  Biso   1.000  H
  H249     1.0000 0.10367  0.26533  0.93243  Biso   1.000  H
  H250     1.0000 0.16237  0.26673  0.93153  Biso   1.000  H
  C625     1.0000 0.11217  0.17753  0.78183  Biso   1.000  C
  H251     1.0000 0.12107  0.15523  0.75623  Biso   1.000  H
  C626     1.0000 0.06557  0.17763  0.78153  Biso   1.000  C
  H252     1.0000 0.03477  0.15573  0.75543  Biso   1.000  H
  C627     1.0000 0.21067  0.10603  0.86033  Biso   1.000  C
  C628     1.0000 0.29397  0.09613  0.73413  Biso   1.000  C
  C629     1.0000 0.32217  0.18653  0.69553  Biso   1.000  C
  C630     1.0000 0.36717  0.27763  0.85823  Biso   1.000  C
  C631     1.0000 0.33717  0.30533  0.84983  Biso   1.000  C
  C632     1.0000 0.36517  0.36323  0.84453  Biso   1.000  C
  C633     1.0000 0.42327  0.39353  0.84743  Biso   1.000  C
  C634     1.0000 0.45337  0.36603  0.85583  Biso   1.000  C
  C635     1.0000 0.42527  0.30803  0.86113  Biso   1.000  C
  C636     1.0000 0.32357  0.13773  0.69673  Biso   1.000  C
  C637     1.0000 0.41867  0.39333  0.87133  Biso   1.000  C
  C638     1.0000 0.45087  0.37963  0.90633  Biso   1.000  C
  C639     1.0000 0.35767  0.27533  0.87733  Biso   1.000  C
  C640     1.0000 0.41767  0.30903  0.89533  Biso   1.000  C
  C641     1.0000 0.42267  0.39133  0.81433  Biso   1.000  C
  C642     1.0000 0.45077  0.35443  0.80583  Biso   1.000  C
  C643     1.0000 0.36567  0.27433  0.82333  Biso   1.000  C
  Cl160    1.0000 0.52187  0.39603  0.85933  Biso   1.000  Cl
  Cl161    1.0000 0.46357  0.27693  0.87333  Biso   1.000  Cl
  Cl162    1.0000 0.44957  0.27513  0.92933  Biso   1.000  Cl
  Cl163    1.0000 0.51637  0.39793  0.91533  Biso   1.000  Cl
  Cl164    1.0000 0.45737  0.26783  0.80233  Biso   1.000  Cl
  Cl165    1.0000 0.50697  0.39313  0.73533  Biso   1.000  Cl
  Cl166    1.0000 0.52007  0.39013  0.78633  Biso   1.000  Cl
  C644     1.0000 0.42017  0.29743  0.81233  Biso   1.000  C
  Cl167    1.0000 0.07327  0.26033  0.59453  Biso   1.000  Cl
  Cl168    1.0000 0.29577  0.09803  0.68693  Biso   1.000  Cl
  Zn29     1.0000 0.88139  0.33418  0.19333  Biso   1.000  Zn
  Zn30     1.0000 0.88134  0.54717  0.19329  Biso   1.000  Zn
  N113     1.0000 0.81553  0.55007  0.16057  Biso   1.000  N
  N114     1.0000 0.86393  0.53077  0.38417  Biso   1.000  N
  N115     1.0000 0.73423  0.54977  0.16047  Biso   1.000  N
  N116     1.0000 0.88703  0.40257  0.15977  Biso   1.000  N
  N117     1.0000 0.86423  0.53097  0.28267  Biso   1.000  N
  N118     1.0000 0.88643  0.48407  0.15957  Biso   1.000  N
  C645     1.0000 0.77833  0.55657  0.19077  Biso   1.000  C
  C646     1.0000 0.89453  0.44567  0.18367  Biso   1.000  C
  C647     1.0000 0.81763  0.48497  0.36337  Biso   1.000  C
  H253     1.0000 0.78903  0.45757  0.38847  Biso   1.000  H
  C648     1.0000 0.89093  0.55757  0.33327  Biso   1.000  C
  C649     1.0000 0.75723  0.56597  0.10137  Biso   1.000  C
  C650     1.0000 0.80803  0.56507  0.10217  Biso   1.000  C
  C651     1.0000 0.84503  0.44557  0.11217  Biso   1.000  C
  H254     1.0000 0.82263  0.45437  0.08667  Biso   1.000  H
  C652     1.0000 0.73733  0.57687  0.04887  Biso   1.000  C
  H255     1.0000 0.70363  0.57827  0.04937  Biso   1.000  H
  C653     1.0000 0.84003  0.57657  0.04877  Biso   1.000  C
  H256     1.0000 0.87533  0.57837  0.04867  Biso   1.000  H
  C654     1.0000 0.81673  0.58567  0.99487  Biso   1.000  C
  C655     1.0000 0.76753  0.58567  0.99437  Biso   1.000  C
  C656     1.0000 0.84533  0.40007  0.11227  Biso   1.000  C
  H257     1.0000 0.82293  0.36887  0.08667  Biso   1.000  H
  C657     1.0000 0.93133  0.46547  0.23847  Biso   1.000  C
  H258     1.0000 0.95693  0.45047  0.23737  Biso   1.000  H
  H259     1.0000 0.95293  0.50637  0.23837  Biso   1.000  H
  H260     1.0000 0.90833  0.45227  0.27547  Biso   1.000  H
  C658     1.0000 0.81793  0.48377  0.30347  Biso   1.000  C
  H261     1.0000 0.79053  0.45477  0.27867  Biso   1.000  H
  C659     1.0000 0.94703  0.61387  0.33317  Biso   1.000  C
  H262     1.0000 0.97723  0.60747  0.34687  Biso   1.000  H
  H263     1.0000 0.95503  0.62927  0.29177  Biso   1.000  H
  H264     1.0000 0.94423  0.64017  0.36087  Biso   1.000  H
  Cl169    1.0000 0.85293  0.59307  0.92777  Biso   1.000  Cl
  N119     1.0000 0.99453  0.28077  0.15987  Biso   1.000  N
  N120     1.0000 0.94713  0.32707  0.17297  Biso   1.000  N
  C660     1.0000 0.94703  0.28047  0.16637  Biso   1.000  C
  H265     1.0000 0.91263  0.24597  0.16627  Biso   1.000  H
  C661     1.0000 0.11233  0.41067  0.22817  Biso   1.000  C
  C662     1.0000 0.08453  0.44087  0.23177  Biso   1.000  C
  C663     1.0000 0.03023  0.41807  0.20957  Biso   1.000  C
  C664     1.0000 0.00373  0.36487  0.18377  Biso   1.000  C
  C665     1.0000 0.03153  0.33467  0.18007  Biso   1.000  C
  C666     1.0000 0.08583  0.35747  0.20237  Biso   1.000  C
  Cl170    1.0000 0.18323  0.45257  0.24767  Biso   1.000  Cl
  Cl171    1.0000 0.03843  0.46897  0.97997  Biso   1.000  Cl
  C667     1.0000 0.92493  0.48777  0.11257  Biso   1.000  C
  C668     1.0000 0.92473  0.43737  0.11327  Biso   1.000  C
  C669     1.0000 0.95863  0.53017  0.06657  Biso   1.000  C
  C670     1.0000 0.80113  0.60297  0.23977  Biso   1.000  C
  H266     1.0000 0.81873  0.63977  0.21987  Biso   1.000  H
  H267     1.0000 0.77033  0.59867  0.26577  Biso   1.000  H
  H268     1.0000 0.82903  0.60007  0.26487  Biso   1.000  H
  C671     1.0000 0.77883  0.51087  0.11517  Biso   1.000  C
  H269     1.0000 0.78773  0.48857  0.08957  Biso   1.000  H
  C672     1.0000 0.73223  0.51097  0.11487  Biso   1.000  C
  H270     1.0000 0.70143  0.48907  0.08877  Biso   1.000  H
  C673     1.0000 0.87733  0.43937  0.19367  Biso   1.000  C
  C674     1.0000 0.96063  0.42947  0.06747  Biso   1.000  C
  C675     1.0000 0.98883  0.51987  0.02887  Biso   1.000  C
  C676     1.0000 0.03383  0.61097  0.19157  Biso   1.000  C
  C677     1.0000 0.00383  0.63867  0.18317  Biso   1.000  C
  C678     1.0000 0.03183  0.69657  0.17787  Biso   1.000  C
  C679     1.0000 0.08993  0.72687  0.18077  Biso   1.000  C
  C680     1.0000 0.12003  0.69937  0.18917  Biso   1.000  C
  C681     1.0000 0.09193  0.64137  0.19447  Biso   1.000  C
  C682     1.0000 0.99023  0.47107  0.03007  Biso   1.000  C
  C683     1.0000 0.08533  0.72667  0.20467  Biso   1.000  C
  C684     1.0000 0.11753  0.71297  0.23967  Biso   1.000  C
  C685     1.0000 0.02433  0.60867  0.21067  Biso   1.000  C
  C686     1.0000 0.08433  0.64237  0.22867  Biso   1.000  C
  C687     1.0000 0.08933  0.72467  0.14767  Biso   1.000  C
  C688     1.0000 0.11743  0.68777  0.13917  Biso   1.000  C
  C689     1.0000 0.03233  0.60767  0.15667  Biso   1.000  C
  Cl172    1.0000 0.18853  0.72937  0.19267  Biso   1.000  Cl
  Cl173    1.0000 0.13023  0.61027  0.20667  Biso   1.000  Cl
  Cl174    1.0000 0.11623  0.60847  0.26267  Biso   1.000  Cl
  Cl175    1.0000 0.18303  0.73127  0.24867  Biso   1.000  Cl
  Cl176    1.0000 0.12403  0.60117  0.13567  Biso   1.000  Cl
  Cl177    1.0000 0.17363  0.72647  0.06867  Biso   1.000  Cl
  Cl178    1.0000 0.18673  0.72347  0.11967  Biso   1.000  Cl
  C690     1.0000 0.08683  0.63077  0.14567  Biso   1.000  C
  Cl179    1.0000 0.73993  0.59367  0.92787  Biso   1.000  Cl
  Cl180    1.0000 0.96243  0.43137  0.02027  Biso   1.000  Cl
  Zn31     1.0000 0.33249  0.88055  0.52666  Biso   1.000  Zn
  Zn32     1.0000 0.11950  0.66751  0.52662  Biso   1.000  Zn
  N121     1.0000 0.11660  0.59880  0.49390  Biso   1.000  N
  N122     1.0000 0.13590  0.66650  0.71750  Biso   1.000  N
  N123     1.0000 0.11690  0.51780  0.49380  Biso   1.000  N
  N124     1.0000 0.26410  0.81780  0.49310  Biso   1.000  N
  N125     1.0000 0.13570  0.66660  0.61600  Biso   1.000  N
  N126     1.0000 0.18260  0.73570  0.49290  Biso   1.000  N
  C691     1.0000 0.11010  0.55510  0.52410  Biso   1.000  C
  C692     1.0000 0.22100  0.78220  0.51700  Biso   1.000  C
  C693     1.0000 0.18170  0.66600  0.69670  Biso   1.000  C
  H271     1.0000 0.20910  0.66480  0.72180  Biso   1.000  H
  C694     1.0000 0.10910  0.66670  0.66660  Biso   1.000  C
  C695     1.0000 0.10070  0.52460  0.43470  Biso   1.000  C
  C696     1.0000 0.10160  0.57630  0.43550  Biso   1.000  C
  C697     1.0000 0.22110  0.73280  0.44550  Biso   1.000  C
  H272     1.0000 0.21230  0.70160  0.42000  Biso   1.000  H
  C698     1.0000 0.08980  0.49380  0.38220  Biso   1.000  C
  H273     1.0000 0.08840  0.45870  0.38270  Biso   1.000  H
  C699     1.0000 0.09010  0.59680  0.38210  Biso   1.000  C
  H274     1.0000 0.08830  0.63030  0.38200  Biso   1.000  H
  C700     1.0000 0.08100  0.56440  0.32820  Biso   1.000  C
  C701     1.0000 0.08100  0.51520  0.32770  Biso   1.000  C
  C702     1.0000 0.26660  0.77860  0.44560  Biso   1.000  C
  H275     1.0000 0.29780  0.78740  0.42000  Biso   1.000  H
  C703     1.0000 0.20120  0.79920  0.57180  Biso   1.000  C
  H276     1.0000 0.21620  0.83980  0.57070  Biso   1.000  H
  H277     1.0000 0.16030  0.77990  0.57170  Biso   1.000  H
  H278     1.0000 0.21440  0.78940  0.60880  Biso   1.000  H
  C704     1.0000 0.18290  0.66750  0.63680  Biso   1.000  C
  H279     1.0000 0.21190  0.66910  0.61200  Biso   1.000  H
  C705     1.0000 0.05280  0.66650  0.66650  Biso   1.000  C
  H280     1.0000 0.05920  0.70310  0.68020  Biso   1.000  H
  H281     1.0000 0.03740  0.65910  0.62510  Biso   1.000  H
  H282     1.0000 0.02650  0.63740  0.69420  Biso   1.000  H
  Cl181    1.0000 0.07360  0.59320  0.26110  Biso   1.000  Cl
  N127     1.0000 0.38590  0.04710  0.49320  Biso   1.000  N
  N128     1.0000 0.33960  0.95340  0.50630  Biso   1.000  N
  C706     1.0000 0.38620  0.99990  0.49970  Biso   1.000  C
  H283     1.0000 0.42070  0.00000  0.49960  Biso   1.000  H
  C707     1.0000 0.25600  0.03500  0.56150  Biso   1.000  C
  C708     1.0000 0.22580  0.97700  0.56510  Biso   1.000  C
  C709     1.0000 0.24860  0.94550  0.54290  Biso   1.000  C
  C710     1.0000 0.30180  0.97220  0.51710  Biso   1.000  C
  C711     1.0000 0.33200  0.03020  0.51340  Biso   1.000  C
  C712     1.0000 0.30920  0.06170  0.53570  Biso   1.000  C
  Cl182    1.0000 0.21410  0.06400  0.58100  Biso   1.000  Cl
  Cl183    1.0000 0.19770  0.90280  0.31330  Biso   1.000  Cl
  C713     1.0000 0.17890  0.77050  0.44590  Biso   1.000  C
  C714     1.0000 0.22930  0.82070  0.44660  Biso   1.000  C
  C715     1.0000 0.13650  0.76180  0.39990  Biso   1.000  C
  C716     1.0000 0.06370  0.53150  0.57310  Biso   1.000  C
  H284     1.0000 0.02690  0.51230  0.55320  Biso   1.000  H
  H285     1.0000 0.06800  0.50500  0.59910  Biso   1.000  H
  H286     1.0000 0.06660  0.56230  0.59820  Biso   1.000  H
  C717     1.0000 0.15580  0.60130  0.44850  Biso   1.000  C
  H287     1.0000 0.17810  0.63250  0.42290  Biso   1.000  H
  C718     1.0000 0.15570  0.55460  0.44820  Biso   1.000  C
  H288     1.0000 0.17760  0.54570  0.42210  Biso   1.000  H
  C719     1.0000 0.22730  0.77130  0.52700  Biso   1.000  C
  C720     1.0000 0.23720  0.86450  0.40080  Biso   1.000  C
  C721     1.0000 0.14680  0.80230  0.36220  Biso   1.000  C
  C722     1.0000 0.05570  0.75620  0.52490  Biso   1.000  C
  C723     1.0000 0.02800  0.69850  0.51650  Biso   1.000  C
  C724     1.0000 0.97010  0.66860  0.51120  Biso   1.000  C
  C725     1.0000 0.93980  0.69640  0.51410  Biso   1.000  C
  C726     1.0000 0.96730  0.75400  0.52250  Biso   1.000  C
  C727     1.0000 0.02530  0.78390  0.52780  Biso   1.000  C
  C728     1.0000 0.19560  0.85250  0.36340  Biso   1.000  C
  C729     1.0000 0.94000  0.69200  0.53800  Biso   1.000  C
  C730     1.0000 0.95370  0.73790  0.57300  Biso   1.000  C
  C731     1.0000 0.05800  0.74900  0.54400  Biso   1.000  C
  C732     1.0000 0.02430  0.77530  0.56200  Biso   1.000  C
  C733     1.0000 0.94200  0.69800  0.48100  Biso   1.000  C
  C734     1.0000 0.97890  0.76300  0.47250  Biso   1.000  C
  C735     1.0000 0.05900  0.75800  0.49000  Biso   1.000  C
  Cl184    1.0000 0.93730  0.79250  0.52600  Biso   1.000  Cl
  Cl185    1.0000 0.05640  0.85330  0.54000  Biso   1.000  Cl
  Cl186    1.0000 0.05820  0.84110  0.59600  Biso   1.000  Cl
  Cl187    1.0000 0.93540  0.78510  0.58200  Biso   1.000  Cl
  Cl188    1.0000 0.06550  0.85620  0.46900  Biso   1.000  Cl
  Cl189    1.0000 0.94020  0.78050  0.40200  Biso   1.000  Cl
  Cl190    1.0000 0.94320  0.79660  0.45300  Biso   1.000  Cl
  C736     1.0000 0.03590  0.78940  0.47900  Biso   1.000  C
  Cl191    1.0000 0.07300  0.47960  0.26120  Biso   1.000  Cl
  Cl192    1.0000 0.23530  0.86440  0.35360  Biso   1.000  Cl
  Zn33     1.0000 0.99916  0.21388  0.85999  Biso   1.000  Zn
  Zn34     1.0000 0.78617  0.00084  0.85995  Biso   1.000  Zn
  N129     1.0000 0.78327  0.93213  0.82723  Biso   1.000  N
  N130     1.0000 0.80257  0.99983  0.05083  Biso   1.000  N
  N131     1.0000 0.78357  0.85113  0.82713  Biso   1.000  N
  N132     1.0000 0.93077  0.15113  0.82643  Biso   1.000  N
  N133     1.0000 0.80237  0.99993  0.94933  Biso   1.000  N
  N134     1.0000 0.84927  0.06903  0.82623  Biso   1.000  N
  C737     1.0000 0.77677  0.88843  0.85743  Biso   1.000  C
  C738     1.0000 0.88767  0.11553  0.85033  Biso   1.000  C
  C739     1.0000 0.84837  0.99933  0.03003  Biso   1.000  C
  H289     1.0000 0.87577  0.99813  0.05513  Biso   1.000  H
  C740     1.0000 0.77577  0.00003  0.99993  Biso   1.000  C
  C741     1.0000 0.76737  0.85793  0.76803  Biso   1.000  C
  C742     1.0000 0.76827  0.90963  0.76883  Biso   1.000  C
  C743     1.0000 0.88777  0.06613  0.77883  Biso   1.000  C
  H290     1.0000 0.87897  0.03493  0.75333  Biso   1.000  H
  C744     1.0000 0.75647  0.82713  0.71553  Biso   1.000  C
  H291     1.0000 0.75507  0.79203  0.71603  Biso   1.000  H
  C745     1.0000 0.75677  0.93013  0.71543  Biso   1.000  C
  H292     1.0000 0.75497  0.96363  0.71533  Biso   1.000  H
  C746     1.0000 0.74767  0.89773  0.66153  Biso   1.000  C
  C747     1.0000 0.74767  0.84853  0.66103  Biso   1.000  C
  C748     1.0000 0.93327  0.11193  0.77893  Biso   1.000  C
  H293     1.0000 0.96447  0.12073  0.75333  Biso   1.000  H
  C749     1.0000 0.86787  0.13253  0.90513  Biso   1.000  C
  H294     1.0000 0.88287  0.17313  0.90403  Biso   1.000  H
  H295     1.0000 0.82697  0.11323  0.90503  Biso   1.000  H
  H296     1.0000 0.88107  0.12273  0.94213  Biso   1.000  H
  C750     1.0000 0.84957  0.00083  0.97013  Biso   1.000  C
  H297     1.0000 0.87857  0.00243  0.94533  Biso   1.000  H
  C751     1.0000 0.71947  0.99983  0.99983  Biso   1.000  C
  H298     1.0000 0.72587  0.03643  0.01353  Biso   1.000  H
  H299     1.0000 0.70407  0.99243  0.95843  Biso   1.000  H
  H300     1.0000 0.69317  0.97073  0.02753  Biso   1.000  H
  Cl193    1.0000 0.74027  0.92653  0.59443  Biso   1.000  Cl
  N135     1.0000 0.05257  0.38043  0.82653  Biso   1.000  N
  N136     1.0000 0.00627  0.28673  0.83963  Biso   1.000  N
  C752     1.0000 0.05287  0.33323  0.83303  Biso   1.000  C
  H301     1.0000 0.08737  0.33333  0.83293  Biso   1.000  H
  C753     1.0000 0.92267  0.36833  0.89483  Biso   1.000  C
  C754     1.0000 0.89247  0.31033  0.89843  Biso   1.000  C
  C755     1.0000 0.91527  0.27883  0.87623  Biso   1.000  C
  C756     1.0000 0.96847  0.30553  0.85043  Biso   1.000  C
  C757     1.0000 0.99867  0.36353  0.84673  Biso   1.000  C
  C758     1.0000 0.97587  0.39503  0.86903  Biso   1.000  C
  Cl194    1.0000 0.88077  0.39733  0.91433  Biso   1.000  Cl
  Cl195    1.0000 0.86437  0.23613  0.64663  Biso   1.000  Cl
  C759     1.0000 0.84557  0.10383  0.77923  Biso   1.000  C
  C760     1.0000 0.89597  0.15403  0.77993  Biso   1.000  C
  C761     1.0000 0.80317  0.09513  0.73323  Biso   1.000  C
  C762     1.0000 0.73037  0.86483  0.90643  Biso   1.000  C
  H302     1.0000 0.69357  0.84563  0.88653  Biso   1.000  H
  H303     1.0000 0.73467  0.83833  0.93243  Biso   1.000  H
  H304     1.0000 0.73327  0.89563  0.93153  Biso   1.000  H
  C763     1.0000 0.82247  0.93463  0.78183  Biso   1.000  C
  H305     1.0000 0.84477  0.96583  0.75623  Biso   1.000  H
  C764     1.0000 0.82237  0.88793  0.78153  Biso   1.000  C
  H306     1.0000 0.84427  0.87903  0.75543  Biso   1.000  H
  C765     1.0000 0.89397  0.10463  0.86033  Biso   1.000  C
  C766     1.0000 0.90387  0.19783  0.73413  Biso   1.000  C
  C767     1.0000 0.81347  0.13563  0.69553  Biso   1.000  C
  C768     1.0000 0.72237  0.08953  0.85823  Biso   1.000  C
  C769     1.0000 0.69467  0.03183  0.84983  Biso   1.000  C
  C770     1.0000 0.63677  0.00193  0.84453  Biso   1.000  C
  C771     1.0000 0.60647  0.02973  0.84743  Biso   1.000  C
  C772     1.0000 0.63397  0.08733  0.85583  Biso   1.000  C
  C773     1.0000 0.69197  0.11723  0.86113  Biso   1.000  C
  C774     1.0000 0.86227  0.18583  0.69673  Biso   1.000  C
  C775     1.0000 0.60667  0.02533  0.87133  Biso   1.000  C
  C776     1.0000 0.62037  0.07123  0.90633  Biso   1.000  C
  C777     1.0000 0.72467  0.08233  0.87733  Biso   1.000  C
  C778     1.0000 0.69097  0.10863  0.89533  Biso   1.000  C
  C779     1.0000 0.60867  0.03133  0.81433  Biso   1.000  C
  C780     1.0000 0.64557  0.09633  0.80583  Biso   1.000  C
  C781     1.0000 0.72567  0.09133  0.82333  Biso   1.000  C
  Cl196    1.0000 0.60397  0.12583  0.85933  Biso   1.000  Cl
  Cl197    1.0000 0.72307  0.18663  0.87333  Biso   1.000  Cl
  Cl198    1.0000 0.72487  0.17443  0.92933  Biso   1.000  Cl
  Cl199    1.0000 0.60207  0.11843  0.91533  Biso   1.000  Cl
  Cl200    1.0000 0.73217  0.18953  0.80233  Biso   1.000  Cl
  Cl201    1.0000 0.60687  0.11383  0.73533  Biso   1.000  Cl
  Cl202    1.0000 0.60987  0.12993  0.78633  Biso   1.000  Cl
  C782     1.0000 0.70257  0.12273  0.81233  Biso   1.000  C
  Cl203    1.0000 0.73967  0.81293  0.59453  Biso   1.000  Cl
  Cl204    1.0000 0.90197  0.19773  0.68693  Biso   1.000  Cl
  Zn35     1.0000 0.66582  0.54722  0.19333  Biso   1.000  Zn
  Zn36     1.0000 0.45283  0.33418  0.19329  Biso   1.000  Zn
  N137     1.0000 0.44993  0.26547  0.16057  Biso   1.000  N
  N138     1.0000 0.46923  0.33317  0.38417  Biso   1.000  N
  N139     1.0000 0.45023  0.18447  0.16047  Biso   1.000  N
  N140     1.0000 0.59743  0.48447  0.15977  Biso   1.000  N
  N141     1.0000 0.46903  0.33327  0.28267  Biso   1.000  N
  N142     1.0000 0.51593  0.40237  0.15957  Biso   1.000  N
  C783     1.0000 0.44343  0.22177  0.19077  Biso   1.000  C
  C784     1.0000 0.55433  0.44887  0.18367  Biso   1.000  C
  C785     1.0000 0.51503  0.33267  0.36337  Biso   1.000  C
  H307     1.0000 0.54243  0.33147  0.38847  Biso   1.000  H
  C786     1.0000 0.44243  0.33337  0.33327  Biso   1.000  C
  C787     1.0000 0.43403  0.19127  0.10137  Biso   1.000  C
  C788     1.0000 0.43493  0.24297  0.10217  Biso   1.000  C
  C789     1.0000 0.55443  0.39947  0.11217  Biso   1.000  C
  H308     1.0000 0.54563  0.36827  0.08667  Biso   1.000  H
  C790     1.0000 0.42313  0.16047  0.04887  Biso   1.000  C
  H309     1.0000 0.42173  0.12537  0.04937  Biso   1.000  H
  C791     1.0000 0.42343  0.26347  0.04877  Biso   1.000  C
  H310     1.0000 0.42163  0.29697  0.04867  Biso   1.000  H
  C792     1.0000 0.41433  0.23107  0.99487  Biso   1.000  C
  C793     1.0000 0.41433  0.18187  0.99437  Biso   1.000  C
  C794     1.0000 0.59993  0.44527  0.11227  Biso   1.000  C
  H311     1.0000 0.63113  0.45407  0.08667  Biso   1.000  H
  C795     1.0000 0.53453  0.46587  0.23847  Biso   1.000  C
  H312     1.0000 0.54953  0.50647  0.23737  Biso   1.000  H
  H313     1.0000 0.49363  0.44657  0.23837  Biso   1.000  H
  H314     1.0000 0.54773  0.45607  0.27547  Biso   1.000  H
  C796     1.0000 0.51623  0.33417  0.30347  Biso   1.000  C
  H315     1.0000 0.54523  0.33577  0.27867  Biso   1.000  H
  C797     1.0000 0.38613  0.33317  0.33317  Biso   1.000  C
  H316     1.0000 0.39253  0.36977  0.34687  Biso   1.000  H
  H317     1.0000 0.37073  0.32577  0.29177  Biso   1.000  H
  H318     1.0000 0.35983  0.30407  0.36087  Biso   1.000  H
  Cl205    1.0000 0.40693  0.25987  0.92777  Biso   1.000  Cl
  N143     1.0000 0.71923  0.71377  0.15987  Biso   1.000  N
  N144     1.0000 0.67293  0.62007  0.17297  Biso   1.000  N
  C798     1.0000 0.71953  0.66657  0.16637  Biso   1.000  C
  H319     1.0000 0.75403  0.66667  0.16627  Biso   1.000  H
  C799     1.0000 0.58933  0.70167  0.22817  Biso   1.000  C
  C800     1.0000 0.55913  0.64367  0.23177  Biso   1.000  C
  C801     1.0000 0.58193  0.61217  0.20957  Biso   1.000  C
  C802     1.0000 0.63513  0.63887  0.18377  Biso   1.000  C
  C803     1.0000 0.66533  0.69687  0.18007  Biso   1.000  C
  C804     1.0000 0.64253  0.72837  0.20237  Biso   1.000  C
  Cl206    1.0000 0.54743  0.73067  0.24767  Biso   1.000  Cl
  Cl207    1.0000 0.53103  0.56947  0.97997  Biso   1.000  Cl
  C805     1.0000 0.51223  0.43717  0.11257  Biso   1.000  C
  C806     1.0000 0.56263  0.48737  0.11327  Biso   1.000  C
  C807     1.0000 0.46983  0.42847  0.06657  Biso   1.000  C
  C808     1.0000 0.39703  0.19817  0.23977  Biso   1.000  C
  H320     1.0000 0.36023  0.17897  0.21987  Biso   1.000  H
  H321     1.0000 0.40133  0.17167  0.26577  Biso   1.000  H
  H322     1.0000 0.39993  0.22897  0.26487  Biso   1.000  H
  C809     1.0000 0.48913  0.26797  0.11517  Biso   1.000  C
  H323     1.0000 0.51143  0.29917  0.08957  Biso   1.000  H
  C810     1.0000 0.48903  0.22127  0.11487  Biso   1.000  C
  H324     1.0000 0.51093  0.21237  0.08877  Biso   1.000  H
  C811     1.0000 0.56063  0.43797  0.19367  Biso   1.000  C
  C812     1.0000 0.57053  0.53117  0.06747  Biso   1.000  C
  C813     1.0000 0.48013  0.46897  0.02887  Biso   1.000  C
  C814     1.0000 0.38903  0.42287  0.19157  Biso   1.000  C
  C815     1.0000 0.36133  0.36517  0.18317  Biso   1.000  C
  C816     1.0000 0.30343  0.33527  0.17787  Biso   1.000  C
  C817     1.0000 0.27313  0.36307  0.18077  Biso   1.000  C
  C818     1.0000 0.30063  0.42067  0.18917  Biso   1.000  C
  C819     1.0000 0.35863  0.45057  0.19447  Biso   1.000  C
  C820     1.0000 0.52893  0.51917  0.03007  Biso   1.000  C
  C821     1.0000 0.27333  0.35867  0.20467  Biso   1.000  C
  C822     1.0000 0.28703  0.40457  0.23967  Biso   1.000  C
  C823     1.0000 0.39133  0.41567  0.21067  Biso   1.000  C
  C824     1.0000 0.35763  0.44197  0.22867  Biso   1.000  C
  C825     1.0000 0.27533  0.36467  0.14767  Biso   1.000  C
  C826     1.0000 0.31223  0.42967  0.13917  Biso   1.000  C
  C827     1.0000 0.39233  0.42467  0.15667  Biso   1.000  C
  Cl208    1.0000 0.27063  0.45917  0.19267  Biso   1.000  Cl
  Cl209    1.0000 0.38973  0.51997  0.20667  Biso   1.000  Cl
  Cl210    1.0000 0.39153  0.50777  0.26267  Biso   1.000  Cl
  Cl211    1.0000 0.26873  0.45177  0.24867  Biso   1.000  Cl
  Cl212    1.0000 0.39883  0.52287  0.13567  Biso   1.000  Cl
  Cl213    1.0000 0.27353  0.44717  0.06867  Biso   1.000  Cl
  Cl214    1.0000 0.27653  0.46327  0.11967  Biso   1.000  Cl
  C828     1.0000 0.36923  0.45607  0.14567  Biso   1.000  C
  Cl215    1.0000 0.40633  0.14627  0.92787  Biso   1.000  Cl
  Cl216    1.0000 0.56863  0.53107  0.02027  Biso   1.000  Cl
