data_image0
_cell_length_a       32.839
_cell_length_b       32.839
_cell_length_c       30.571
_cell_angle_alpha    90
_cell_angle_beta     90
_cell_angle_gamma    120

_symmetry_space_group_name_H-M    "P 1"
_symmetry_int_tables_number       1

loop_
  _symmetry_equiv_pos_as_xyz
  'x, y, z'

loop_
  _atom_site_label
  _atom_site_occupancy
  _atom_site_fract_x
  _atom_site_fract_y
  _atom_site_fract_z
  _atom_site_thermal_displace_type
  _atom_site_B_iso_or_equiv
  _atom_site_type_symbol
  Fe1      1.0000 0.15720  0.34170  0.02990  Biso   1.000  Fe
  O1       1.0000 0.14970  0.39571  0.05443  Biso   1.000  O
  O2       1.0000 0.12686  0.37210  0.12301  Biso   1.000  O
  O3       1.0000 0.03319  0.43691  0.19185  Biso   1.000  O
  O4       1.0000 0.04137  0.50400  0.16525  Biso   1.000  O
  O5       1.0000 0.12436  0.72665  0.05360  Biso   1.000  O
  O6       1.0000 0.17431  0.78096  0.00699  Biso   1.000  O
  O7       1.0000 0.29691  0.75456  0.93800  Biso   1.000  O
  H1       1.0000 0.32230  0.76130  0.92540  Biso   1.000  H
  O8       1.0000 0.30055  0.69259  0.95720  Biso   1.000  O
  O9       1.0000 0.13055  0.35289  0.97249  Biso   1.000  O
  C1       1.0000 0.13478  0.39904  0.09116  Biso   1.000  C
  C2       1.0000 0.12524  0.43881  0.09669  Biso   1.000  C
  C3       1.0000 0.09469  0.43642  0.12895  Biso   1.000  C
  H2       1.0000 0.08110  0.41050  0.14850  Biso   1.000  H
  C4       1.0000 0.08405  0.47239  0.13248  Biso   1.000  C
  C5       1.0000 0.10526  0.51076  0.10496  Biso   1.000  C
  H3       1.0000 0.09800  0.53520  0.10800  Biso   1.000  H
  C6       1.0000 0.13741  0.51455  0.07252  Biso   1.000  C
  C7       1.0000 0.14626  0.47730  0.06868  Biso   1.000  C
  H4       1.0000 0.16700  0.47830  0.04650  Biso   1.000  H
  C8       1.0000 0.05021  0.47092  0.16602  Biso   1.000  C
  C9       1.0000 0.16155  0.55693  0.04567  Biso   1.000  C
  H5       1.0000 0.18670  0.56060  0.02770  Biso   1.000  H
  C10      1.0000 0.15064  0.59002  0.04493  Biso   1.000  C
  H6       1.0000 0.12270  0.58280  0.06030  Biso   1.000  H
  C11      1.0000 0.17430  0.63643  0.02436  Biso   1.000  C
  C12      1.0000 0.15619  0.66604  0.03177  Biso   1.000  C
  H7       1.0000 0.12840  0.65490  0.04880  Biso   1.000  H
  C13      1.0000 0.17722  0.71101  0.01516  Biso   1.000  C
  C14      1.0000 0.21765  0.72739  0.99005  Biso   1.000  C
  H8       1.0000 0.23200  0.75800  0.97770  Biso   1.000  H
  C15      1.0000 0.23694  0.69899  0.98304  Biso   1.000  C
  C16      1.0000 0.21543  0.65364  0.99976  Biso   1.000  C
  H9       1.0000 0.22880  0.63420  0.99440  Biso   1.000  H
  C17      1.0000 0.15685  0.74178  0.02602  Biso   1.000  C
  C18      1.0000 0.28170  0.71640  0.95740  Biso   1.000  C
  Co1      1.0000 0.15470  0.34300  0.03060  Biso   1.000  Co
  Fe2      1.0000 0.82387  0.67503  0.36323  Biso   1.000  Fe
  O10      1.0000 0.81637  0.72904  0.38776  Biso   1.000  O
  O11      1.0000 0.79353  0.70543  0.45634  Biso   1.000  O
  O12      1.0000 0.69986  0.77024  0.52518  Biso   1.000  O
  O13      1.0000 0.70804  0.83733  0.49858  Biso   1.000  O
  O14      1.0000 0.79103  0.05998  0.38693  Biso   1.000  O
  O15      1.0000 0.84098  0.11429  0.34032  Biso   1.000  O
  O16      1.0000 0.96358  0.08789  0.27133  Biso   1.000  O
  H10      1.0000 0.98897  0.09463  0.25873  Biso   1.000  H
  O17      1.0000 0.96722  0.02592  0.29053  Biso   1.000  O
  O18      1.0000 0.79722  0.68622  0.30582  Biso   1.000  O
  C19      1.0000 0.80145  0.73237  0.42449  Biso   1.000  C
  C20      1.0000 0.79191  0.77214  0.43002  Biso   1.000  C
  C21      1.0000 0.76136  0.76975  0.46228  Biso   1.000  C
  H11      1.0000 0.74777  0.74383  0.48183  Biso   1.000  H
  C22      1.0000 0.75072  0.80572  0.46581  Biso   1.000  C
  C23      1.0000 0.77193  0.84409  0.43829  Biso   1.000  C
  H12      1.0000 0.76467  0.86853  0.44133  Biso   1.000  H
  C24      1.0000 0.80408  0.84788  0.40585  Biso   1.000  C
  C25      1.0000 0.81293  0.81063  0.40201  Biso   1.000  C
  H13      1.0000 0.83367  0.81163  0.37983  Biso   1.000  H
  C26      1.0000 0.71688  0.80425  0.49935  Biso   1.000  C
  C27      1.0000 0.82822  0.89026  0.37900  Biso   1.000  C
  H14      1.0000 0.85337  0.89393  0.36103  Biso   1.000  H
  C28      1.0000 0.81731  0.92335  0.37826  Biso   1.000  C
  H15      1.0000 0.78937  0.91613  0.39363  Biso   1.000  H
  C29      1.0000 0.84097  0.96976  0.35769  Biso   1.000  C
  C30      1.0000 0.82286  0.99937  0.36510  Biso   1.000  C
  H16      1.0000 0.79507  0.98823  0.38213  Biso   1.000  H
  C31      1.0000 0.84389  0.04434  0.34849  Biso   1.000  C
  C32      1.0000 0.88432  0.06072  0.32338  Biso   1.000  C
  H17      1.0000 0.89867  0.09133  0.31103  Biso   1.000  H
  C33      1.0000 0.90361  0.03232  0.31637  Biso   1.000  C
  C34      1.0000 0.88210  0.98697  0.33309  Biso   1.000  C
  H18      1.0000 0.89547  0.96753  0.32773  Biso   1.000  H
  C35      1.0000 0.82352  0.07511  0.35935  Biso   1.000  C
  C36      1.0000 0.94837  0.04973  0.29073  Biso   1.000  C
  Co2      1.0000 0.82137  0.67633  0.36393  Biso   1.000  Co
  Fe3      1.0000 0.49053  0.00837  0.69657  Biso   1.000  Fe
  O19      1.0000 0.48303  0.06238  0.72110  Biso   1.000  O
  O20      1.0000 0.46019  0.03877  0.78968  Biso   1.000  O
  O21      1.0000 0.36652  0.10358  0.85852  Biso   1.000  O
  O22      1.0000 0.37470  0.17067  0.83192  Biso   1.000  O
  O23      1.0000 0.45769  0.39332  0.72027  Biso   1.000  O
  O24      1.0000 0.50764  0.44763  0.67366  Biso   1.000  O
  O25      1.0000 0.63024  0.42123  0.60467  Biso   1.000  O
  H19      1.0000 0.65563  0.42797  0.59207  Biso   1.000  H
  O26      1.0000 0.63388  0.35926  0.62387  Biso   1.000  O
  O27      1.0000 0.46388  0.01956  0.63916  Biso   1.000  O
  C37      1.0000 0.46811  0.06571  0.75783  Biso   1.000  C
  C38      1.0000 0.45857  0.10548  0.76336  Biso   1.000  C
  C39      1.0000 0.42802  0.10309  0.79562  Biso   1.000  C
  H20      1.0000 0.41443  0.07717  0.81517  Biso   1.000  H
  C40      1.0000 0.41738  0.13906  0.79915  Biso   1.000  C
  C41      1.0000 0.43859  0.17743  0.77163  Biso   1.000  C
  H21      1.0000 0.43133  0.20187  0.77467  Biso   1.000  H
  C42      1.0000 0.47074  0.18122  0.73919  Biso   1.000  C
  C43      1.0000 0.47959  0.14397  0.73535  Biso   1.000  C
  H22      1.0000 0.50033  0.14497  0.71317  Biso   1.000  H
  C44      1.0000 0.38354  0.13759  0.83269  Biso   1.000  C
  C45      1.0000 0.49488  0.22360  0.71234  Biso   1.000  C
  H23      1.0000 0.52003  0.22727  0.69437  Biso   1.000  H
  C46      1.0000 0.48397  0.25669  0.71160  Biso   1.000  C
  H24      1.0000 0.45603  0.24947  0.72697  Biso   1.000  H
  C47      1.0000 0.50763  0.30310  0.69103  Biso   1.000  C
  C48      1.0000 0.48952  0.33271  0.69844  Biso   1.000  C
  H25      1.0000 0.46173  0.32157  0.71547  Biso   1.000  H
  C49      1.0000 0.51055  0.37768  0.68183  Biso   1.000  C
  C50      1.0000 0.55098  0.39406  0.65672  Biso   1.000  C
  H26      1.0000 0.56533  0.42467  0.64437  Biso   1.000  H
  C51      1.0000 0.57027  0.36566  0.64971  Biso   1.000  C
  C52      1.0000 0.54876  0.32031  0.66643  Biso   1.000  C
  H27      1.0000 0.56213  0.30087  0.66107  Biso   1.000  H
  C53      1.0000 0.49018  0.40845  0.69269  Biso   1.000  C
  C54      1.0000 0.61503  0.38307  0.62407  Biso   1.000  C
  Co3      1.0000 0.48803  0.00967  0.69727  Biso   1.000  Co
  Fe4      1.0000 0.65830  0.81550  0.02990  Biso   1.000  Fe
  O28      1.0000 0.60429  0.75399  0.05443  Biso   1.000  O
  O29      1.0000 0.62790  0.75476  0.12301  Biso   1.000  O
  O30      1.0000 0.56309  0.59628  0.19185  Biso   1.000  O
  O31      1.0000 0.49600  0.53737  0.16525  Biso   1.000  O
  O32      1.0000 0.27335  0.39771  0.05360  Biso   1.000  O
  O33      1.0000 0.21904  0.39335  0.00699  Biso   1.000  O
  O34      1.0000 0.24544  0.54235  0.93800  Biso   1.000  O
  H28      1.0000 0.23870  0.56100  0.92540  Biso   1.000  H
  O35      1.0000 0.30741  0.60796  0.95720  Biso   1.000  O
  O36      1.0000 0.64711  0.77766  0.97249  Biso   1.000  O
  C55      1.0000 0.60096  0.73574  0.09116  Biso   1.000  C
  C56      1.0000 0.56119  0.68643  0.09669  Biso   1.000  C
  C57      1.0000 0.56358  0.65827  0.12895  Biso   1.000  C
  H29      1.0000 0.58950  0.67060  0.14850  Biso   1.000  H
  C58      1.0000 0.52761  0.61166  0.13248  Biso   1.000  C
  C59      1.0000 0.48924  0.59450  0.10496  Biso   1.000  C
  H30      1.0000 0.46480  0.56280  0.10800  Biso   1.000  H
  C60      1.0000 0.48545  0.62286  0.07252  Biso   1.000  C
  C61      1.0000 0.52270  0.66896  0.06868  Biso   1.000  C
  H31      1.0000 0.52170  0.68870  0.04650  Biso   1.000  H
  C62      1.0000 0.52908  0.57929  0.16602  Biso   1.000  C
  C63      1.0000 0.44307  0.60462  0.04567  Biso   1.000  C
  H32      1.0000 0.43940  0.62610  0.02770  Biso   1.000  H
  C64      1.0000 0.40998  0.56062  0.04493  Biso   1.000  C
  H33      1.0000 0.41720  0.53990  0.06030  Biso   1.000  H
  C65      1.0000 0.36357  0.53787  0.02436  Biso   1.000  C
  C66      1.0000 0.33396  0.49015  0.03177  Biso   1.000  C
  H34      1.0000 0.34510  0.47350  0.04880  Biso   1.000  H
  C67      1.0000 0.28899  0.46621  0.01516  Biso   1.000  C
  C68      1.0000 0.27261  0.49026  0.99005  Biso   1.000  C
  H35      1.0000 0.24200  0.47400  0.97770  Biso   1.000  H
  C69      1.0000 0.30101  0.53795  0.98304  Biso   1.000  C
  C70      1.0000 0.34636  0.56179  0.99976  Biso   1.000  C
  H36      1.0000 0.36580  0.59460  0.99440  Biso   1.000  H
  C71      1.0000 0.25822  0.41507  0.02602  Biso   1.000  C
  C72      1.0000 0.28360  0.56530  0.95740  Biso   1.000  C
  Co4      1.0000 0.65700  0.81170  0.03060  Biso   1.000  Co
  Fe5      1.0000 0.32497  0.14883  0.36323  Biso   1.000  Fe
  O37      1.0000 0.27096  0.08732  0.38776  Biso   1.000  O
  O38      1.0000 0.29457  0.08809  0.45634  Biso   1.000  O
  O39      1.0000 0.22976  0.92961  0.52518  Biso   1.000  O
  O40      1.0000 0.16267  0.87070  0.49858  Biso   1.000  O
  O41      1.0000 0.94002  0.73104  0.38693  Biso   1.000  O
  O42      1.0000 0.88571  0.72668  0.34032  Biso   1.000  O
  O43      1.0000 0.91211  0.87568  0.27133  Biso   1.000  O
  H37      1.0000 0.90537  0.89433  0.25873  Biso   1.000  H
  O44      1.0000 0.97408  0.94129  0.29053  Biso   1.000  O
  O45      1.0000 0.31378  0.11099  0.30582  Biso   1.000  O
  C73      1.0000 0.26763  0.06907  0.42449  Biso   1.000  C
  C74      1.0000 0.22786  0.01976  0.43002  Biso   1.000  C
  C75      1.0000 0.23025  0.99160  0.46228  Biso   1.000  C
  H38      1.0000 0.25617  0.00393  0.48183  Biso   1.000  H
  C76      1.0000 0.19428  0.94499  0.46581  Biso   1.000  C
  C77      1.0000 0.15591  0.92783  0.43829  Biso   1.000  C
  H39      1.0000 0.13147  0.89613  0.44133  Biso   1.000  H
  C78      1.0000 0.15212  0.95619  0.40585  Biso   1.000  C
  C79      1.0000 0.18937  0.00229  0.40201  Biso   1.000  C
  H40      1.0000 0.18837  0.02203  0.37983  Biso   1.000  H
  C80      1.0000 0.19575  0.91262  0.49935  Biso   1.000  C
  C81      1.0000 0.10974  0.93795  0.37900  Biso   1.000  C
  H41      1.0000 0.10607  0.95943  0.36103  Biso   1.000  H
  C82      1.0000 0.07665  0.89395  0.37826  Biso   1.000  C
  H42      1.0000 0.08387  0.87323  0.39363  Biso   1.000  H
  C83      1.0000 0.03024  0.87120  0.35769  Biso   1.000  C
  C84      1.0000 0.00063  0.82348  0.36510  Biso   1.000  C
  H43      1.0000 0.01177  0.80683  0.38213  Biso   1.000  H
  C85      1.0000 0.95566  0.79954  0.34849  Biso   1.000  C
  C86      1.0000 0.93928  0.82359  0.32338  Biso   1.000  C
  H44      1.0000 0.90867  0.80733  0.31103  Biso   1.000  H
  C87      1.0000 0.96768  0.87128  0.31637  Biso   1.000  C
  C88      1.0000 0.01303  0.89512  0.33309  Biso   1.000  C
  H45      1.0000 0.03247  0.92793  0.32773  Biso   1.000  H
  C89      1.0000 0.92489  0.74840  0.35935  Biso   1.000  C
  C90      1.0000 0.95027  0.89863  0.29073  Biso   1.000  C
  Co5      1.0000 0.32367  0.14503  0.36393  Biso   1.000  Co
  Fe6      1.0000 0.99163  0.48217  0.69657  Biso   1.000  Fe
  O46      1.0000 0.93762  0.42066  0.72110  Biso   1.000  O
  O47      1.0000 0.96123  0.42143  0.78968  Biso   1.000  O
  O48      1.0000 0.89642  0.26295  0.85852  Biso   1.000  O
  O49      1.0000 0.82933  0.20404  0.83192  Biso   1.000  O
  O50      1.0000 0.60668  0.06438  0.72027  Biso   1.000  O
  O51      1.0000 0.55237  0.06002  0.67366  Biso   1.000  O
  O52      1.0000 0.57877  0.20902  0.60467  Biso   1.000  O
  H46      1.0000 0.57203  0.22767  0.59207  Biso   1.000  H
  O53      1.0000 0.64074  0.27463  0.62387  Biso   1.000  O
  O54      1.0000 0.98044  0.44433  0.63916  Biso   1.000  O
  C91      1.0000 0.93429  0.40241  0.75783  Biso   1.000  C
  C92      1.0000 0.89452  0.35310  0.76336  Biso   1.000  C
  C93      1.0000 0.89691  0.32494  0.79562  Biso   1.000  C
  H47      1.0000 0.92283  0.33727  0.81517  Biso   1.000  H
  C94      1.0000 0.86094  0.27833  0.79915  Biso   1.000  C
  C95      1.0000 0.82257  0.26117  0.77163  Biso   1.000  C
  H48      1.0000 0.79813  0.22947  0.77467  Biso   1.000  H
  C96      1.0000 0.81878  0.28953  0.73919  Biso   1.000  C
  C97      1.0000 0.85603  0.33563  0.73535  Biso   1.000  C
  H49      1.0000 0.85503  0.35537  0.71317  Biso   1.000  H
  C98      1.0000 0.86241  0.24596  0.83269  Biso   1.000  C
  C99      1.0000 0.77640  0.27129  0.71234  Biso   1.000  C
  H50      1.0000 0.77273  0.29277  0.69437  Biso   1.000  H
  C100     1.0000 0.74331  0.22729  0.71160  Biso   1.000  C
  H51      1.0000 0.75053  0.20657  0.72697  Biso   1.000  H
  C101     1.0000 0.69690  0.20454  0.69103  Biso   1.000  C
  C102     1.0000 0.66729  0.15682  0.69844  Biso   1.000  C
  H52      1.0000 0.67843  0.14017  0.71547  Biso   1.000  H
  C103     1.0000 0.62232  0.13288  0.68183  Biso   1.000  C
  C104     1.0000 0.60594  0.15693  0.65672  Biso   1.000  C
  H53      1.0000 0.57533  0.14067  0.64437  Biso   1.000  H
  C105     1.0000 0.63434  0.20462  0.64971  Biso   1.000  C
  C106     1.0000 0.67969  0.22846  0.66643  Biso   1.000  C
  H54      1.0000 0.69913  0.26127  0.66107  Biso   1.000  H
  C107     1.0000 0.59155  0.08174  0.69269  Biso   1.000  C
  C108     1.0000 0.61693  0.23197  0.62407  Biso   1.000  C
  Co6      1.0000 0.99033  0.47837  0.69727  Biso   1.000  Co
  Fe7      1.0000 0.18450  0.84280  0.02990  Biso   1.000  Fe
  O55      1.0000 0.24601  0.85030  0.05443  Biso   1.000  O
  O56      1.0000 0.24524  0.87314  0.12301  Biso   1.000  O
  O57      1.0000 0.40372  0.96681  0.19185  Biso   1.000  O
  O58      1.0000 0.46263  0.95863  0.16525  Biso   1.000  O
  O59      1.0000 0.60229  0.87564  0.05360  Biso   1.000  O
  O60      1.0000 0.60665  0.82569  0.00699  Biso   1.000  O
  O61      1.0000 0.45765  0.70309  0.93800  Biso   1.000  O
  H55      1.0000 0.43900  0.67770  0.92540  Biso   1.000  H
  O62      1.0000 0.39204  0.69945  0.95720  Biso   1.000  O
  O63      1.0000 0.22234  0.86945  0.97249  Biso   1.000  O
  C109     1.0000 0.26426  0.86522  0.09116  Biso   1.000  C
  C110     1.0000 0.31357  0.87476  0.09669  Biso   1.000  C
  C111     1.0000 0.34173  0.90531  0.12895  Biso   1.000  C
  H56      1.0000 0.32940  0.91890  0.14850  Biso   1.000  H
  C112     1.0000 0.38834  0.91595  0.13248  Biso   1.000  C
  C113     1.0000 0.40550  0.89474  0.10496  Biso   1.000  C
  H57      1.0000 0.43720  0.90200  0.10800  Biso   1.000  H
  C114     1.0000 0.37714  0.86259  0.07252  Biso   1.000  C
  C115     1.0000 0.33104  0.85374  0.06868  Biso   1.000  C
  H58      1.0000 0.31130  0.83300  0.04650  Biso   1.000  H
  C116     1.0000 0.42071  0.94979  0.16602  Biso   1.000  C
  C117     1.0000 0.39538  0.83845  0.04567  Biso   1.000  C
  H59      1.0000 0.37390  0.81330  0.02770  Biso   1.000  H
  C118     1.0000 0.43938  0.84936  0.04493  Biso   1.000  C
  H60      1.0000 0.46010  0.87730  0.06030  Biso   1.000  H
  C119     1.0000 0.46213  0.82570  0.02436  Biso   1.000  C
  C120     1.0000 0.50985  0.84381  0.03177  Biso   1.000  C
  H61      1.0000 0.52650  0.87160  0.04880  Biso   1.000  H
  C121     1.0000 0.53379  0.82278  0.01516  Biso   1.000  C
  C122     1.0000 0.50974  0.78235  0.99005  Biso   1.000  C
  H62      1.0000 0.52600  0.76800  0.97770  Biso   1.000  H
  C123     1.0000 0.46205  0.76306  0.98304  Biso   1.000  C
  C124     1.0000 0.43821  0.78457  0.99976  Biso   1.000  C
  H63      1.0000 0.40540  0.77120  0.99440  Biso   1.000  H
  C125     1.0000 0.58493  0.84315  0.02602  Biso   1.000  C
  C126     1.0000 0.43470  0.71830  0.95740  Biso   1.000  C
  Co7      1.0000 0.18830  0.84530  0.03060  Biso   1.000  Co
  Fe8      1.0000 0.85117  0.17613  0.36323  Biso   1.000  Fe
  O64      1.0000 0.91268  0.18363  0.38776  Biso   1.000  O
  O65      1.0000 0.91191  0.20647  0.45634  Biso   1.000  O
  O66      1.0000 0.07039  0.30014  0.52518  Biso   1.000  O
  O67      1.0000 0.12930  0.29196  0.49858  Biso   1.000  O
  O68      1.0000 0.26896  0.20897  0.38693  Biso   1.000  O
  O69      1.0000 0.27332  0.15902  0.34032  Biso   1.000  O
  O70      1.0000 0.12432  0.03642  0.27133  Biso   1.000  O
  H64      1.0000 0.10567  0.01103  0.25873  Biso   1.000  H
  O71      1.0000 0.05871  0.03278  0.29053  Biso   1.000  O
  O72      1.0000 0.88901  0.20278  0.30582  Biso   1.000  O
  C127     1.0000 0.93093  0.19855  0.42449  Biso   1.000  C
  C128     1.0000 0.98024  0.20809  0.43002  Biso   1.000  C
  C129     1.0000 0.00840  0.23864  0.46228  Biso   1.000  C
  H65      1.0000 0.99607  0.25223  0.48183  Biso   1.000  H
  C130     1.0000 0.05501  0.24928  0.46581  Biso   1.000  C
  C131     1.0000 0.07217  0.22807  0.43829  Biso   1.000  C
  H66      1.0000 0.10387  0.23533  0.44133  Biso   1.000  H
  C132     1.0000 0.04381  0.19592  0.40585  Biso   1.000  C
  C133     1.0000 0.99771  0.18707  0.40201  Biso   1.000  C
  H67      1.0000 0.97797  0.16633  0.37983  Biso   1.000  H
  C134     1.0000 0.08738  0.28312  0.49935  Biso   1.000  C
  C135     1.0000 0.06205  0.17178  0.37900  Biso   1.000  C
  H68      1.0000 0.04057  0.14663  0.36103  Biso   1.000  H
  C136     1.0000 0.10605  0.18269  0.37826  Biso   1.000  C
  H69      1.0000 0.12677  0.21063  0.39363  Biso   1.000  H
  C137     1.0000 0.12880  0.15903  0.35769  Biso   1.000  C
  C138     1.0000 0.17652  0.17714  0.36510  Biso   1.000  C
  H70      1.0000 0.19317  0.20493  0.38213  Biso   1.000  H
  C139     1.0000 0.20046  0.15611  0.34849  Biso   1.000  C
  C140     1.0000 0.17641  0.11568  0.32338  Biso   1.000  C
  H71      1.0000 0.19267  0.10133  0.31103  Biso   1.000  H
  C141     1.0000 0.12872  0.09639  0.31637  Biso   1.000  C
  C142     1.0000 0.10488  0.11790  0.33309  Biso   1.000  C
  H72      1.0000 0.07207  0.10453  0.32773  Biso   1.000  H
  C143     1.0000 0.25160  0.17648  0.35935  Biso   1.000  C
  C144     1.0000 0.10137  0.05163  0.29073  Biso   1.000  C
  Co8      1.0000 0.85497  0.17863  0.36393  Biso   1.000  Co
  Fe9      1.0000 0.51783  0.50947  0.69657  Biso   1.000  Fe
  O73      1.0000 0.57934  0.51697  0.72110  Biso   1.000  O
  O74      1.0000 0.57857  0.53981  0.78968  Biso   1.000  O
  O75      1.0000 0.73705  0.63348  0.85852  Biso   1.000  O
  O76      1.0000 0.79596  0.62530  0.83192  Biso   1.000  O
  O77      1.0000 0.93562  0.54231  0.72027  Biso   1.000  O
  O78      1.0000 0.93998  0.49236  0.67366  Biso   1.000  O
  O79      1.0000 0.79098  0.36976  0.60467  Biso   1.000  O
  H73      1.0000 0.77233  0.34437  0.59207  Biso   1.000  H
  O80      1.0000 0.72537  0.36612  0.62387  Biso   1.000  O
  O81      1.0000 0.55567  0.53612  0.63916  Biso   1.000  O
  C145     1.0000 0.59759  0.53189  0.75783  Biso   1.000  C
  C146     1.0000 0.64690  0.54143  0.76336  Biso   1.000  C
  C147     1.0000 0.67506  0.57198  0.79562  Biso   1.000  C
  H74      1.0000 0.66273  0.58557  0.81517  Biso   1.000  H
  C148     1.0000 0.72167  0.58262  0.79915  Biso   1.000  C
  C149     1.0000 0.73883  0.56141  0.77163  Biso   1.000  C
  H75      1.0000 0.77053  0.56867  0.77467  Biso   1.000  H
  C150     1.0000 0.71047  0.52926  0.73919  Biso   1.000  C
  C151     1.0000 0.66437  0.52041  0.73535  Biso   1.000  C
  H76      1.0000 0.64463  0.49967  0.71317  Biso   1.000  H
  C152     1.0000 0.75404  0.61646  0.83269  Biso   1.000  C
  C153     1.0000 0.72871  0.50512  0.71234  Biso   1.000  C
  H77      1.0000 0.70723  0.47997  0.69437  Biso   1.000  H
  C154     1.0000 0.77271  0.51603  0.71160  Biso   1.000  C
  H78      1.0000 0.79343  0.54397  0.72697  Biso   1.000  H
  C155     1.0000 0.79546  0.49237  0.69103  Biso   1.000  C
  C156     1.0000 0.84318  0.51048  0.69844  Biso   1.000  C
  H79      1.0000 0.85983  0.53827  0.71547  Biso   1.000  H
  C157     1.0000 0.86712  0.48945  0.68183  Biso   1.000  C
  C158     1.0000 0.84307  0.44902  0.65672  Biso   1.000  C
  H80      1.0000 0.85933  0.43467  0.64437  Biso   1.000  H
  C159     1.0000 0.79538  0.42973  0.64971  Biso   1.000  C
  C160     1.0000 0.77154  0.45124  0.66643  Biso   1.000  C
  H81      1.0000 0.73873  0.43787  0.66107  Biso   1.000  H
  C161     1.0000 0.91826  0.50982  0.69269  Biso   1.000  C
  C162     1.0000 0.76803  0.38497  0.62407  Biso   1.000  C
  Co9      1.0000 0.52163  0.51197  0.69727  Biso   1.000  Co
  Fe10     1.0000 0.34170  0.15720  0.47010  Biso   1.000  Fe
  O82      1.0000 0.39571  0.14970  0.44557  Biso   1.000  O
  O83      1.0000 0.37210  0.12686  0.37699  Biso   1.000  O
  O84      1.0000 0.43691  0.03319  0.30815  Biso   1.000  O
  O85      1.0000 0.50400  0.04137  0.33475  Biso   1.000  O
  O86      1.0000 0.72665  0.12436  0.44640  Biso   1.000  O
  O87      1.0000 0.78096  0.17431  0.49301  Biso   1.000  O
  O88      1.0000 0.75456  0.29691  0.56200  Biso   1.000  O
  H82      1.0000 0.76130  0.32230  0.57460  Biso   1.000  H
  O89      1.0000 0.69259  0.30055  0.54280  Biso   1.000  O
  O90      1.0000 0.35289  0.13055  0.52751  Biso   1.000  O
  C163     1.0000 0.39904  0.13478  0.40884  Biso   1.000  C
  C164     1.0000 0.43881  0.12524  0.40331  Biso   1.000  C
  C165     1.0000 0.43642  0.09469  0.37105  Biso   1.000  C
  H83      1.0000 0.41050  0.08110  0.35150  Biso   1.000  H
  C166     1.0000 0.47239  0.08405  0.36752  Biso   1.000  C
  C167     1.0000 0.51076  0.10526  0.39504  Biso   1.000  C
  H84      1.0000 0.53520  0.09800  0.39200  Biso   1.000  H
  C168     1.0000 0.51455  0.13741  0.42748  Biso   1.000  C
  C169     1.0000 0.47730  0.14626  0.43132  Biso   1.000  C
  H85      1.0000 0.47830  0.16700  0.45350  Biso   1.000  H
  C170     1.0000 0.47092  0.05021  0.33398  Biso   1.000  C
  C171     1.0000 0.55693  0.16155  0.45433  Biso   1.000  C
  H86      1.0000 0.56060  0.18670  0.47230  Biso   1.000  H
  C172     1.0000 0.59002  0.15064  0.45507  Biso   1.000  C
  H87      1.0000 0.58280  0.12270  0.43970  Biso   1.000  H
  C173     1.0000 0.63643  0.17430  0.47564  Biso   1.000  C
  C174     1.0000 0.66604  0.15619  0.46823  Biso   1.000  C
  H88      1.0000 0.65490  0.12840  0.45120  Biso   1.000  H
  C175     1.0000 0.71101  0.17722  0.48484  Biso   1.000  C
  C176     1.0000 0.72739  0.21765  0.50995  Biso   1.000  C
  H89      1.0000 0.75800  0.23200  0.52230  Biso   1.000  H
  C177     1.0000 0.69899  0.23694  0.51696  Biso   1.000  C
  C178     1.0000 0.65364  0.21543  0.50024  Biso   1.000  C
  H90      1.0000 0.63420  0.22880  0.50560  Biso   1.000  H
  C179     1.0000 0.74178  0.15685  0.47398  Biso   1.000  C
  C180     1.0000 0.71640  0.28170  0.54260  Biso   1.000  C
  Co10     1.0000 0.34300  0.15470  0.46940  Biso   1.000  Co
  Fe11     1.0000 0.00837  0.49053  0.80343  Biso   1.000  Fe
  O91      1.0000 0.06238  0.48303  0.77890  Biso   1.000  O
  O92      1.0000 0.03877  0.46019  0.71032  Biso   1.000  O
  O93      1.0000 0.10358  0.36652  0.64148  Biso   1.000  O
  O94      1.0000 0.17067  0.37470  0.66808  Biso   1.000  O
  O95      1.0000 0.39332  0.45769  0.77973  Biso   1.000  O
  O96      1.0000 0.44763  0.50764  0.82634  Biso   1.000  O
  O97      1.0000 0.42123  0.63024  0.89533  Biso   1.000  O
  H91      1.0000 0.42797  0.65563  0.90793  Biso   1.000  H
  O98      1.0000 0.35926  0.63388  0.87613  Biso   1.000  O
  O99      1.0000 0.01956  0.46388  0.86084  Biso   1.000  O
  C181     1.0000 0.06571  0.46811  0.74217  Biso   1.000  C
  C182     1.0000 0.10548  0.45857  0.73664  Biso   1.000  C
  C183     1.0000 0.10309  0.42802  0.70438  Biso   1.000  C
  H92      1.0000 0.07717  0.41443  0.68483  Biso   1.000  H
  C184     1.0000 0.13906  0.41738  0.70085  Biso   1.000  C
  C185     1.0000 0.17743  0.43859  0.72837  Biso   1.000  C
  H93      1.0000 0.20187  0.43133  0.72533  Biso   1.000  H
  C186     1.0000 0.18122  0.47074  0.76081  Biso   1.000  C
  C187     1.0000 0.14397  0.47959  0.76465  Biso   1.000  C
  H94      1.0000 0.14497  0.50033  0.78683  Biso   1.000  H
  C188     1.0000 0.13759  0.38354  0.66731  Biso   1.000  C
  C189     1.0000 0.22360  0.49488  0.78766  Biso   1.000  C
  H95      1.0000 0.22727  0.52003  0.80563  Biso   1.000  H
  C190     1.0000 0.25669  0.48397  0.78840  Biso   1.000  C
  H96      1.0000 0.24947  0.45603  0.77303  Biso   1.000  H
  C191     1.0000 0.30310  0.50763  0.80897  Biso   1.000  C
  C192     1.0000 0.33271  0.48952  0.80156  Biso   1.000  C
  H97      1.0000 0.32157  0.46173  0.78453  Biso   1.000  H
  C193     1.0000 0.37768  0.51055  0.81817  Biso   1.000  C
  C194     1.0000 0.39406  0.55098  0.84328  Biso   1.000  C
  H98      1.0000 0.42467  0.56533  0.85563  Biso   1.000  H
  C195     1.0000 0.36566  0.57027  0.85029  Biso   1.000  C
  C196     1.0000 0.32031  0.54876  0.83357  Biso   1.000  C
  H99      1.0000 0.30087  0.56213  0.83893  Biso   1.000  H
  C197     1.0000 0.40845  0.49018  0.80731  Biso   1.000  C
  C198     1.0000 0.38307  0.61503  0.87593  Biso   1.000  C
  Co11     1.0000 0.00967  0.48803  0.80273  Biso   1.000  Co
  Fe12     1.0000 0.67503  0.82387  0.13677  Biso   1.000  Fe
  O100     1.0000 0.72904  0.81637  0.11224  Biso   1.000  O
  O101     1.0000 0.70543  0.79353  0.04366  Biso   1.000  O
  O102     1.0000 0.77024  0.69986  0.97482  Biso   1.000  O
  O103     1.0000 0.83733  0.70804  0.00142  Biso   1.000  O
  O104     1.0000 0.05998  0.79103  0.11307  Biso   1.000  O
  O105     1.0000 0.11429  0.84098  0.15968  Biso   1.000  O
  O106     1.0000 0.08789  0.96358  0.22867  Biso   1.000  O
  H100     1.0000 0.09463  0.98897  0.24127  Biso   1.000  H
  O107     1.0000 0.02592  0.96722  0.20947  Biso   1.000  O
  O108     1.0000 0.68622  0.79722  0.19418  Biso   1.000  O
  C199     1.0000 0.73237  0.80145  0.07551  Biso   1.000  C
  C200     1.0000 0.77214  0.79191  0.06998  Biso   1.000  C
  C201     1.0000 0.76975  0.76136  0.03772  Biso   1.000  C
  H101     1.0000 0.74383  0.74777  0.01817  Biso   1.000  H
  C202     1.0000 0.80572  0.75072  0.03419  Biso   1.000  C
  C203     1.0000 0.84409  0.77193  0.06171  Biso   1.000  C
  H102     1.0000 0.86853  0.76467  0.05867  Biso   1.000  H
  C204     1.0000 0.84788  0.80408  0.09415  Biso   1.000  C
  C205     1.0000 0.81063  0.81293  0.09799  Biso   1.000  C
  H103     1.0000 0.81163  0.83367  0.12017  Biso   1.000  H
  C206     1.0000 0.80425  0.71688  0.00065  Biso   1.000  C
  C207     1.0000 0.89026  0.82822  0.12100  Biso   1.000  C
  H104     1.0000 0.89393  0.85337  0.13897  Biso   1.000  H
  C208     1.0000 0.92335  0.81731  0.12174  Biso   1.000  C
  H105     1.0000 0.91613  0.78937  0.10637  Biso   1.000  H
  C209     1.0000 0.96976  0.84097  0.14231  Biso   1.000  C
  C210     1.0000 0.99937  0.82286  0.13490  Biso   1.000  C
  H106     1.0000 0.98823  0.79507  0.11787  Biso   1.000  H
  C211     1.0000 0.04434  0.84389  0.15151  Biso   1.000  C
  C212     1.0000 0.06072  0.88432  0.17662  Biso   1.000  C
  H107     1.0000 0.09133  0.89867  0.18897  Biso   1.000  H
  C213     1.0000 0.03232  0.90361  0.18363  Biso   1.000  C
  C214     1.0000 0.98697  0.88210  0.16691  Biso   1.000  C
  H108     1.0000 0.96753  0.89547  0.17227  Biso   1.000  H
  C215     1.0000 0.07511  0.82352  0.14065  Biso   1.000  C
  C216     1.0000 0.04973  0.94837  0.20927  Biso   1.000  C
  Co12     1.0000 0.67633  0.82137  0.13607  Biso   1.000  Co
  Fe13     1.0000 0.81550  0.65830  0.47010  Biso   1.000  Fe
  O109     1.0000 0.75399  0.60429  0.44557  Biso   1.000  O
  O110     1.0000 0.75476  0.62790  0.37699  Biso   1.000  O
  O111     1.0000 0.59628  0.56309  0.30815  Biso   1.000  O
  O112     1.0000 0.53737  0.49600  0.33475  Biso   1.000  O
  O113     1.0000 0.39771  0.27335  0.44640  Biso   1.000  O
  O114     1.0000 0.39335  0.21904  0.49301  Biso   1.000  O
  O115     1.0000 0.54235  0.24544  0.56200  Biso   1.000  O
  H109     1.0000 0.56100  0.23870  0.57460  Biso   1.000  H
  O116     1.0000 0.60796  0.30741  0.54280  Biso   1.000  O
  O117     1.0000 0.77766  0.64711  0.52751  Biso   1.000  O
  C217     1.0000 0.73574  0.60096  0.40884  Biso   1.000  C
  C218     1.0000 0.68643  0.56119  0.40331  Biso   1.000  C
  C219     1.0000 0.65827  0.56358  0.37105  Biso   1.000  C
  H110     1.0000 0.67060  0.58950  0.35150  Biso   1.000  H
  C220     1.0000 0.61166  0.52761  0.36752  Biso   1.000  C
  C221     1.0000 0.59450  0.48924  0.39504  Biso   1.000  C
  H111     1.0000 0.56280  0.46480  0.39200  Biso   1.000  H
  C222     1.0000 0.62286  0.48545  0.42748  Biso   1.000  C
  C223     1.0000 0.66896  0.52270  0.43132  Biso   1.000  C
  H112     1.0000 0.68870  0.52170  0.45350  Biso   1.000  H
  C224     1.0000 0.57929  0.52908  0.33398  Biso   1.000  C
  C225     1.0000 0.60462  0.44307  0.45433  Biso   1.000  C
  H113     1.0000 0.62610  0.43940  0.47230  Biso   1.000  H
  C226     1.0000 0.56062  0.40998  0.45507  Biso   1.000  C
  H114     1.0000 0.53990  0.41720  0.43970  Biso   1.000  H
  C227     1.0000 0.53787  0.36357  0.47564  Biso   1.000  C
  C228     1.0000 0.49015  0.33396  0.46823  Biso   1.000  C
  H115     1.0000 0.47350  0.34510  0.45120  Biso   1.000  H
  C229     1.0000 0.46621  0.28899  0.48484  Biso   1.000  C
  C230     1.0000 0.49026  0.27261  0.50995  Biso   1.000  C
  H116     1.0000 0.47400  0.24200  0.52230  Biso   1.000  H
  C231     1.0000 0.53795  0.30101  0.51696  Biso   1.000  C
  C232     1.0000 0.56179  0.34636  0.50024  Biso   1.000  C
  H117     1.0000 0.59460  0.36580  0.50560  Biso   1.000  H
  C233     1.0000 0.41507  0.25822  0.47398  Biso   1.000  C
  C234     1.0000 0.56530  0.28360  0.54260  Biso   1.000  C
  Co13     1.0000 0.81170  0.65700  0.46940  Biso   1.000  Co
  Fe14     1.0000 0.48217  0.99163  0.80343  Biso   1.000  Fe
  O118     1.0000 0.42066  0.93762  0.77890  Biso   1.000  O
  O119     1.0000 0.42143  0.96123  0.71032  Biso   1.000  O
  O120     1.0000 0.26295  0.89642  0.64148  Biso   1.000  O
  O121     1.0000 0.20404  0.82933  0.66808  Biso   1.000  O
  O122     1.0000 0.06438  0.60668  0.77973  Biso   1.000  O
  O123     1.0000 0.06002  0.55237  0.82634  Biso   1.000  O
  O124     1.0000 0.20902  0.57877  0.89533  Biso   1.000  O
  H118     1.0000 0.22767  0.57203  0.90793  Biso   1.000  H
  O125     1.0000 0.27463  0.64074  0.87613  Biso   1.000  O
  O126     1.0000 0.44433  0.98044  0.86084  Biso   1.000  O
  C235     1.0000 0.40241  0.93429  0.74217  Biso   1.000  C
  C236     1.0000 0.35310  0.89452  0.73664  Biso   1.000  C
  C237     1.0000 0.32494  0.89691  0.70438  Biso   1.000  C
  H119     1.0000 0.33727  0.92283  0.68483  Biso   1.000  H
  C238     1.0000 0.27833  0.86094  0.70085  Biso   1.000  C
  C239     1.0000 0.26117  0.82257  0.72837  Biso   1.000  C
  H120     1.0000 0.22947  0.79813  0.72533  Biso   1.000  H
  C240     1.0000 0.28953  0.81878  0.76081  Biso   1.000  C
  C241     1.0000 0.33563  0.85603  0.76465  Biso   1.000  C
  H121     1.0000 0.35537  0.85503  0.78683  Biso   1.000  H
  C242     1.0000 0.24596  0.86241  0.66731  Biso   1.000  C
  C243     1.0000 0.27129  0.77640  0.78766  Biso   1.000  C
  H122     1.0000 0.29277  0.77273  0.80563  Biso   1.000  H
  C244     1.0000 0.22729  0.74331  0.78840  Biso   1.000  C
  H123     1.0000 0.20657  0.75053  0.77303  Biso   1.000  H
  C245     1.0000 0.20454  0.69690  0.80897  Biso   1.000  C
  C246     1.0000 0.15682  0.66729  0.80156  Biso   1.000  C
  H124     1.0000 0.14017  0.67843  0.78453  Biso   1.000  H
  C247     1.0000 0.13288  0.62232  0.81817  Biso   1.000  C
  C248     1.0000 0.15693  0.60594  0.84328  Biso   1.000  C
  H125     1.0000 0.14067  0.57533  0.85563  Biso   1.000  H
  C249     1.0000 0.20462  0.63434  0.85029  Biso   1.000  C
  C250     1.0000 0.22846  0.67969  0.83357  Biso   1.000  C
  H126     1.0000 0.26127  0.69913  0.83893  Biso   1.000  H
  C251     1.0000 0.08174  0.59155  0.80731  Biso   1.000  C
  C252     1.0000 0.23197  0.61693  0.87593  Biso   1.000  C
  Co14     1.0000 0.47837  0.99033  0.80273  Biso   1.000  Co
  Fe15     1.0000 0.14883  0.32497  0.13677  Biso   1.000  Fe
  O127     1.0000 0.08732  0.27096  0.11224  Biso   1.000  O
  O128     1.0000 0.08809  0.29457  0.04366  Biso   1.000  O
  O129     1.0000 0.92961  0.22976  0.97482  Biso   1.000  O
  O130     1.0000 0.87070  0.16267  0.00142  Biso   1.000  O
  O131     1.0000 0.73104  0.94002  0.11307  Biso   1.000  O
  O132     1.0000 0.72668  0.88571  0.15968  Biso   1.000  O
  O133     1.0000 0.87568  0.91211  0.22867  Biso   1.000  O
  H127     1.0000 0.89433  0.90537  0.24127  Biso   1.000  H
  O134     1.0000 0.94129  0.97408  0.20947  Biso   1.000  O
  O135     1.0000 0.11099  0.31378  0.19418  Biso   1.000  O
  C253     1.0000 0.06907  0.26763  0.07551  Biso   1.000  C
  C254     1.0000 0.01976  0.22786  0.06998  Biso   1.000  C
  C255     1.0000 0.99160  0.23025  0.03772  Biso   1.000  C
  H128     1.0000 0.00393  0.25617  0.01817  Biso   1.000  H
  C256     1.0000 0.94499  0.19428  0.03419  Biso   1.000  C
  C257     1.0000 0.92783  0.15591  0.06171  Biso   1.000  C
  H129     1.0000 0.89613  0.13147  0.05867  Biso   1.000  H
  C258     1.0000 0.95619  0.15212  0.09415  Biso   1.000  C
  C259     1.0000 0.00229  0.18937  0.09799  Biso   1.000  C
  H130     1.0000 0.02203  0.18837  0.12017  Biso   1.000  H
  C260     1.0000 0.91262  0.19575  0.00065  Biso   1.000  C
  C261     1.0000 0.93795  0.10974  0.12100  Biso   1.000  C
  H131     1.0000 0.95943  0.10607  0.13897  Biso   1.000  H
  C262     1.0000 0.89395  0.07665  0.12174  Biso   1.000  C
  H132     1.0000 0.87323  0.08387  0.10637  Biso   1.000  H
  C263     1.0000 0.87120  0.03024  0.14231  Biso   1.000  C
  C264     1.0000 0.82348  0.00063  0.13490  Biso   1.000  C
  H133     1.0000 0.80683  0.01177  0.11787  Biso   1.000  H
  C265     1.0000 0.79954  0.95566  0.15151  Biso   1.000  C
  C266     1.0000 0.82359  0.93928  0.17662  Biso   1.000  C
  H134     1.0000 0.80733  0.90867  0.18897  Biso   1.000  H
  C267     1.0000 0.87128  0.96768  0.18363  Biso   1.000  C
  C268     1.0000 0.89512  0.01303  0.16691  Biso   1.000  C
  H135     1.0000 0.92793  0.03247  0.17227  Biso   1.000  H
  C269     1.0000 0.74840  0.92489  0.14065  Biso   1.000  C
  C270     1.0000 0.89863  0.95027  0.20927  Biso   1.000  C
  Co15     1.0000 0.14503  0.32367  0.13607  Biso   1.000  Co
  Fe16     1.0000 0.84280  0.18450  0.47010  Biso   1.000  Fe
  O136     1.0000 0.85030  0.24601  0.44557  Biso   1.000  O
  O137     1.0000 0.87314  0.24524  0.37699  Biso   1.000  O
  O138     1.0000 0.96681  0.40372  0.30815  Biso   1.000  O
  O139     1.0000 0.95863  0.46263  0.33475  Biso   1.000  O
  O140     1.0000 0.87564  0.60229  0.44640  Biso   1.000  O
  O141     1.0000 0.82569  0.60665  0.49301  Biso   1.000  O
  O142     1.0000 0.70309  0.45765  0.56200  Biso   1.000  O
  H136     1.0000 0.67770  0.43900  0.57460  Biso   1.000  H
  O143     1.0000 0.69945  0.39204  0.54280  Biso   1.000  O
  O144     1.0000 0.86945  0.22234  0.52751  Biso   1.000  O
  C271     1.0000 0.86522  0.26426  0.40884  Biso   1.000  C
  C272     1.0000 0.87476  0.31357  0.40331  Biso   1.000  C
  C273     1.0000 0.90531  0.34173  0.37105  Biso   1.000  C
  H137     1.0000 0.91890  0.32940  0.35150  Biso   1.000  H
  C274     1.0000 0.91595  0.38834  0.36752  Biso   1.000  C
  C275     1.0000 0.89474  0.40550  0.39504  Biso   1.000  C
  H138     1.0000 0.90200  0.43720  0.39200  Biso   1.000  H
  C276     1.0000 0.86259  0.37714  0.42748  Biso   1.000  C
  C277     1.0000 0.85374  0.33104  0.43132  Biso   1.000  C
  H139     1.0000 0.83300  0.31130  0.45350  Biso   1.000  H
  C278     1.0000 0.94979  0.42071  0.33398  Biso   1.000  C
  C279     1.0000 0.83845  0.39538  0.45433  Biso   1.000  C
  H140     1.0000 0.81330  0.37390  0.47230  Biso   1.000  H
  C280     1.0000 0.84936  0.43938  0.45507  Biso   1.000  C
  H141     1.0000 0.87730  0.46010  0.43970  Biso   1.000  H
  C281     1.0000 0.82570  0.46213  0.47564  Biso   1.000  C
  C282     1.0000 0.84381  0.50985  0.46823  Biso   1.000  C
  H142     1.0000 0.87160  0.52650  0.45120  Biso   1.000  H
  C283     1.0000 0.82278  0.53379  0.48484  Biso   1.000  C
  C284     1.0000 0.78235  0.50974  0.50995  Biso   1.000  C
  H143     1.0000 0.76800  0.52600  0.52230  Biso   1.000  H
  C285     1.0000 0.76306  0.46205  0.51696  Biso   1.000  C
  C286     1.0000 0.78457  0.43821  0.50024  Biso   1.000  C
  H144     1.0000 0.77120  0.40540  0.50560  Biso   1.000  H
  C287     1.0000 0.84315  0.58493  0.47398  Biso   1.000  C
  C288     1.0000 0.71830  0.43470  0.54260  Biso   1.000  C
  Co16     1.0000 0.84530  0.18830  0.46940  Biso   1.000  Co
  Fe17     1.0000 0.50947  0.51783  0.80343  Biso   1.000  Fe
  O145     1.0000 0.51697  0.57934  0.77890  Biso   1.000  O
  O146     1.0000 0.53981  0.57857  0.71032  Biso   1.000  O
  O147     1.0000 0.63348  0.73705  0.64148  Biso   1.000  O
  O148     1.0000 0.62530  0.79596  0.66808  Biso   1.000  O
  O149     1.0000 0.54231  0.93562  0.77973  Biso   1.000  O
  O150     1.0000 0.49236  0.93998  0.82634  Biso   1.000  O
  O151     1.0000 0.36976  0.79098  0.89533  Biso   1.000  O
  H145     1.0000 0.34437  0.77233  0.90793  Biso   1.000  H
  O152     1.0000 0.36612  0.72537  0.87613  Biso   1.000  O
  O153     1.0000 0.53612  0.55567  0.86084  Biso   1.000  O
  C289     1.0000 0.53189  0.59759  0.74217  Biso   1.000  C
  C290     1.0000 0.54143  0.64690  0.73664  Biso   1.000  C
  C291     1.0000 0.57198  0.67506  0.70438  Biso   1.000  C
  H146     1.0000 0.58557  0.66273  0.68483  Biso   1.000  H
  C292     1.0000 0.58262  0.72167  0.70085  Biso   1.000  C
  C293     1.0000 0.56141  0.73883  0.72837  Biso   1.000  C
  H147     1.0000 0.56867  0.77053  0.72533  Biso   1.000  H
  C294     1.0000 0.52926  0.71047  0.76081  Biso   1.000  C
  C295     1.0000 0.52041  0.66437  0.76465  Biso   1.000  C
  H148     1.0000 0.49967  0.64463  0.78683  Biso   1.000  H
  C296     1.0000 0.61646  0.75404  0.66731  Biso   1.000  C
  C297     1.0000 0.50512  0.72871  0.78766  Biso   1.000  C
  H149     1.0000 0.47997  0.70723  0.80563  Biso   1.000  H
  C298     1.0000 0.51603  0.77271  0.78840  Biso   1.000  C
  H150     1.0000 0.54397  0.79343  0.77303  Biso   1.000  H
  C299     1.0000 0.49237  0.79546  0.80897  Biso   1.000  C
  C300     1.0000 0.51048  0.84318  0.80156  Biso   1.000  C
  H151     1.0000 0.53827  0.85983  0.78453  Biso   1.000  H
  C301     1.0000 0.48945  0.86712  0.81817  Biso   1.000  C
  C302     1.0000 0.44902  0.84307  0.84328  Biso   1.000  C
  H152     1.0000 0.43467  0.85933  0.85563  Biso   1.000  H
  C303     1.0000 0.42973  0.79538  0.85029  Biso   1.000  C
  C304     1.0000 0.45124  0.77154  0.83357  Biso   1.000  C
  H153     1.0000 0.43787  0.73873  0.83893  Biso   1.000  H
  C305     1.0000 0.50982  0.91826  0.80731  Biso   1.000  C
  C306     1.0000 0.38497  0.76803  0.87593  Biso   1.000  C
  Co17     1.0000 0.51197  0.52163  0.80273  Biso   1.000  Co
  Fe18     1.0000 0.17613  0.85117  0.13677  Biso   1.000  Fe
  O154     1.0000 0.18363  0.91268  0.11224  Biso   1.000  O
  O155     1.0000 0.20647  0.91191  0.04366  Biso   1.000  O
  O156     1.0000 0.30014  0.07039  0.97482  Biso   1.000  O
  O157     1.0000 0.29196  0.12930  0.00142  Biso   1.000  O
  O158     1.0000 0.20897  0.26896  0.11307  Biso   1.000  O
  O159     1.0000 0.15902  0.27332  0.15968  Biso   1.000  O
  O160     1.0000 0.03642  0.12432  0.22867  Biso   1.000  O
  H154     1.0000 0.01103  0.10567  0.24127  Biso   1.000  H
  O161     1.0000 0.03278  0.05871  0.20947  Biso   1.000  O
  O162     1.0000 0.20278  0.88901  0.19418  Biso   1.000  O
  C307     1.0000 0.19855  0.93093  0.07551  Biso   1.000  C
  C308     1.0000 0.20809  0.98024  0.06998  Biso   1.000  C
  C309     1.0000 0.23864  0.00840  0.03772  Biso   1.000  C
  H155     1.0000 0.25223  0.99607  0.01817  Biso   1.000  H
  C310     1.0000 0.24928  0.05501  0.03419  Biso   1.000  C
  C311     1.0000 0.22807  0.07217  0.06171  Biso   1.000  C
  H156     1.0000 0.23533  0.10387  0.05867  Biso   1.000  H
  C312     1.0000 0.19592  0.04381  0.09415  Biso   1.000  C
  C313     1.0000 0.18707  0.99771  0.09799  Biso   1.000  C
  H157     1.0000 0.16633  0.97797  0.12017  Biso   1.000  H
  C314     1.0000 0.28312  0.08738  0.00065  Biso   1.000  C
  C315     1.0000 0.17178  0.06205  0.12100  Biso   1.000  C
  H158     1.0000 0.14663  0.04057  0.13897  Biso   1.000  H
  C316     1.0000 0.18269  0.10605  0.12174  Biso   1.000  C
  H159     1.0000 0.21063  0.12677  0.10637  Biso   1.000  H
  C317     1.0000 0.15903  0.12880  0.14231  Biso   1.000  C
  C318     1.0000 0.17714  0.17652  0.13490  Biso   1.000  C
  H160     1.0000 0.20493  0.19317  0.11787  Biso   1.000  H
  C319     1.0000 0.15611  0.20046  0.15151  Biso   1.000  C
  C320     1.0000 0.11568  0.17641  0.17662  Biso   1.000  C
  H161     1.0000 0.10133  0.19267  0.18897  Biso   1.000  H
  C321     1.0000 0.09639  0.12872  0.18363  Biso   1.000  C
  C322     1.0000 0.11790  0.10488  0.16691  Biso   1.000  C
  H162     1.0000 0.10453  0.07207  0.17227  Biso   1.000  H
  C323     1.0000 0.17648  0.25160  0.14065  Biso   1.000  C
  C324     1.0000 0.05163  0.10137  0.20927  Biso   1.000  C
  Co18     1.0000 0.17863  0.85497  0.13607  Biso   1.000  Co
  Fe19     1.0000 0.84280  0.65830  0.97010  Biso   1.000  Fe
  O163     1.0000 0.85030  0.60429  0.94557  Biso   1.000  O
  O164     1.0000 0.87314  0.62790  0.87699  Biso   1.000  O
  O165     1.0000 0.96681  0.56309  0.80815  Biso   1.000  O
  O166     1.0000 0.95863  0.49600  0.83475  Biso   1.000  O
  O167     1.0000 0.87564  0.27335  0.94640  Biso   1.000  O
  O168     1.0000 0.82569  0.21904  0.99301  Biso   1.000  O
  O169     1.0000 0.70309  0.24544  0.06200  Biso   1.000  O
  H163     1.0000 0.67770  0.23870  0.07460  Biso   1.000  H
  O170     1.0000 0.69945  0.30741  0.04280  Biso   1.000  O
  O171     1.0000 0.86945  0.64711  0.02751  Biso   1.000  O
  C325     1.0000 0.86522  0.60096  0.90884  Biso   1.000  C
  C326     1.0000 0.87476  0.56119  0.90331  Biso   1.000  C
  C327     1.0000 0.90531  0.56358  0.87105  Biso   1.000  C
  H164     1.0000 0.91890  0.58950  0.85150  Biso   1.000  H
  C328     1.0000 0.91595  0.52761  0.86752  Biso   1.000  C
  C329     1.0000 0.89474  0.48924  0.89504  Biso   1.000  C
  H165     1.0000 0.90200  0.46480  0.89200  Biso   1.000  H
  C330     1.0000 0.86259  0.48545  0.92748  Biso   1.000  C
  C331     1.0000 0.85374  0.52270  0.93132  Biso   1.000  C
  H166     1.0000 0.83300  0.52170  0.95350  Biso   1.000  H
  C332     1.0000 0.94979  0.52908  0.83398  Biso   1.000  C
  C333     1.0000 0.83845  0.44307  0.95433  Biso   1.000  C
  H167     1.0000 0.81330  0.43940  0.97230  Biso   1.000  H
  C334     1.0000 0.84936  0.40998  0.95507  Biso   1.000  C
  H168     1.0000 0.87730  0.41720  0.93970  Biso   1.000  H
  C335     1.0000 0.82570  0.36357  0.97564  Biso   1.000  C
  C336     1.0000 0.84381  0.33396  0.96823  Biso   1.000  C
  H169     1.0000 0.87160  0.34510  0.95120  Biso   1.000  H
  C337     1.0000 0.82278  0.28899  0.98484  Biso   1.000  C
  C338     1.0000 0.78235  0.27261  0.00995  Biso   1.000  C
  H170     1.0000 0.76800  0.24200  0.02230  Biso   1.000  H
  C339     1.0000 0.76306  0.30101  0.01696  Biso   1.000  C
  C340     1.0000 0.78457  0.34636  0.00024  Biso   1.000  C
  H171     1.0000 0.77120  0.36580  0.00560  Biso   1.000  H
  C341     1.0000 0.84315  0.25822  0.97398  Biso   1.000  C
  C342     1.0000 0.71830  0.28360  0.04260  Biso   1.000  C
  Co19     1.0000 0.84530  0.65700  0.96940  Biso   1.000  Co
  Fe20     1.0000 0.50947  0.99163  0.30343  Biso   1.000  Fe
  O172     1.0000 0.51697  0.93762  0.27890  Biso   1.000  O
  O173     1.0000 0.53981  0.96123  0.21032  Biso   1.000  O
  O174     1.0000 0.63348  0.89642  0.14148  Biso   1.000  O
  O175     1.0000 0.62530  0.82933  0.16808  Biso   1.000  O
  O176     1.0000 0.54231  0.60668  0.27973  Biso   1.000  O
  O177     1.0000 0.49236  0.55237  0.32634  Biso   1.000  O
  O178     1.0000 0.36976  0.57877  0.39533  Biso   1.000  O
  H172     1.0000 0.34437  0.57203  0.40793  Biso   1.000  H
  O179     1.0000 0.36612  0.64074  0.37613  Biso   1.000  O
  O180     1.0000 0.53612  0.98044  0.36084  Biso   1.000  O
  C343     1.0000 0.53189  0.93429  0.24217  Biso   1.000  C
  C344     1.0000 0.54143  0.89452  0.23664  Biso   1.000  C
  C345     1.0000 0.57198  0.89691  0.20438  Biso   1.000  C
  H173     1.0000 0.58557  0.92283  0.18483  Biso   1.000  H
  C346     1.0000 0.58262  0.86094  0.20085  Biso   1.000  C
  C347     1.0000 0.56141  0.82257  0.22837  Biso   1.000  C
  H174     1.0000 0.56867  0.79813  0.22533  Biso   1.000  H
  C348     1.0000 0.52926  0.81878  0.26081  Biso   1.000  C
  C349     1.0000 0.52041  0.85603  0.26465  Biso   1.000  C
  H175     1.0000 0.49967  0.85503  0.28683  Biso   1.000  H
  C350     1.0000 0.61646  0.86241  0.16731  Biso   1.000  C
  C351     1.0000 0.50512  0.77640  0.28766  Biso   1.000  C
  H176     1.0000 0.47997  0.77273  0.30563  Biso   1.000  H
  C352     1.0000 0.51603  0.74331  0.28840  Biso   1.000  C
  H177     1.0000 0.54397  0.75053  0.27303  Biso   1.000  H
  C353     1.0000 0.49237  0.69690  0.30897  Biso   1.000  C
  C354     1.0000 0.51048  0.66729  0.30156  Biso   1.000  C
  H178     1.0000 0.53827  0.67843  0.28453  Biso   1.000  H
  C355     1.0000 0.48945  0.62232  0.31817  Biso   1.000  C
  C356     1.0000 0.44902  0.60594  0.34328  Biso   1.000  C
  H179     1.0000 0.43467  0.57533  0.35563  Biso   1.000  H
  C357     1.0000 0.42973  0.63434  0.35029  Biso   1.000  C
  C358     1.0000 0.45124  0.67969  0.33357  Biso   1.000  C
  H180     1.0000 0.43787  0.69913  0.33893  Biso   1.000  H
  C359     1.0000 0.50982  0.59155  0.30731  Biso   1.000  C
  C360     1.0000 0.38497  0.61693  0.37593  Biso   1.000  C
  Co20     1.0000 0.51197  0.99033  0.30273  Biso   1.000  Co
  Fe21     1.0000 0.17613  0.32497  0.63677  Biso   1.000  Fe
  O181     1.0000 0.18363  0.27096  0.61224  Biso   1.000  O
  O182     1.0000 0.20647  0.29457  0.54366  Biso   1.000  O
  O183     1.0000 0.30014  0.22976  0.47482  Biso   1.000  O
  O184     1.0000 0.29196  0.16267  0.50142  Biso   1.000  O
  O185     1.0000 0.20897  0.94002  0.61307  Biso   1.000  O
  O186     1.0000 0.15902  0.88571  0.65968  Biso   1.000  O
  O187     1.0000 0.03642  0.91211  0.72867  Biso   1.000  O
  H181     1.0000 0.01103  0.90537  0.74127  Biso   1.000  H
  O188     1.0000 0.03278  0.97408  0.70947  Biso   1.000  O
  O189     1.0000 0.20278  0.31378  0.69418  Biso   1.000  O
  C361     1.0000 0.19855  0.26763  0.57551  Biso   1.000  C
  C362     1.0000 0.20809  0.22786  0.56998  Biso   1.000  C
  C363     1.0000 0.23864  0.23025  0.53772  Biso   1.000  C
  H182     1.0000 0.25223  0.25617  0.51817  Biso   1.000  H
  C364     1.0000 0.24928  0.19428  0.53419  Biso   1.000  C
  C365     1.0000 0.22807  0.15591  0.56171  Biso   1.000  C
  H183     1.0000 0.23533  0.13147  0.55867  Biso   1.000  H
  C366     1.0000 0.19592  0.15212  0.59415  Biso   1.000  C
  C367     1.0000 0.18707  0.18937  0.59799  Biso   1.000  C
  H184     1.0000 0.16633  0.18837  0.62017  Biso   1.000  H
  C368     1.0000 0.28312  0.19575  0.50065  Biso   1.000  C
  C369     1.0000 0.17178  0.10974  0.62100  Biso   1.000  C
  H185     1.0000 0.14663  0.10607  0.63897  Biso   1.000  H
  C370     1.0000 0.18269  0.07665  0.62174  Biso   1.000  C
  H186     1.0000 0.21063  0.08387  0.60637  Biso   1.000  H
  C371     1.0000 0.15903  0.03024  0.64231  Biso   1.000  C
  C372     1.0000 0.17714  0.00063  0.63490  Biso   1.000  C
  H187     1.0000 0.20493  0.01177  0.61787  Biso   1.000  H
  C373     1.0000 0.15611  0.95566  0.65151  Biso   1.000  C
  C374     1.0000 0.11568  0.93928  0.67662  Biso   1.000  C
  H188     1.0000 0.10133  0.90867  0.68897  Biso   1.000  H
  C375     1.0000 0.09639  0.96768  0.68363  Biso   1.000  C
  C376     1.0000 0.11790  0.01303  0.66691  Biso   1.000  C
  H189     1.0000 0.10453  0.03247  0.67227  Biso   1.000  H
  C377     1.0000 0.17648  0.92489  0.64065  Biso   1.000  C
  C378     1.0000 0.05163  0.95027  0.70927  Biso   1.000  C
  Co21     1.0000 0.17863  0.32367  0.63607  Biso   1.000  Co
  Fe22     1.0000 0.34170  0.18450  0.97010  Biso   1.000  Fe
  O190     1.0000 0.39571  0.24601  0.94557  Biso   1.000  O
  O191     1.0000 0.37210  0.24524  0.87699  Biso   1.000  O
  O192     1.0000 0.43691  0.40372  0.80815  Biso   1.000  O
  O193     1.0000 0.50400  0.46263  0.83475  Biso   1.000  O
  O194     1.0000 0.72665  0.60229  0.94640  Biso   1.000  O
  O195     1.0000 0.78096  0.60665  0.99301  Biso   1.000  O
  O196     1.0000 0.75456  0.45765  0.06200  Biso   1.000  O
  H190     1.0000 0.76130  0.43900  0.07460  Biso   1.000  H
  O197     1.0000 0.69259  0.39204  0.04280  Biso   1.000  O
  O198     1.0000 0.35289  0.22234  0.02751  Biso   1.000  O
  C379     1.0000 0.39904  0.26426  0.90884  Biso   1.000  C
  C380     1.0000 0.43881  0.31357  0.90331  Biso   1.000  C
  C381     1.0000 0.43642  0.34173  0.87105  Biso   1.000  C
  H191     1.0000 0.41050  0.32940  0.85150  Biso   1.000  H
  C382     1.0000 0.47239  0.38834  0.86752  Biso   1.000  C
  C383     1.0000 0.51076  0.40550  0.89504  Biso   1.000  C
  H192     1.0000 0.53520  0.43720  0.89200  Biso   1.000  H
  C384     1.0000 0.51455  0.37714  0.92748  Biso   1.000  C
  C385     1.0000 0.47730  0.33104  0.93132  Biso   1.000  C
  H193     1.0000 0.47830  0.31130  0.95350  Biso   1.000  H
  C386     1.0000 0.47092  0.42071  0.83398  Biso   1.000  C
  C387     1.0000 0.55693  0.39538  0.95433  Biso   1.000  C
  H194     1.0000 0.56060  0.37390  0.97230  Biso   1.000  H
  C388     1.0000 0.59002  0.43938  0.95507  Biso   1.000  C
  H195     1.0000 0.58280  0.46010  0.93970  Biso   1.000  H
  C389     1.0000 0.63643  0.46213  0.97564  Biso   1.000  C
  C390     1.0000 0.66604  0.50985  0.96823  Biso   1.000  C
  H196     1.0000 0.65490  0.52650  0.95120  Biso   1.000  H
  C391     1.0000 0.71101  0.53379  0.98484  Biso   1.000  C
  C392     1.0000 0.72739  0.50974  0.00995  Biso   1.000  C
  H197     1.0000 0.75800  0.52600  0.02230  Biso   1.000  H
  C393     1.0000 0.69899  0.46205  0.01696  Biso   1.000  C
  C394     1.0000 0.65364  0.43821  0.00024  Biso   1.000  C
  H198     1.0000 0.63420  0.40540  0.00560  Biso   1.000  H
  C395     1.0000 0.74178  0.58493  0.97398  Biso   1.000  C
  C396     1.0000 0.71640  0.43470  0.04260  Biso   1.000  C
  Co22     1.0000 0.34300  0.18830  0.96940  Biso   1.000  Co
  Fe23     1.0000 0.00837  0.51783  0.30343  Biso   1.000  Fe
  O199     1.0000 0.06238  0.57934  0.27890  Biso   1.000  O
  O200     1.0000 0.03877  0.57857  0.21032  Biso   1.000  O
  O201     1.0000 0.10358  0.73705  0.14148  Biso   1.000  O
  O202     1.0000 0.17067  0.79596  0.16808  Biso   1.000  O
  O203     1.0000 0.39332  0.93562  0.27973  Biso   1.000  O
  O204     1.0000 0.44763  0.93998  0.32634  Biso   1.000  O
  O205     1.0000 0.42123  0.79098  0.39533  Biso   1.000  O
  H199     1.0000 0.42797  0.77233  0.40793  Biso   1.000  H
  O206     1.0000 0.35926  0.72537  0.37613  Biso   1.000  O
  O207     1.0000 0.01956  0.55567  0.36084  Biso   1.000  O
  C397     1.0000 0.06571  0.59759  0.24217  Biso   1.000  C
  C398     1.0000 0.10548  0.64690  0.23664  Biso   1.000  C
  C399     1.0000 0.10309  0.67506  0.20438  Biso   1.000  C
  H200     1.0000 0.07717  0.66273  0.18483  Biso   1.000  H
  C400     1.0000 0.13906  0.72167  0.20085  Biso   1.000  C
  C401     1.0000 0.17743  0.73883  0.22837  Biso   1.000  C
  H201     1.0000 0.20187  0.77053  0.22533  Biso   1.000  H
  C402     1.0000 0.18122  0.71047  0.26081  Biso   1.000  C
  C403     1.0000 0.14397  0.66437  0.26465  Biso   1.000  C
  H202     1.0000 0.14497  0.64463  0.28683  Biso   1.000  H
  C404     1.0000 0.13759  0.75404  0.16731  Biso   1.000  C
  C405     1.0000 0.22360  0.72871  0.28766  Biso   1.000  C
  H203     1.0000 0.22727  0.70723  0.30563  Biso   1.000  H
  C406     1.0000 0.25669  0.77271  0.28840  Biso   1.000  C
  H204     1.0000 0.24947  0.79343  0.27303  Biso   1.000  H
  C407     1.0000 0.30310  0.79546  0.30897  Biso   1.000  C
  C408     1.0000 0.33271  0.84318  0.30156  Biso   1.000  C
  H205     1.0000 0.32157  0.85983  0.28453  Biso   1.000  H
  C409     1.0000 0.37768  0.86712  0.31817  Biso   1.000  C
  C410     1.0000 0.39406  0.84307  0.34328  Biso   1.000  C
  H206     1.0000 0.42467  0.85933  0.35563  Biso   1.000  H
  C411     1.0000 0.36566  0.79538  0.35029  Biso   1.000  C
  C412     1.0000 0.32031  0.77154  0.33357  Biso   1.000  C
  H207     1.0000 0.30087  0.73873  0.33893  Biso   1.000  H
  C413     1.0000 0.40845  0.91826  0.30731  Biso   1.000  C
  C414     1.0000 0.38307  0.76803  0.37593  Biso   1.000  C
  Co23     1.0000 0.00967  0.52163  0.30273  Biso   1.000  Co
  Fe24     1.0000 0.67503  0.85117  0.63677  Biso   1.000  Fe
  O208     1.0000 0.72904  0.91268  0.61224  Biso   1.000  O
  O209     1.0000 0.70543  0.91191  0.54366  Biso   1.000  O
  O210     1.0000 0.77024  0.07039  0.47482  Biso   1.000  O
  O211     1.0000 0.83733  0.12930  0.50142  Biso   1.000  O
  O212     1.0000 0.05998  0.26896  0.61307  Biso   1.000  O
  O213     1.0000 0.11429  0.27332  0.65968  Biso   1.000  O
  O214     1.0000 0.08789  0.12432  0.72867  Biso   1.000  O
  H208     1.0000 0.09463  0.10567  0.74127  Biso   1.000  H
  O215     1.0000 0.02592  0.05871  0.70947  Biso   1.000  O
  O216     1.0000 0.68622  0.88901  0.69418  Biso   1.000  O
  C415     1.0000 0.73237  0.93093  0.57551  Biso   1.000  C
  C416     1.0000 0.77214  0.98024  0.56998  Biso   1.000  C
  C417     1.0000 0.76975  0.00840  0.53772  Biso   1.000  C
  H209     1.0000 0.74383  0.99607  0.51817  Biso   1.000  H
  C418     1.0000 0.80572  0.05501  0.53419  Biso   1.000  C
  C419     1.0000 0.84409  0.07217  0.56171  Biso   1.000  C
  H210     1.0000 0.86853  0.10387  0.55867  Biso   1.000  H
  C420     1.0000 0.84788  0.04381  0.59415  Biso   1.000  C
  C421     1.0000 0.81063  0.99771  0.59799  Biso   1.000  C
  H211     1.0000 0.81163  0.97797  0.62017  Biso   1.000  H
  C422     1.0000 0.80425  0.08738  0.50065  Biso   1.000  C
  C423     1.0000 0.89026  0.06205  0.62100  Biso   1.000  C
  H212     1.0000 0.89393  0.04057  0.63897  Biso   1.000  H
  C424     1.0000 0.92335  0.10605  0.62174  Biso   1.000  C
  H213     1.0000 0.91613  0.12677  0.60637  Biso   1.000  H
  C425     1.0000 0.96976  0.12880  0.64231  Biso   1.000  C
  C426     1.0000 0.99937  0.17652  0.63490  Biso   1.000  C
  H214     1.0000 0.98823  0.19317  0.61787  Biso   1.000  H
  C427     1.0000 0.04434  0.20046  0.65151  Biso   1.000  C
  C428     1.0000 0.06072  0.17641  0.67662  Biso   1.000  C
  H215     1.0000 0.09133  0.19267  0.68897  Biso   1.000  H
  C429     1.0000 0.03232  0.12872  0.68363  Biso   1.000  C
  C430     1.0000 0.98697  0.10488  0.66691  Biso   1.000  C
  H216     1.0000 0.96753  0.07207  0.67227  Biso   1.000  H
  C431     1.0000 0.07511  0.25160  0.64065  Biso   1.000  C
  C432     1.0000 0.04973  0.10137  0.70927  Biso   1.000  C
  Co24     1.0000 0.67633  0.85497  0.63607  Biso   1.000  Co
  Fe25     1.0000 0.81550  0.15720  0.97010  Biso   1.000  Fe
  O217     1.0000 0.75399  0.14970  0.94557  Biso   1.000  O
  O218     1.0000 0.75476  0.12686  0.87699  Biso   1.000  O
  O219     1.0000 0.59628  0.03319  0.80815  Biso   1.000  O
  O220     1.0000 0.53737  0.04137  0.83475  Biso   1.000  O
  O221     1.0000 0.39771  0.12436  0.94640  Biso   1.000  O
  O222     1.0000 0.39335  0.17431  0.99301  Biso   1.000  O
  O223     1.0000 0.54235  0.29691  0.06200  Biso   1.000  O
  H217     1.0000 0.56100  0.32230  0.07460  Biso   1.000  H
  O224     1.0000 0.60796  0.30055  0.04280  Biso   1.000  O
  O225     1.0000 0.77766  0.13055  0.02751  Biso   1.000  O
  C433     1.0000 0.73574  0.13478  0.90884  Biso   1.000  C
  C434     1.0000 0.68643  0.12524  0.90331  Biso   1.000  C
  C435     1.0000 0.65827  0.09469  0.87105  Biso   1.000  C
  H218     1.0000 0.67060  0.08110  0.85150  Biso   1.000  H
  C436     1.0000 0.61166  0.08405  0.86752  Biso   1.000  C
  C437     1.0000 0.59450  0.10526  0.89504  Biso   1.000  C
  H219     1.0000 0.56280  0.09800  0.89200  Biso   1.000  H
  C438     1.0000 0.62286  0.13741  0.92748  Biso   1.000  C
  C439     1.0000 0.66896  0.14626  0.93132  Biso   1.000  C
  H220     1.0000 0.68870  0.16700  0.95350  Biso   1.000  H
  C440     1.0000 0.57929  0.05021  0.83398  Biso   1.000  C
  C441     1.0000 0.60462  0.16155  0.95433  Biso   1.000  C
  H221     1.0000 0.62610  0.18670  0.97230  Biso   1.000  H
  C442     1.0000 0.56062  0.15064  0.95507  Biso   1.000  C
  H222     1.0000 0.53990  0.12270  0.93970  Biso   1.000  H
  C443     1.0000 0.53787  0.17430  0.97564  Biso   1.000  C
  C444     1.0000 0.49015  0.15619  0.96823  Biso   1.000  C
  H223     1.0000 0.47350  0.12840  0.95120  Biso   1.000  H
  C445     1.0000 0.46621  0.17722  0.98484  Biso   1.000  C
  C446     1.0000 0.49026  0.21765  0.00995  Biso   1.000  C
  H224     1.0000 0.47400  0.23200  0.02230  Biso   1.000  H
  C447     1.0000 0.53795  0.23694  0.01696  Biso   1.000  C
  C448     1.0000 0.56179  0.21543  0.00024  Biso   1.000  C
  H225     1.0000 0.59460  0.22880  0.00560  Biso   1.000  H
  C449     1.0000 0.41507  0.15685  0.97398  Biso   1.000  C
  C450     1.0000 0.56530  0.28170  0.04260  Biso   1.000  C
  Co25     1.0000 0.81170  0.15470  0.96940  Biso   1.000  Co
  Fe26     1.0000 0.48217  0.49053  0.30343  Biso   1.000  Fe
  O226     1.0000 0.42066  0.48303  0.27890  Biso   1.000  O
  O227     1.0000 0.42143  0.46019  0.21032  Biso   1.000  O
  O228     1.0000 0.26295  0.36652  0.14148  Biso   1.000  O
  O229     1.0000 0.20404  0.37470  0.16808  Biso   1.000  O
  O230     1.0000 0.06438  0.45769  0.27973  Biso   1.000  O
  O231     1.0000 0.06002  0.50764  0.32634  Biso   1.000  O
  O232     1.0000 0.20902  0.63024  0.39533  Biso   1.000  O
  H226     1.0000 0.22767  0.65563  0.40793  Biso   1.000  H
  O233     1.0000 0.27463  0.63388  0.37613  Biso   1.000  O
  O234     1.0000 0.44433  0.46388  0.36084  Biso   1.000  O
  C451     1.0000 0.40241  0.46811  0.24217  Biso   1.000  C
  C452     1.0000 0.35310  0.45857  0.23664  Biso   1.000  C
  C453     1.0000 0.32494  0.42802  0.20438  Biso   1.000  C
  H227     1.0000 0.33727  0.41443  0.18483  Biso   1.000  H
  C454     1.0000 0.27833  0.41738  0.20085  Biso   1.000  C
  C455     1.0000 0.26117  0.43859  0.22837  Biso   1.000  C
  H228     1.0000 0.22947  0.43133  0.22533  Biso   1.000  H
  C456     1.0000 0.28953  0.47074  0.26081  Biso   1.000  C
  C457     1.0000 0.33563  0.47959  0.26465  Biso   1.000  C
  H229     1.0000 0.35537  0.50033  0.28683  Biso   1.000  H
  C458     1.0000 0.24596  0.38354  0.16731  Biso   1.000  C
  C459     1.0000 0.27129  0.49488  0.28766  Biso   1.000  C
  H230     1.0000 0.29277  0.52003  0.30563  Biso   1.000  H
  C460     1.0000 0.22729  0.48397  0.28840  Biso   1.000  C
  H231     1.0000 0.20657  0.45603  0.27303  Biso   1.000  H
  C461     1.0000 0.20454  0.50763  0.30897  Biso   1.000  C
  C462     1.0000 0.15682  0.48952  0.30156  Biso   1.000  C
  H232     1.0000 0.14017  0.46173  0.28453  Biso   1.000  H
  C463     1.0000 0.13288  0.51055  0.31817  Biso   1.000  C
  C464     1.0000 0.15693  0.55098  0.34328  Biso   1.000  C
  H233     1.0000 0.14067  0.56533  0.35563  Biso   1.000  H
  C465     1.0000 0.20462  0.57027  0.35029  Biso   1.000  C
  C466     1.0000 0.22846  0.54876  0.33357  Biso   1.000  C
  H234     1.0000 0.26127  0.56213  0.33893  Biso   1.000  H
  C467     1.0000 0.08174  0.49018  0.30731  Biso   1.000  C
  C468     1.0000 0.23197  0.61503  0.37593  Biso   1.000  C
  Co26     1.0000 0.47837  0.48803  0.30273  Biso   1.000  Co
  Fe27     1.0000 0.14883  0.82387  0.63677  Biso   1.000  Fe
  O235     1.0000 0.08732  0.81637  0.61224  Biso   1.000  O
  O236     1.0000 0.08809  0.79353  0.54366  Biso   1.000  O
  O237     1.0000 0.92961  0.69986  0.47482  Biso   1.000  O
  O238     1.0000 0.87070  0.70804  0.50142  Biso   1.000  O
  O239     1.0000 0.73104  0.79103  0.61307  Biso   1.000  O
  O240     1.0000 0.72668  0.84098  0.65968  Biso   1.000  O
  O241     1.0000 0.87568  0.96358  0.72867  Biso   1.000  O
  H235     1.0000 0.89433  0.98897  0.74127  Biso   1.000  H
  O242     1.0000 0.94129  0.96722  0.70947  Biso   1.000  O
  O243     1.0000 0.11099  0.79722  0.69418  Biso   1.000  O
  C469     1.0000 0.06907  0.80145  0.57551  Biso   1.000  C
  C470     1.0000 0.01976  0.79191  0.56998  Biso   1.000  C
  C471     1.0000 0.99160  0.76136  0.53772  Biso   1.000  C
  H236     1.0000 0.00393  0.74777  0.51817  Biso   1.000  H
  C472     1.0000 0.94499  0.75072  0.53419  Biso   1.000  C
  C473     1.0000 0.92783  0.77193  0.56171  Biso   1.000  C
  H237     1.0000 0.89613  0.76467  0.55867  Biso   1.000  H
  C474     1.0000 0.95619  0.80408  0.59415  Biso   1.000  C
  C475     1.0000 0.00229  0.81293  0.59799  Biso   1.000  C
  H238     1.0000 0.02203  0.83367  0.62017  Biso   1.000  H
  C476     1.0000 0.91262  0.71688  0.50065  Biso   1.000  C
  C477     1.0000 0.93795  0.82822  0.62100  Biso   1.000  C
  H239     1.0000 0.95943  0.85337  0.63897  Biso   1.000  H
  C478     1.0000 0.89395  0.81731  0.62174  Biso   1.000  C
  H240     1.0000 0.87323  0.78937  0.60637  Biso   1.000  H
  C479     1.0000 0.87120  0.84097  0.64231  Biso   1.000  C
  C480     1.0000 0.82348  0.82286  0.63490  Biso   1.000  C
  H241     1.0000 0.80683  0.79507  0.61787  Biso   1.000  H
  C481     1.0000 0.79954  0.84389  0.65151  Biso   1.000  C
  C482     1.0000 0.82359  0.88432  0.67662  Biso   1.000  C
  H242     1.0000 0.80733  0.89867  0.68897  Biso   1.000  H
  C483     1.0000 0.87128  0.90361  0.68363  Biso   1.000  C
  C484     1.0000 0.89512  0.88210  0.66691  Biso   1.000  C
  H243     1.0000 0.92793  0.89547  0.67227  Biso   1.000  H
  C485     1.0000 0.74840  0.82352  0.64065  Biso   1.000  C
  C486     1.0000 0.89863  0.94837  0.70927  Biso   1.000  C
  Co27     1.0000 0.14503  0.82137  0.63607  Biso   1.000  Co
  Fe28     1.0000 0.65830  0.84280  0.52990  Biso   1.000  Fe
  O244     1.0000 0.60429  0.85030  0.55443  Biso   1.000  O
  O245     1.0000 0.62790  0.87314  0.62301  Biso   1.000  O
  O246     1.0000 0.56309  0.96681  0.69185  Biso   1.000  O
  O247     1.0000 0.49600  0.95863  0.66525  Biso   1.000  O
  O248     1.0000 0.27335  0.87564  0.55360  Biso   1.000  O
  O249     1.0000 0.21904  0.82569  0.50699  Biso   1.000  O
  O250     1.0000 0.24544  0.70309  0.43800  Biso   1.000  O
  H244     1.0000 0.23870  0.67770  0.42540  Biso   1.000  H
  O251     1.0000 0.30741  0.69945  0.45720  Biso   1.000  O
  O252     1.0000 0.64711  0.86945  0.47249  Biso   1.000  O
  C487     1.0000 0.60096  0.86522  0.59116  Biso   1.000  C
  C488     1.0000 0.56119  0.87476  0.59669  Biso   1.000  C
  C489     1.0000 0.56358  0.90531  0.62895  Biso   1.000  C
  H245     1.0000 0.58950  0.91890  0.64850  Biso   1.000  H
  C490     1.0000 0.52761  0.91595  0.63248  Biso   1.000  C
  C491     1.0000 0.48924  0.89474  0.60496  Biso   1.000  C
  H246     1.0000 0.46480  0.90200  0.60800  Biso   1.000  H
  C492     1.0000 0.48545  0.86259  0.57252  Biso   1.000  C
  C493     1.0000 0.52270  0.85374  0.56868  Biso   1.000  C
  H247     1.0000 0.52170  0.83300  0.54650  Biso   1.000  H
  C494     1.0000 0.52908  0.94979  0.66602  Biso   1.000  C
  C495     1.0000 0.44307  0.83845  0.54567  Biso   1.000  C
  H248     1.0000 0.43940  0.81330  0.52770  Biso   1.000  H
  C496     1.0000 0.40998  0.84936  0.54493  Biso   1.000  C
  H249     1.0000 0.41720  0.87730  0.56030  Biso   1.000  H
  C497     1.0000 0.36357  0.82570  0.52436  Biso   1.000  C
  C498     1.0000 0.33396  0.84381  0.53177  Biso   1.000  C
  H250     1.0000 0.34510  0.87160  0.54880  Biso   1.000  H
  C499     1.0000 0.28899  0.82278  0.51516  Biso   1.000  C
  C500     1.0000 0.27261  0.78235  0.49005  Biso   1.000  C
  H251     1.0000 0.24200  0.76800  0.47770  Biso   1.000  H
  C501     1.0000 0.30101  0.76306  0.48304  Biso   1.000  C
  C502     1.0000 0.34636  0.78457  0.49976  Biso   1.000  C
  H252     1.0000 0.36580  0.77120  0.49440  Biso   1.000  H
  C503     1.0000 0.25822  0.84315  0.52602  Biso   1.000  C
  C504     1.0000 0.28360  0.71830  0.45740  Biso   1.000  C
  Co28     1.0000 0.65700  0.84530  0.53060  Biso   1.000  Co
  Fe29     1.0000 0.32497  0.17613  0.86323  Biso   1.000  Fe
  O253     1.0000 0.27096  0.18363  0.88776  Biso   1.000  O
  O254     1.0000 0.29457  0.20647  0.95634  Biso   1.000  O
  O255     1.0000 0.22976  0.30014  0.02518  Biso   1.000  O
  O256     1.0000 0.16267  0.29196  0.99858  Biso   1.000  O
  O257     1.0000 0.94002  0.20897  0.88693  Biso   1.000  O
  O258     1.0000 0.88571  0.15902  0.84032  Biso   1.000  O
  O259     1.0000 0.91211  0.03642  0.77133  Biso   1.000  O
  H253     1.0000 0.90537  0.01103  0.75873  Biso   1.000  H
  O260     1.0000 0.97408  0.03278  0.79053  Biso   1.000  O
  O261     1.0000 0.31378  0.20278  0.80582  Biso   1.000  O
  C505     1.0000 0.26763  0.19855  0.92449  Biso   1.000  C
  C506     1.0000 0.22786  0.20809  0.93002  Biso   1.000  C
  C507     1.0000 0.23025  0.23864  0.96228  Biso   1.000  C
  H254     1.0000 0.25617  0.25223  0.98183  Biso   1.000  H
  C508     1.0000 0.19428  0.24928  0.96581  Biso   1.000  C
  C509     1.0000 0.15591  0.22807  0.93829  Biso   1.000  C
  H255     1.0000 0.13147  0.23533  0.94133  Biso   1.000  H
  C510     1.0000 0.15212  0.19592  0.90585  Biso   1.000  C
  C511     1.0000 0.18937  0.18707  0.90201  Biso   1.000  C
  H256     1.0000 0.18837  0.16633  0.87983  Biso   1.000  H
  C512     1.0000 0.19575  0.28312  0.99935  Biso   1.000  C
  C513     1.0000 0.10974  0.17178  0.87900  Biso   1.000  C
  H257     1.0000 0.10607  0.14663  0.86103  Biso   1.000  H
  C514     1.0000 0.07665  0.18269  0.87826  Biso   1.000  C
  H258     1.0000 0.08387  0.21063  0.89363  Biso   1.000  H
  C515     1.0000 0.03024  0.15903  0.85769  Biso   1.000  C
  C516     1.0000 0.00063  0.17714  0.86510  Biso   1.000  C
  H259     1.0000 0.01177  0.20493  0.88213  Biso   1.000  H
  C517     1.0000 0.95566  0.15611  0.84849  Biso   1.000  C
  C518     1.0000 0.93928  0.11568  0.82338  Biso   1.000  C
  H260     1.0000 0.90867  0.10133  0.81103  Biso   1.000  H
  C519     1.0000 0.96768  0.09639  0.81637  Biso   1.000  C
  C520     1.0000 0.01303  0.11790  0.83309  Biso   1.000  C
  H261     1.0000 0.03247  0.10453  0.82773  Biso   1.000  H
  C521     1.0000 0.92489  0.17648  0.85935  Biso   1.000  C
  C522     1.0000 0.95027  0.05163  0.79073  Biso   1.000  C
  Co29     1.0000 0.32367  0.17863  0.86393  Biso   1.000  Co
  Fe30     1.0000 0.99163  0.50947  0.19657  Biso   1.000  Fe
  O262     1.0000 0.93762  0.51697  0.22110  Biso   1.000  O
  O263     1.0000 0.96123  0.53981  0.28968  Biso   1.000  O
  O264     1.0000 0.89642  0.63348  0.35852  Biso   1.000  O
  O265     1.0000 0.82933  0.62530  0.33192  Biso   1.000  O
  O266     1.0000 0.60668  0.54231  0.22027  Biso   1.000  O
  O267     1.0000 0.55237  0.49236  0.17366  Biso   1.000  O
  O268     1.0000 0.57877  0.36976  0.10467  Biso   1.000  O
  H262     1.0000 0.57203  0.34437  0.09207  Biso   1.000  H
  O269     1.0000 0.64074  0.36612  0.12387  Biso   1.000  O
  O270     1.0000 0.98044  0.53612  0.13916  Biso   1.000  O
  C523     1.0000 0.93429  0.53189  0.25783  Biso   1.000  C
  C524     1.0000 0.89452  0.54143  0.26336  Biso   1.000  C
  C525     1.0000 0.89691  0.57198  0.29562  Biso   1.000  C
  H263     1.0000 0.92283  0.58557  0.31517  Biso   1.000  H
  C526     1.0000 0.86094  0.58262  0.29915  Biso   1.000  C
  C527     1.0000 0.82257  0.56141  0.27163  Biso   1.000  C
  H264     1.0000 0.79813  0.56867  0.27467  Biso   1.000  H
  C528     1.0000 0.81878  0.52926  0.23919  Biso   1.000  C
  C529     1.0000 0.85603  0.52041  0.23535  Biso   1.000  C
  H265     1.0000 0.85503  0.49967  0.21317  Biso   1.000  H
  C530     1.0000 0.86241  0.61646  0.33269  Biso   1.000  C
  C531     1.0000 0.77640  0.50512  0.21234  Biso   1.000  C
  H266     1.0000 0.77273  0.47997  0.19437  Biso   1.000  H
  C532     1.0000 0.74331  0.51603  0.21160  Biso   1.000  C
  H267     1.0000 0.75053  0.54397  0.22697  Biso   1.000  H
  C533     1.0000 0.69690  0.49237  0.19103  Biso   1.000  C
  C534     1.0000 0.66729  0.51048  0.19844  Biso   1.000  C
  H268     1.0000 0.67843  0.53827  0.21547  Biso   1.000  H
  C535     1.0000 0.62232  0.48945  0.18183  Biso   1.000  C
  C536     1.0000 0.60594  0.44902  0.15672  Biso   1.000  C
  H269     1.0000 0.57533  0.43467  0.14437  Biso   1.000  H
  C537     1.0000 0.63434  0.42973  0.14971  Biso   1.000  C
  C538     1.0000 0.67969  0.45124  0.16643  Biso   1.000  C
  H270     1.0000 0.69913  0.43787  0.16107  Biso   1.000  H
  C539     1.0000 0.59155  0.50982  0.19269  Biso   1.000  C
  C540     1.0000 0.61693  0.38497  0.12407  Biso   1.000  C
  Co30     1.0000 0.99033  0.51197  0.19727  Biso   1.000  Co
  Fe31     1.0000 0.18450  0.34170  0.52990  Biso   1.000  Fe
  O271     1.0000 0.24601  0.39571  0.55443  Biso   1.000  O
  O272     1.0000 0.24524  0.37210  0.62301  Biso   1.000  O
  O273     1.0000 0.40372  0.43691  0.69185  Biso   1.000  O
  O274     1.0000 0.46263  0.50400  0.66525  Biso   1.000  O
  O275     1.0000 0.60229  0.72665  0.55360  Biso   1.000  O
  O276     1.0000 0.60665  0.78096  0.50699  Biso   1.000  O
  O277     1.0000 0.45765  0.75456  0.43800  Biso   1.000  O
  H271     1.0000 0.43900  0.76130  0.42540  Biso   1.000  H
  O278     1.0000 0.39204  0.69259  0.45720  Biso   1.000  O
  O279     1.0000 0.22234  0.35289  0.47249  Biso   1.000  O
  C541     1.0000 0.26426  0.39904  0.59116  Biso   1.000  C
  C542     1.0000 0.31357  0.43881  0.59669  Biso   1.000  C
  C543     1.0000 0.34173  0.43642  0.62895  Biso   1.000  C
  H272     1.0000 0.32940  0.41050  0.64850  Biso   1.000  H
  C544     1.0000 0.38834  0.47239  0.63248  Biso   1.000  C
  C545     1.0000 0.40550  0.51076  0.60496  Biso   1.000  C
  H273     1.0000 0.43720  0.53520  0.60800  Biso   1.000  H
  C546     1.0000 0.37714  0.51455  0.57252  Biso   1.000  C
  C547     1.0000 0.33104  0.47730  0.56868  Biso   1.000  C
  H274     1.0000 0.31130  0.47830  0.54650  Biso   1.000  H
  C548     1.0000 0.42071  0.47092  0.66602  Biso   1.000  C
  C549     1.0000 0.39538  0.55693  0.54567  Biso   1.000  C
  H275     1.0000 0.37390  0.56060  0.52770  Biso   1.000  H
  C550     1.0000 0.43938  0.59002  0.54493  Biso   1.000  C
  H276     1.0000 0.46010  0.58280  0.56030  Biso   1.000  H
  C551     1.0000 0.46213  0.63643  0.52436  Biso   1.000  C
  C552     1.0000 0.50985  0.66604  0.53177  Biso   1.000  C
  H277     1.0000 0.52650  0.65490  0.54880  Biso   1.000  H
  C553     1.0000 0.53379  0.71101  0.51516  Biso   1.000  C
  C554     1.0000 0.50974  0.72739  0.49005  Biso   1.000  C
  H278     1.0000 0.52600  0.75800  0.47770  Biso   1.000  H
  C555     1.0000 0.46205  0.69899  0.48304  Biso   1.000  C
  C556     1.0000 0.43821  0.65364  0.49976  Biso   1.000  C
  H279     1.0000 0.40540  0.63420  0.49440  Biso   1.000  H
  C557     1.0000 0.58493  0.74178  0.52602  Biso   1.000  C
  C558     1.0000 0.43470  0.71640  0.45740  Biso   1.000  C
  Co31     1.0000 0.18830  0.34300  0.53060  Biso   1.000  Co
  Fe32     1.0000 0.85117  0.67503  0.86323  Biso   1.000  Fe
  O280     1.0000 0.91268  0.72904  0.88776  Biso   1.000  O
  O281     1.0000 0.91191  0.70543  0.95634  Biso   1.000  O
  O282     1.0000 0.07039  0.77024  0.02518  Biso   1.000  O
  O283     1.0000 0.12930  0.83733  0.99858  Biso   1.000  O
  O284     1.0000 0.26896  0.05998  0.88693  Biso   1.000  O
  O285     1.0000 0.27332  0.11429  0.84032  Biso   1.000  O
  O286     1.0000 0.12432  0.08789  0.77133  Biso   1.000  O
  H280     1.0000 0.10567  0.09463  0.75873  Biso   1.000  H
  O287     1.0000 0.05871  0.02592  0.79053  Biso   1.000  O
  O288     1.0000 0.88901  0.68622  0.80582  Biso   1.000  O
  C559     1.0000 0.93093  0.73237  0.92449  Biso   1.000  C
  C560     1.0000 0.98024  0.77214  0.93002  Biso   1.000  C
  C561     1.0000 0.00840  0.76975  0.96228  Biso   1.000  C
  H281     1.0000 0.99607  0.74383  0.98183  Biso   1.000  H
  C562     1.0000 0.05501  0.80572  0.96581  Biso   1.000  C
  C563     1.0000 0.07217  0.84409  0.93829  Biso   1.000  C
  H282     1.0000 0.10387  0.86853  0.94133  Biso   1.000  H
  C564     1.0000 0.04381  0.84788  0.90585  Biso   1.000  C
  C565     1.0000 0.99771  0.81063  0.90201  Biso   1.000  C
  H283     1.0000 0.97797  0.81163  0.87983  Biso   1.000  H
  C566     1.0000 0.08738  0.80425  0.99935  Biso   1.000  C
  C567     1.0000 0.06205  0.89026  0.87900  Biso   1.000  C
  H284     1.0000 0.04057  0.89393  0.86103  Biso   1.000  H
  C568     1.0000 0.10605  0.92335  0.87826  Biso   1.000  C
  H285     1.0000 0.12677  0.91613  0.89363  Biso   1.000  H
  C569     1.0000 0.12880  0.96976  0.85769  Biso   1.000  C
  C570     1.0000 0.17652  0.99937  0.86510  Biso   1.000  C
  H286     1.0000 0.19317  0.98823  0.88213  Biso   1.000  H
  C571     1.0000 0.20046  0.04434  0.84849  Biso   1.000  C
  C572     1.0000 0.17641  0.06072  0.82338  Biso   1.000  C
  H287     1.0000 0.19267  0.09133  0.81103  Biso   1.000  H
  C573     1.0000 0.12872  0.03232  0.81637  Biso   1.000  C
  C574     1.0000 0.10488  0.98697  0.83309  Biso   1.000  C
  H288     1.0000 0.07207  0.96753  0.82773  Biso   1.000  H
  C575     1.0000 0.25160  0.07511  0.85935  Biso   1.000  C
  C576     1.0000 0.10137  0.04973  0.79073  Biso   1.000  C
  Co32     1.0000 0.85497  0.67633  0.86393  Biso   1.000  Co
  Fe33     1.0000 0.51783  0.00837  0.19657  Biso   1.000  Fe
  O289     1.0000 0.57934  0.06238  0.22110  Biso   1.000  O
  O290     1.0000 0.57857  0.03877  0.28968  Biso   1.000  O
  O291     1.0000 0.73705  0.10358  0.35852  Biso   1.000  O
  O292     1.0000 0.79596  0.17067  0.33192  Biso   1.000  O
  O293     1.0000 0.93562  0.39332  0.22027  Biso   1.000  O
  O294     1.0000 0.93998  0.44763  0.17366  Biso   1.000  O
  O295     1.0000 0.79098  0.42123  0.10467  Biso   1.000  O
  H289     1.0000 0.77233  0.42797  0.09207  Biso   1.000  H
  O296     1.0000 0.72537  0.35926  0.12387  Biso   1.000  O
  O297     1.0000 0.55567  0.01956  0.13916  Biso   1.000  O
  C577     1.0000 0.59759  0.06571  0.25783  Biso   1.000  C
  C578     1.0000 0.64690  0.10548  0.26336  Biso   1.000  C
  C579     1.0000 0.67506  0.10309  0.29562  Biso   1.000  C
  H290     1.0000 0.66273  0.07717  0.31517  Biso   1.000  H
  C580     1.0000 0.72167  0.13906  0.29915  Biso   1.000  C
  C581     1.0000 0.73883  0.17743  0.27163  Biso   1.000  C
  H291     1.0000 0.77053  0.20187  0.27467  Biso   1.000  H
  C582     1.0000 0.71047  0.18122  0.23919  Biso   1.000  C
  C583     1.0000 0.66437  0.14397  0.23535  Biso   1.000  C
  H292     1.0000 0.64463  0.14497  0.21317  Biso   1.000  H
  C584     1.0000 0.75404  0.13759  0.33269  Biso   1.000  C
  C585     1.0000 0.72871  0.22360  0.21234  Biso   1.000  C
  H293     1.0000 0.70723  0.22727  0.19437  Biso   1.000  H
  C586     1.0000 0.77271  0.25669  0.21160  Biso   1.000  C
  H294     1.0000 0.79343  0.24947  0.22697  Biso   1.000  H
  C587     1.0000 0.79546  0.30310  0.19103  Biso   1.000  C
  C588     1.0000 0.84318  0.33271  0.19844  Biso   1.000  C
  H295     1.0000 0.85983  0.32157  0.21547  Biso   1.000  H
  C589     1.0000 0.86712  0.37768  0.18183  Biso   1.000  C
  C590     1.0000 0.84307  0.39406  0.15672  Biso   1.000  C
  H296     1.0000 0.85933  0.42467  0.14437  Biso   1.000  H
  C591     1.0000 0.79538  0.36566  0.14971  Biso   1.000  C
  C592     1.0000 0.77154  0.32031  0.16643  Biso   1.000  C
  H297     1.0000 0.73873  0.30087  0.16107  Biso   1.000  H
  C593     1.0000 0.91826  0.40845  0.19269  Biso   1.000  C
  C594     1.0000 0.76803  0.38307  0.12407  Biso   1.000  C
  Co33     1.0000 0.52163  0.00967  0.19727  Biso   1.000  Co
  Fe34     1.0000 0.15720  0.81550  0.52990  Biso   1.000  Fe
  O298     1.0000 0.14970  0.75399  0.55443  Biso   1.000  O
  O299     1.0000 0.12686  0.75476  0.62301  Biso   1.000  O
  O300     1.0000 0.03319  0.59628  0.69185  Biso   1.000  O
  O301     1.0000 0.04137  0.53737  0.66525  Biso   1.000  O
  O302     1.0000 0.12436  0.39771  0.55360  Biso   1.000  O
  O303     1.0000 0.17431  0.39335  0.50699  Biso   1.000  O
  O304     1.0000 0.29691  0.54235  0.43800  Biso   1.000  O
  H298     1.0000 0.32230  0.56100  0.42540  Biso   1.000  H
  O305     1.0000 0.30055  0.60796  0.45720  Biso   1.000  O
  O306     1.0000 0.13055  0.77766  0.47249  Biso   1.000  O
  C595     1.0000 0.13478  0.73574  0.59116  Biso   1.000  C
  C596     1.0000 0.12524  0.68643  0.59669  Biso   1.000  C
  C597     1.0000 0.09469  0.65827  0.62895  Biso   1.000  C
  H299     1.0000 0.08110  0.67060  0.64850  Biso   1.000  H
  C598     1.0000 0.08405  0.61166  0.63248  Biso   1.000  C
  C599     1.0000 0.10526  0.59450  0.60496  Biso   1.000  C
  H300     1.0000 0.09800  0.56280  0.60800  Biso   1.000  H
  C600     1.0000 0.13741  0.62286  0.57252  Biso   1.000  C
  C601     1.0000 0.14626  0.66896  0.56868  Biso   1.000  C
  H301     1.0000 0.16700  0.68870  0.54650  Biso   1.000  H
  C602     1.0000 0.05021  0.57929  0.66602  Biso   1.000  C
  C603     1.0000 0.16155  0.60462  0.54567  Biso   1.000  C
  H302     1.0000 0.18670  0.62610  0.52770  Biso   1.000  H
  C604     1.0000 0.15064  0.56062  0.54493  Biso   1.000  C
  H303     1.0000 0.12270  0.53990  0.56030  Biso   1.000  H
  C605     1.0000 0.17430  0.53787  0.52436  Biso   1.000  C
  C606     1.0000 0.15619  0.49015  0.53177  Biso   1.000  C
  H304     1.0000 0.12840  0.47350  0.54880  Biso   1.000  H
  C607     1.0000 0.17722  0.46621  0.51516  Biso   1.000  C
  C608     1.0000 0.21765  0.49026  0.49005  Biso   1.000  C
  H305     1.0000 0.23200  0.47400  0.47770  Biso   1.000  H
  C609     1.0000 0.23694  0.53795  0.48304  Biso   1.000  C
  C610     1.0000 0.21543  0.56179  0.49976  Biso   1.000  C
  H306     1.0000 0.22880  0.59460  0.49440  Biso   1.000  H
  C611     1.0000 0.15685  0.41507  0.52602  Biso   1.000  C
  C612     1.0000 0.28170  0.56530  0.45740  Biso   1.000  C
  Co34     1.0000 0.15470  0.81170  0.53060  Biso   1.000  Co
  Fe35     1.0000 0.82387  0.14883  0.86323  Biso   1.000  Fe
  O307     1.0000 0.81637  0.08732  0.88776  Biso   1.000  O
  O308     1.0000 0.79353  0.08809  0.95634  Biso   1.000  O
  O309     1.0000 0.69986  0.92961  0.02518  Biso   1.000  O
  O310     1.0000 0.70804  0.87070  0.99858  Biso   1.000  O
  O311     1.0000 0.79103  0.73104  0.88693  Biso   1.000  O
  O312     1.0000 0.84098  0.72668  0.84032  Biso   1.000  O
  O313     1.0000 0.96358  0.87568  0.77133  Biso   1.000  O
  H307     1.0000 0.98897  0.89433  0.75873  Biso   1.000  H
  O314     1.0000 0.96722  0.94129  0.79053  Biso   1.000  O
  O315     1.0000 0.79722  0.11099  0.80582  Biso   1.000  O
  C613     1.0000 0.80145  0.06907  0.92449  Biso   1.000  C
  C614     1.0000 0.79191  0.01976  0.93002  Biso   1.000  C
  C615     1.0000 0.76136  0.99160  0.96228  Biso   1.000  C
  H308     1.0000 0.74777  0.00393  0.98183  Biso   1.000  H
  C616     1.0000 0.75072  0.94499  0.96581  Biso   1.000  C
  C617     1.0000 0.77193  0.92783  0.93829  Biso   1.000  C
  H309     1.0000 0.76467  0.89613  0.94133  Biso   1.000  H
  C618     1.0000 0.80408  0.95619  0.90585  Biso   1.000  C
  C619     1.0000 0.81293  0.00229  0.90201  Biso   1.000  C
  H310     1.0000 0.83367  0.02203  0.87983  Biso   1.000  H
  C620     1.0000 0.71688  0.91262  0.99935  Biso   1.000  C
  C621     1.0000 0.82822  0.93795  0.87900  Biso   1.000  C
  H311     1.0000 0.85337  0.95943  0.86103  Biso   1.000  H
  C622     1.0000 0.81731  0.89395  0.87826  Biso   1.000  C
  H312     1.0000 0.78937  0.87323  0.89363  Biso   1.000  H
  C623     1.0000 0.84097  0.87120  0.85769  Biso   1.000  C
  C624     1.0000 0.82286  0.82348  0.86510  Biso   1.000  C
  H313     1.0000 0.79507  0.80683  0.88213  Biso   1.000  H
  C625     1.0000 0.84389  0.79954  0.84849  Biso   1.000  C
  C626     1.0000 0.88432  0.82359  0.82338  Biso   1.000  C
  H314     1.0000 0.89867  0.80733  0.81103  Biso   1.000  H
  C627     1.0000 0.90361  0.87128  0.81637  Biso   1.000  C
  C628     1.0000 0.88210  0.89512  0.83309  Biso   1.000  C
  H315     1.0000 0.89547  0.92793  0.82773  Biso   1.000  H
  C629     1.0000 0.82352  0.74840  0.85935  Biso   1.000  C
  C630     1.0000 0.94837  0.89863  0.79073  Biso   1.000  C
  Co35     1.0000 0.82137  0.14503  0.86393  Biso   1.000  Co
  Fe36     1.0000 0.49053  0.48217  0.19657  Biso   1.000  Fe
  O316     1.0000 0.48303  0.42066  0.22110  Biso   1.000  O
  O317     1.0000 0.46019  0.42143  0.28968  Biso   1.000  O
  O318     1.0000 0.36652  0.26295  0.35852  Biso   1.000  O
  O319     1.0000 0.37470  0.20404  0.33192  Biso   1.000  O
  O320     1.0000 0.45769  0.06438  0.22027  Biso   1.000  O
  O321     1.0000 0.50764  0.06002  0.17366  Biso   1.000  O
  O322     1.0000 0.63024  0.20902  0.10467  Biso   1.000  O
  H316     1.0000 0.65563  0.22767  0.09207  Biso   1.000  H
  O323     1.0000 0.63388  0.27463  0.12387  Biso   1.000  O
  O324     1.0000 0.46388  0.44433  0.13916  Biso   1.000  O
  C631     1.0000 0.46811  0.40241  0.25783  Biso   1.000  C
  C632     1.0000 0.45857  0.35310  0.26336  Biso   1.000  C
  C633     1.0000 0.42802  0.32494  0.29562  Biso   1.000  C
  H317     1.0000 0.41443  0.33727  0.31517  Biso   1.000  H
  C634     1.0000 0.41738  0.27833  0.29915  Biso   1.000  C
  C635     1.0000 0.43859  0.26117  0.27163  Biso   1.000  C
  H318     1.0000 0.43133  0.22947  0.27467  Biso   1.000  H
  C636     1.0000 0.47074  0.28953  0.23919  Biso   1.000  C
  C637     1.0000 0.47959  0.33563  0.23535  Biso   1.000  C
  H319     1.0000 0.50033  0.35537  0.21317  Biso   1.000  H
  C638     1.0000 0.38354  0.24596  0.33269  Biso   1.000  C
  C639     1.0000 0.49488  0.27129  0.21234  Biso   1.000  C
  H320     1.0000 0.52003  0.29277  0.19437  Biso   1.000  H
  C640     1.0000 0.48397  0.22729  0.21160  Biso   1.000  C
  H321     1.0000 0.45603  0.20657  0.22697  Biso   1.000  H
  C641     1.0000 0.50763  0.20454  0.19103  Biso   1.000  C
  C642     1.0000 0.48952  0.15682  0.19844  Biso   1.000  C
  H322     1.0000 0.46173  0.14017  0.21547  Biso   1.000  H
  C643     1.0000 0.51055  0.13288  0.18183  Biso   1.000  C
  C644     1.0000 0.55098  0.15693  0.15672  Biso   1.000  C
  H323     1.0000 0.56533  0.14067  0.14437  Biso   1.000  H
  C645     1.0000 0.57027  0.20462  0.14971  Biso   1.000  C
  C646     1.0000 0.54876  0.22846  0.16643  Biso   1.000  C
  H324     1.0000 0.56213  0.26127  0.16107  Biso   1.000  H
  C647     1.0000 0.49018  0.08174  0.19269  Biso   1.000  C
  C648     1.0000 0.61503  0.23197  0.12407  Biso   1.000  C
  Co36     1.0000 0.48803  0.47837  0.19727  Biso   1.000  Co
  Fe37     1.0000 0.23932  0.33333  0.08333  Biso   1.000  Fe
  O325     1.0000 0.18106  0.33333  0.08333  Biso   1.000  O
  O326     1.0000 0.30253  0.33333  0.08333  Biso   1.000  O
  Co37     1.0000 0.24102  0.33333  0.08333  Biso   1.000  Co
  Fe38     1.0000 0.66667  0.90598  0.08333  Biso   1.000  Fe
  O327     1.0000 0.66667  0.84772  0.08333  Biso   1.000  O
  O328     1.0000 0.66667  0.96919  0.08333  Biso   1.000  O
  Co38     1.0000 0.66667  0.90768  0.08333  Biso   1.000  Co
  Fe39     1.0000 0.33333  0.23932  0.41667  Biso   1.000  Fe
  O329     1.0000 0.33333  0.18106  0.41667  Biso   1.000  O
  O330     1.0000 0.33333  0.30253  0.41667  Biso   1.000  O
  Co39     1.0000 0.33333  0.24102  0.41667  Biso   1.000  Co
  Fe40     1.0000 0.09402  0.76068  0.08333  Biso   1.000  Fe
  O331     1.0000 0.15228  0.81894  0.08333  Biso   1.000  O
  O332     1.0000 0.03081  0.69747  0.08333  Biso   1.000  O
  Co40     1.0000 0.09232  0.75898  0.08333  Biso   1.000  Co
  Fe41     1.0000 0.42735  0.42735  0.75000  Biso   1.000  Fe
  O333     1.0000 0.48561  0.48561  0.75000  Biso   1.000  O
  O334     1.0000 0.36414  0.36414  0.75000  Biso   1.000  O
  Co41     1.0000 0.42565  0.42565  0.75000  Biso   1.000  Co
  Fe42     1.0000 0.00000  0.57265  0.75000  Biso   1.000  Fe
  O335     1.0000 0.00000  0.51439  0.75000  Biso   1.000  O
  O336     1.0000 0.00000  0.63586  0.75000  Biso   1.000  O
  Co42     1.0000 1.00000  0.57435  0.75000  Biso   1.000  Co
  Fe43     1.0000 0.90598  0.66667  0.41667  Biso   1.000  Fe
  O337     1.0000 0.84772  0.66667  0.41667  Biso   1.000  O
  O338     1.0000 0.96919  0.66667  0.41667  Biso   1.000  O
  Co43     1.0000 0.90768  0.66667  0.41667  Biso   1.000  Co
  Fe44     1.0000 0.57265  0.00000  0.75000  Biso   1.000  Fe
  O339     1.0000 0.51439  0.00000  0.75000  Biso   1.000  O
  O340     1.0000 0.63586  0.00000  0.75000  Biso   1.000  O
  Co44     1.0000 0.57435  0.00000  0.75000  Biso   1.000  Co
  Fe45     1.0000 0.76068  0.09402  0.41667  Biso   1.000  Fe
  O341     1.0000 0.81894  0.15228  0.41667  Biso   1.000  O
  O342     1.0000 0.69747  0.03081  0.41667  Biso   1.000  O
  Co45     1.0000 0.75898  0.09232  0.41667  Biso   1.000  Co
  Fe46     1.0000 0.76068  0.66667  0.91667  Biso   1.000  Fe
  O343     1.0000 0.81894  0.66667  0.91667  Biso   1.000  O
  O344     1.0000 0.69747  0.66667  0.91667  Biso   1.000  O
  Co46     1.0000 0.75898  0.66667  0.91667  Biso   1.000  Co
  Fe47     1.0000 0.42735  0.00000  0.25000  Biso   1.000  Fe
  O345     1.0000 0.48561  0.00000  0.25000  Biso   1.000  O
  O346     1.0000 0.36414  0.00000  0.25000  Biso   1.000  O
  Co47     1.0000 0.42565  0.00000  0.25000  Biso   1.000  Co
  Fe48     1.0000 0.09402  0.33333  0.58333  Biso   1.000  Fe
  O347     1.0000 0.15228  0.33333  0.58333  Biso   1.000  O
  O348     1.0000 0.03081  0.33333  0.58333  Biso   1.000  O
  Co48     1.0000 0.09232  0.33333  0.58333  Biso   1.000  Co
  Fe49     1.0000 0.33333  0.09402  0.91667  Biso   1.000  Fe
  O349     1.0000 0.33333  0.15228  0.91667  Biso   1.000  O
  O350     1.0000 0.33333  0.03081  0.91667  Biso   1.000  O
  Co49     1.0000 0.33333  0.09232  0.91667  Biso   1.000  Co
  Fe50     1.0000 0.00000  0.42735  0.25000  Biso   1.000  Fe
  O351     1.0000 0.00000  0.48561  0.25000  Biso   1.000  O
  O352     1.0000 0.00000  0.36414  0.25000  Biso   1.000  O
  Co50     1.0000 0.00000  0.42565  0.25000  Biso   1.000  Co
  Fe51     1.0000 0.90598  0.23932  0.91667  Biso   1.000  Fe
  O353     1.0000 0.84772  0.18106  0.91667  Biso   1.000  O
  O354     1.0000 0.96919  0.30253  0.91667  Biso   1.000  O
  Co51     1.0000 0.90768  0.24102  0.91667  Biso   1.000  Co
  Fe52     1.0000 0.57265  0.57265  0.25000  Biso   1.000  Fe
  O355     1.0000 0.51439  0.51439  0.25000  Biso   1.000  O
  O356     1.0000 0.63586  0.63586  0.25000  Biso   1.000  O
  Co52     1.0000 0.57435  0.57435  0.25000  Biso   1.000  Co
  Fe53     1.0000 0.66667  0.76068  0.58333  Biso   1.000  Fe
  O357     1.0000 0.66667  0.81894  0.58333  Biso   1.000  O
  O358     1.0000 0.66667  0.69747  0.58333  Biso   1.000  O
  Co53     1.0000 0.66667  0.75898  0.58333  Biso   1.000  Co
  Fe54     1.0000 0.23932  0.90598  0.58333  Biso   1.000  Fe
  O359     1.0000 0.18106  0.84772  0.58333  Biso   1.000  O
  O360     1.0000 0.30253  0.96919  0.58333  Biso   1.000  O
  Co54     1.0000 0.24102  0.90768  0.58333  Biso   1.000  Co
  Fe55     1.0000 0.33333  0.66667  0.91667  Biso   1.000  Fe
  Fe56     1.0000 0.00000  0.00000  0.25000  Biso   1.000  Fe
  Fe57     1.0000 0.66667  0.33333  0.58333  Biso   1.000  Fe
  Fe58     1.0000 0.66667  0.33333  0.08333  Biso   1.000  Fe
  Fe59     1.0000 0.00000  0.00000  0.75000  Biso   1.000  Fe
  Fe60     1.0000 0.33333  0.66667  0.41667  Biso   1.000  Fe
