data_image0
_cell_length_a       32.356
_cell_length_b       32.356
_cell_length_c       33.363
_cell_angle_alpha    90
_cell_angle_beta     90
_cell_angle_gamma    120

_symmetry_space_group_name_H-M    "P 1"
_symmetry_int_tables_number       1

loop_
  _symmetry_equiv_pos_as_xyz
  'x, y, z'

loop_
  _atom_site_label
  _atom_site_occupancy
  _atom_site_fract_x
  _atom_site_fract_y
  _atom_site_fract_z
  _atom_site_thermal_displace_type
  _atom_site_B_iso_or_equiv
  _atom_site_type_symbol
  Fe1      1.0000 0.19650  0.85270  0.03549  Biso   1.000  Fe
  O1       1.0000 0.13147  0.73227  0.05475  Biso   1.000  O
  O2       1.0000 0.18692  0.78943  0.01641  Biso   1.000  O
  O3       1.0000 0.30140  0.69490  0.95312  Biso   1.000  O
  O4       1.0000 0.29680  0.75810  0.93670  Biso   1.000  O
  H1       1.0000 0.32240  0.76590  0.92460  Biso   1.000  H
  O5       1.0000 0.13407  0.39391  0.05800  Biso   1.000  O
  O6       1.0000 0.11735  0.37363  0.12243  Biso   1.000  O
  O7       1.0000 0.03416  0.44595  0.19622  Biso   1.000  O
  O8       1.0000 0.03699  0.51066  0.16980  Biso   1.000  O
  C1       1.0000 0.16470  0.74790  0.02960  Biso   1.000  C
  C2       1.0000 0.18070  0.71420  0.01471  Biso   1.000  C
  C3       1.0000 0.22080  0.73110  0.99010  Biso   1.000  C
  H2       1.0000 0.23650  0.76340  0.98130  Biso   1.000  H
  C4       1.0000 0.23790  0.70110  0.97820  Biso   1.000  C
  C5       1.0000 0.21400  0.65380  0.99040  Biso   1.000  C
  H3       1.0000 0.22510  0.63300  0.98180  Biso   1.000  H
  C6       1.0000 0.17410  0.63650  0.01490  Biso   1.000  C
  C7       1.0000 0.15800  0.66770  0.02660  Biso   1.000  C
  H4       1.0000 0.13050  0.65610  0.04320  Biso   1.000  H
  C8       1.0000 0.28290  0.71900  0.95520  Biso   1.000  C
  C9       1.0000 0.15120  0.58860  0.03000  Biso   1.000  C
  C10      1.0000 0.13450  0.55130  0.04630  Biso   1.000  C
  C11      1.0000 0.11620  0.51090  0.07324  Biso   1.000  C
  C12      1.0000 0.12480  0.47330  0.06871  Biso   1.000  C
  H5       1.0000 0.14090  0.47170  0.04540  Biso   1.000  H
  C13      1.0000 0.11040  0.43810  0.09744  Biso   1.000  C
  C14      1.0000 0.08530  0.43929  0.13053  Biso   1.000  C
  H6       1.0000 0.07540  0.41510  0.15040  Biso   1.000  H
  C15      1.0000 0.07460  0.47550  0.13504  Biso   1.000  C
  C16      1.0000 0.09070  0.51140  0.10660  Biso   1.000  C
  H7       1.0000 0.08420  0.53680  0.11000  Biso   1.000  H
  C17      1.0000 0.12130  0.39840  0.09216  Biso   1.000  C
  C18      1.0000 0.04640  0.47750  0.17000  Biso   1.000  C
  Fe2      1.0000 0.86317  0.18603  0.36882  Biso   1.000  Fe
  O9       1.0000 0.79814  0.06560  0.38808  Biso   1.000  O
  O10      1.0000 0.85359  0.12276  0.34974  Biso   1.000  O
  O11      1.0000 0.96807  0.02823  0.28645  Biso   1.000  O
  O12      1.0000 0.96347  0.09143  0.27003  Biso   1.000  O
  H8       1.0000 0.98907  0.09923  0.25793  Biso   1.000  H
  O13      1.0000 0.80074  0.72724  0.39133  Biso   1.000  O
  O14      1.0000 0.78402  0.70696  0.45576  Biso   1.000  O
  O15      1.0000 0.70083  0.77928  0.52955  Biso   1.000  O
  O16      1.0000 0.70366  0.84399  0.50313  Biso   1.000  O
  C19      1.0000 0.83137  0.08123  0.36293  Biso   1.000  C
  C20      1.0000 0.84737  0.04753  0.34804  Biso   1.000  C
  C21      1.0000 0.88747  0.06443  0.32343  Biso   1.000  C
  H9       1.0000 0.90317  0.09673  0.31463  Biso   1.000  H
  C22      1.0000 0.90457  0.03443  0.31153  Biso   1.000  C
  C23      1.0000 0.88067  0.98713  0.32373  Biso   1.000  C
  H10      1.0000 0.89177  0.96633  0.31513  Biso   1.000  H
  C24      1.0000 0.84077  0.96983  0.34823  Biso   1.000  C
  C25      1.0000 0.82467  0.00103  0.35993  Biso   1.000  C
  H11      1.0000 0.79717  0.98943  0.37653  Biso   1.000  H
  C26      1.0000 0.94957  0.05233  0.28853  Biso   1.000  C
  C27      1.0000 0.81787  0.92193  0.36333  Biso   1.000  C
  C28      1.0000 0.80117  0.88463  0.37963  Biso   1.000  C
  C29      1.0000 0.78287  0.84423  0.40657  Biso   1.000  C
  C30      1.0000 0.79147  0.80663  0.40204  Biso   1.000  C
  H12      1.0000 0.80757  0.80503  0.37873  Biso   1.000  H
  C31      1.0000 0.77707  0.77143  0.43077  Biso   1.000  C
  C32      1.0000 0.75197  0.77262  0.46386  Biso   1.000  C
  H13      1.0000 0.74207  0.74843  0.48373  Biso   1.000  H
  C33      1.0000 0.74127  0.80883  0.46837  Biso   1.000  C
  C34      1.0000 0.75737  0.84473  0.43993  Biso   1.000  C
  H14      1.0000 0.75087  0.87013  0.44333  Biso   1.000  H
  C35      1.0000 0.78797  0.73173  0.42549  Biso   1.000  C
  C36      1.0000 0.71307  0.81083  0.50333  Biso   1.000  C
  Fe3      1.0000 0.52983  0.51937  0.70216  Biso   1.000  Fe
  O17      1.0000 0.46480  0.39894  0.72142  Biso   1.000  O
  O18      1.0000 0.52025  0.45610  0.68308  Biso   1.000  O
  O19      1.0000 0.63473  0.36157  0.61979  Biso   1.000  O
  O20      1.0000 0.63013  0.42477  0.60337  Biso   1.000  O
  H15      1.0000 0.65573  0.43257  0.59127  Biso   1.000  H
  O21      1.0000 0.46740  0.06058  0.72467  Biso   1.000  O
  O22      1.0000 0.45068  0.04030  0.78910  Biso   1.000  O
  O23      1.0000 0.36749  0.11262  0.86289  Biso   1.000  O
  O24      1.0000 0.37032  0.17733  0.83647  Biso   1.000  O
  C37      1.0000 0.49803  0.41457  0.69627  Biso   1.000  C
  C38      1.0000 0.51403  0.38087  0.68138  Biso   1.000  C
  C39      1.0000 0.55413  0.39777  0.65677  Biso   1.000  C
  H16      1.0000 0.56983  0.43007  0.64797  Biso   1.000  H
  C40      1.0000 0.57123  0.36777  0.64487  Biso   1.000  C
  C41      1.0000 0.54733  0.32047  0.65707  Biso   1.000  C
  H17      1.0000 0.55843  0.29967  0.64847  Biso   1.000  H
  C42      1.0000 0.50743  0.30317  0.68157  Biso   1.000  C
  C43      1.0000 0.49133  0.33437  0.69327  Biso   1.000  C
  H18      1.0000 0.46383  0.32277  0.70987  Biso   1.000  H
  C44      1.0000 0.61623  0.38567  0.62187  Biso   1.000  C
  C45      1.0000 0.48453  0.25527  0.69667  Biso   1.000  C
  C46      1.0000 0.46783  0.21797  0.71297  Biso   1.000  C
  C47      1.0000 0.44953  0.17757  0.73991  Biso   1.000  C
  C48      1.0000 0.45813  0.13997  0.73538  Biso   1.000  C
  H19      1.0000 0.47423  0.13837  0.71207  Biso   1.000  H
  C49      1.0000 0.44373  0.10477  0.76411  Biso   1.000  C
  C50      1.0000 0.41863  0.10596  0.79720  Biso   1.000  C
  H20      1.0000 0.40873  0.08177  0.81707  Biso   1.000  H
  C51      1.0000 0.40793  0.14217  0.80171  Biso   1.000  C
  C52      1.0000 0.42403  0.17807  0.77327  Biso   1.000  C
  H21      1.0000 0.41753  0.20347  0.77667  Biso   1.000  H
  C53      1.0000 0.45463  0.06507  0.75883  Biso   1.000  C
  C54      1.0000 0.37973  0.14417  0.83667  Biso   1.000  C
  Fe4      1.0000 0.14730  0.34380  0.03549  Biso   1.000  Fe
  O25      1.0000 0.26773  0.39920  0.05475  Biso   1.000  O
  O26      1.0000 0.21057  0.39749  0.01641  Biso   1.000  O
  O27      1.0000 0.30510  0.60650  0.95312  Biso   1.000  O
  O28      1.0000 0.24190  0.53870  0.93670  Biso   1.000  O
  H22      1.0000 0.23410  0.55650  0.92460  Biso   1.000  H
  O29      1.0000 0.60609  0.74016  0.05800  Biso   1.000  O
  O30      1.0000 0.62637  0.74372  0.12243  Biso   1.000  O
  O31      1.0000 0.55405  0.58821  0.19622  Biso   1.000  O
  O32      1.0000 0.48934  0.52633  0.16980  Biso   1.000  O
  C55      1.0000 0.25210  0.41680  0.02960  Biso   1.000  C
  C56      1.0000 0.28580  0.46650  0.01471  Biso   1.000  C
  C57      1.0000 0.26890  0.48970  0.99010  Biso   1.000  C
  H23      1.0000 0.23660  0.47310  0.98130  Biso   1.000  H
  C58      1.0000 0.29890  0.53680  0.97820  Biso   1.000  C
  C59      1.0000 0.34620  0.56020  0.99040  Biso   1.000  C
  H24      1.0000 0.36700  0.59210  0.98180  Biso   1.000  H
  C60      1.0000 0.36350  0.53760  0.01490  Biso   1.000  C
  C61      1.0000 0.33230  0.49030  0.02660  Biso   1.000  C
  H25      1.0000 0.34390  0.47440  0.04320  Biso   1.000  H
  C62      1.0000 0.28100  0.56390  0.95520  Biso   1.000  C
  C63      1.0000 0.41140  0.56260  0.03000  Biso   1.000  C
  C64      1.0000 0.44870  0.58320  0.04630  Biso   1.000  C
  C65      1.0000 0.48910  0.60530  0.07324  Biso   1.000  C
  C66      1.0000 0.52670  0.65150  0.06871  Biso   1.000  C
  H26      1.0000 0.52830  0.66920  0.04540  Biso   1.000  H
  C67      1.0000 0.56190  0.67230  0.09744  Biso   1.000  C
  C68      1.0000 0.56071  0.64601  0.13053  Biso   1.000  C
  H27      1.0000 0.58490  0.66030  0.15040  Biso   1.000  H
  C69      1.0000 0.52450  0.59910  0.13504  Biso   1.000  C
  C70      1.0000 0.48860  0.57930  0.10660  Biso   1.000  C
  H28      1.0000 0.46320  0.54740  0.11000  Biso   1.000  H
  C71      1.0000 0.60160  0.72290  0.09216  Biso   1.000  C
  C72      1.0000 0.52250  0.56890  0.17000  Biso   1.000  C
  Fe5      1.0000 0.81397  0.67713  0.36882  Biso   1.000  Fe
  O33      1.0000 0.93440  0.73253  0.38808  Biso   1.000  O
  O34      1.0000 0.87724  0.73082  0.34974  Biso   1.000  O
  O35      1.0000 0.97177  0.93983  0.28645  Biso   1.000  O
  O36      1.0000 0.90857  0.87203  0.27003  Biso   1.000  O
  H29      1.0000 0.90077  0.88983  0.25793  Biso   1.000  H
  O37      1.0000 0.27276  0.07349  0.39133  Biso   1.000  O
  O38      1.0000 0.29304  0.07705  0.45576  Biso   1.000  O
  O39      1.0000 0.22072  0.92154  0.52955  Biso   1.000  O
  O40      1.0000 0.15601  0.85966  0.50313  Biso   1.000  O
  C73      1.0000 0.91877  0.75013  0.36293  Biso   1.000  C
  C74      1.0000 0.95247  0.79983  0.34804  Biso   1.000  C
  C75      1.0000 0.93557  0.82303  0.32343  Biso   1.000  C
  H30      1.0000 0.90327  0.80643  0.31463  Biso   1.000  H
  C76      1.0000 0.96557  0.87013  0.31153  Biso   1.000  C
  C77      1.0000 0.01287  0.89353  0.32373  Biso   1.000  C
  H31      1.0000 0.03367  0.92543  0.31513  Biso   1.000  H
  C78      1.0000 0.03017  0.87093  0.34823  Biso   1.000  C
  C79      1.0000 0.99897  0.82363  0.35993  Biso   1.000  C
  H32      1.0000 0.01057  0.80773  0.37653  Biso   1.000  H
  C80      1.0000 0.94767  0.89723  0.28853  Biso   1.000  C
  C81      1.0000 0.07807  0.89593  0.36333  Biso   1.000  C
  C82      1.0000 0.11537  0.91653  0.37963  Biso   1.000  C
  C83      1.0000 0.15577  0.93863  0.40657  Biso   1.000  C
  C84      1.0000 0.19337  0.98483  0.40204  Biso   1.000  C
  H33      1.0000 0.19497  0.00253  0.37873  Biso   1.000  H
  C85      1.0000 0.22857  0.00563  0.43077  Biso   1.000  C
  C86      1.0000 0.22738  0.97934  0.46386  Biso   1.000  C
  H34      1.0000 0.25157  0.99363  0.48373  Biso   1.000  H
  C87      1.0000 0.19117  0.93243  0.46837  Biso   1.000  C
  C88      1.0000 0.15527  0.91263  0.43993  Biso   1.000  C
  H35      1.0000 0.12987  0.88073  0.44333  Biso   1.000  H
  C89      1.0000 0.26827  0.05623  0.42549  Biso   1.000  C
  C90      1.0000 0.18917  0.90223  0.50333  Biso   1.000  C
  Fe6      1.0000 0.48063  0.01047  0.70216  Biso   1.000  Fe
  O41      1.0000 0.60106  0.06587  0.72142  Biso   1.000  O
  O42      1.0000 0.54390  0.06416  0.68308  Biso   1.000  O
  O43      1.0000 0.63843  0.27317  0.61979  Biso   1.000  O
  O44      1.0000 0.57523  0.20537  0.60337  Biso   1.000  O
  H36      1.0000 0.56743  0.22317  0.59127  Biso   1.000  H
  O45      1.0000 0.93942  0.40683  0.72467  Biso   1.000  O
  O46      1.0000 0.95970  0.41039  0.78910  Biso   1.000  O
  O47      1.0000 0.88738  0.25488  0.86289  Biso   1.000  O
  O48      1.0000 0.82267  0.19300  0.83647  Biso   1.000  O
  C91      1.0000 0.58543  0.08347  0.69627  Biso   1.000  C
  C92      1.0000 0.61913  0.13317  0.68138  Biso   1.000  C
  C93      1.0000 0.60223  0.15637  0.65677  Biso   1.000  C
  H37      1.0000 0.56993  0.13977  0.64797  Biso   1.000  H
  C94      1.0000 0.63223  0.20347  0.64487  Biso   1.000  C
  C95      1.0000 0.67953  0.22687  0.65707  Biso   1.000  C
  H38      1.0000 0.70033  0.25877  0.64847  Biso   1.000  H
  C96      1.0000 0.69683  0.20427  0.68157  Biso   1.000  C
  C97      1.0000 0.66563  0.15697  0.69327  Biso   1.000  C
  H39      1.0000 0.67723  0.14107  0.70987  Biso   1.000  H
  C98      1.0000 0.61433  0.23057  0.62187  Biso   1.000  C
  C99      1.0000 0.74473  0.22927  0.69667  Biso   1.000  C
  C100     1.0000 0.78203  0.24987  0.71297  Biso   1.000  C
  C101     1.0000 0.82243  0.27197  0.73991  Biso   1.000  C
  C102     1.0000 0.86003  0.31817  0.73538  Biso   1.000  C
  H40      1.0000 0.86163  0.33587  0.71207  Biso   1.000  H
  C103     1.0000 0.89523  0.33897  0.76411  Biso   1.000  C
  C104     1.0000 0.89404  0.31268  0.79720  Biso   1.000  C
  H41      1.0000 0.91823  0.32697  0.81707  Biso   1.000  H
  C105     1.0000 0.85783  0.26577  0.80171  Biso   1.000  C
  C106     1.0000 0.82193  0.24597  0.77327  Biso   1.000  C
  H42      1.0000 0.79653  0.21407  0.77667  Biso   1.000  H
  C107     1.0000 0.93493  0.38957  0.75883  Biso   1.000  C
  C108     1.0000 0.85583  0.23557  0.83667  Biso   1.000  C
  Fe7      1.0000 0.65620  0.80350  0.03549  Biso   1.000  Fe
  O49      1.0000 0.60080  0.86853  0.05475  Biso   1.000  O
  O50      1.0000 0.60251  0.81308  0.01641  Biso   1.000  O
  O51      1.0000 0.39350  0.69860  0.95312  Biso   1.000  O
  O52      1.0000 0.46130  0.70320  0.93670  Biso   1.000  O
  H43      1.0000 0.44350  0.67760  0.92460  Biso   1.000  H
  O53      1.0000 0.25984  0.86593  0.05800  Biso   1.000  O
  O54      1.0000 0.25628  0.88265  0.12243  Biso   1.000  O
  O55      1.0000 0.41179  0.96584  0.19622  Biso   1.000  O
  O56      1.0000 0.47367  0.96301  0.16980  Biso   1.000  O
  C109     1.0000 0.58320  0.83530  0.02960  Biso   1.000  C
  C110     1.0000 0.53350  0.81930  0.01471  Biso   1.000  C
  C111     1.0000 0.51030  0.77920  0.99010  Biso   1.000  C
  H44      1.0000 0.52690  0.76350  0.98130  Biso   1.000  H
  C112     1.0000 0.46320  0.76210  0.97820  Biso   1.000  C
  C113     1.0000 0.43980  0.78600  0.99040  Biso   1.000  C
  H45      1.0000 0.40790  0.77490  0.98180  Biso   1.000  H
  C114     1.0000 0.46240  0.82590  0.01490  Biso   1.000  C
  C115     1.0000 0.50970  0.84200  0.02660  Biso   1.000  C
  H46      1.0000 0.52560  0.86950  0.04320  Biso   1.000  H
  C116     1.0000 0.43610  0.71710  0.95520  Biso   1.000  C
  C117     1.0000 0.43740  0.84880  0.03000  Biso   1.000  C
  C118     1.0000 0.41680  0.86550  0.04630  Biso   1.000  C
  C119     1.0000 0.39470  0.88380  0.07324  Biso   1.000  C
  C120     1.0000 0.34850  0.87520  0.06871  Biso   1.000  C
  H47      1.0000 0.33080  0.85910  0.04540  Biso   1.000  H
  C121     1.0000 0.32770  0.88960  0.09744  Biso   1.000  C
  C122     1.0000 0.35399  0.91470  0.13053  Biso   1.000  C
  H48      1.0000 0.33970  0.92460  0.15040  Biso   1.000  H
  C123     1.0000 0.40090  0.92540  0.13504  Biso   1.000  C
  C124     1.0000 0.42070  0.90930  0.10660  Biso   1.000  C
  H49      1.0000 0.45260  0.91580  0.11000  Biso   1.000  H
  C125     1.0000 0.27710  0.87870  0.09216  Biso   1.000  C
  C126     1.0000 0.43110  0.95360  0.17000  Biso   1.000  C
  Fe8      1.0000 0.32287  0.13683  0.36882  Biso   1.000  Fe
  O57      1.0000 0.26747  0.20186  0.38808  Biso   1.000  O
  O58      1.0000 0.26918  0.14641  0.34974  Biso   1.000  O
  O59      1.0000 0.06017  0.03193  0.28645  Biso   1.000  O
  O60      1.0000 0.12797  0.03653  0.27003  Biso   1.000  O
  H50      1.0000 0.11017  0.01093  0.25793  Biso   1.000  H
  O61      1.0000 0.92651  0.19926  0.39133  Biso   1.000  O
  O62      1.0000 0.92295  0.21598  0.45576  Biso   1.000  O
  O63      1.0000 0.07846  0.29917  0.52955  Biso   1.000  O
  O64      1.0000 0.14034  0.29634  0.50313  Biso   1.000  O
  C127     1.0000 0.24987  0.16863  0.36293  Biso   1.000  C
  C128     1.0000 0.20017  0.15263  0.34804  Biso   1.000  C
  C129     1.0000 0.17697  0.11253  0.32343  Biso   1.000  C
  H51      1.0000 0.19357  0.09683  0.31463  Biso   1.000  H
  C130     1.0000 0.12987  0.09543  0.31153  Biso   1.000  C
  C131     1.0000 0.10647  0.11933  0.32373  Biso   1.000  C
  H52      1.0000 0.07457  0.10823  0.31513  Biso   1.000  H
  C132     1.0000 0.12907  0.15923  0.34823  Biso   1.000  C
  C133     1.0000 0.17637  0.17533  0.35993  Biso   1.000  C
  H53      1.0000 0.19227  0.20283  0.37653  Biso   1.000  H
  C134     1.0000 0.10277  0.05043  0.28853  Biso   1.000  C
  C135     1.0000 0.10407  0.18213  0.36333  Biso   1.000  C
  C136     1.0000 0.08347  0.19883  0.37963  Biso   1.000  C
  C137     1.0000 0.06137  0.21713  0.40657  Biso   1.000  C
  C138     1.0000 0.01517  0.20853  0.40204  Biso   1.000  C
  H54      1.0000 0.99747  0.19243  0.37873  Biso   1.000  H
  C139     1.0000 0.99437  0.22293  0.43077  Biso   1.000  C
  C140     1.0000 0.02066  0.24803  0.46386  Biso   1.000  C
  H55      1.0000 0.00637  0.25793  0.48373  Biso   1.000  H
  C141     1.0000 0.06757  0.25873  0.46837  Biso   1.000  C
  C142     1.0000 0.08737  0.24263  0.43993  Biso   1.000  C
  H56      1.0000 0.11927  0.24913  0.44333  Biso   1.000  H
  C143     1.0000 0.94377  0.21203  0.42549  Biso   1.000  C
  C144     1.0000 0.09777  0.28693  0.50333  Biso   1.000  C
  Fe9      1.0000 0.98953  0.47017  0.70216  Biso   1.000  Fe
  O65      1.0000 0.93413  0.53520  0.72142  Biso   1.000  O
  O66      1.0000 0.93584  0.47975  0.68308  Biso   1.000  O
  O67      1.0000 0.72683  0.36527  0.61979  Biso   1.000  O
  O68      1.0000 0.79463  0.36987  0.60337  Biso   1.000  O
  H57      1.0000 0.77683  0.34427  0.59127  Biso   1.000  H
  O69      1.0000 0.59317  0.53260  0.72467  Biso   1.000  O
  O70      1.0000 0.58961  0.54932  0.78910  Biso   1.000  O
  O71      1.0000 0.74512  0.63251  0.86289  Biso   1.000  O
  O72      1.0000 0.80700  0.62968  0.83647  Biso   1.000  O
  C145     1.0000 0.91653  0.50197  0.69627  Biso   1.000  C
  C146     1.0000 0.86683  0.48597  0.68138  Biso   1.000  C
  C147     1.0000 0.84363  0.44587  0.65677  Biso   1.000  C
  H58      1.0000 0.86023  0.43017  0.64797  Biso   1.000  H
  C148     1.0000 0.79653  0.42877  0.64487  Biso   1.000  C
  C149     1.0000 0.77313  0.45267  0.65707  Biso   1.000  C
  H59      1.0000 0.74123  0.44157  0.64847  Biso   1.000  H
  C150     1.0000 0.79573  0.49257  0.68157  Biso   1.000  C
  C151     1.0000 0.84303  0.50867  0.69327  Biso   1.000  C
  H60      1.0000 0.85893  0.53617  0.70987  Biso   1.000  H
  C152     1.0000 0.76943  0.38377  0.62187  Biso   1.000  C
  C153     1.0000 0.77073  0.51547  0.69667  Biso   1.000  C
  C154     1.0000 0.75013  0.53217  0.71297  Biso   1.000  C
  C155     1.0000 0.72803  0.55047  0.73991  Biso   1.000  C
  C156     1.0000 0.68183  0.54187  0.73538  Biso   1.000  C
  H61      1.0000 0.66413  0.52577  0.71207  Biso   1.000  H
  C157     1.0000 0.66103  0.55627  0.76411  Biso   1.000  C
  C158     1.0000 0.68732  0.58137  0.79720  Biso   1.000  C
  H62      1.0000 0.67303  0.59127  0.81707  Biso   1.000  H
  C159     1.0000 0.73423  0.59207  0.80171  Biso   1.000  C
  C160     1.0000 0.75403  0.57597  0.77327  Biso   1.000  C
  H63      1.0000 0.78593  0.58247  0.77667  Biso   1.000  H
  C161     1.0000 0.61043  0.54537  0.75883  Biso   1.000  C
  C162     1.0000 0.76443  0.62027  0.83667  Biso   1.000  C
  Fe10     1.0000 0.85270  0.19650  0.46451  Biso   1.000  Fe
  O73      1.0000 0.73227  0.13147  0.44525  Biso   1.000  O
  O74      1.0000 0.78943  0.18692  0.48359  Biso   1.000  O
  O75      1.0000 0.69490  0.30140  0.54688  Biso   1.000  O
  O76      1.0000 0.75810  0.29680  0.56330  Biso   1.000  O
  H64      1.0000 0.76590  0.32240  0.57540  Biso   1.000  H
  O77      1.0000 0.39391  0.13407  0.44200  Biso   1.000  O
  O78      1.0000 0.37363  0.11735  0.37757  Biso   1.000  O
  O79      1.0000 0.44595  0.03416  0.30378  Biso   1.000  O
  O80      1.0000 0.51066  0.03699  0.33020  Biso   1.000  O
  C163     1.0000 0.74790  0.16470  0.47040  Biso   1.000  C
  C164     1.0000 0.71420  0.18070  0.48529  Biso   1.000  C
  C165     1.0000 0.73110  0.22080  0.50990  Biso   1.000  C
  H65      1.0000 0.76340  0.23650  0.51870  Biso   1.000  H
  C166     1.0000 0.70110  0.23790  0.52180  Biso   1.000  C
  C167     1.0000 0.65380  0.21400  0.50960  Biso   1.000  C
  H66      1.0000 0.63300  0.22510  0.51820  Biso   1.000  H
  C168     1.0000 0.63650  0.17410  0.48510  Biso   1.000  C
  C169     1.0000 0.66770  0.15800  0.47340  Biso   1.000  C
  H67      1.0000 0.65610  0.13050  0.45680  Biso   1.000  H
  C170     1.0000 0.71900  0.28290  0.54480  Biso   1.000  C
  C171     1.0000 0.58860  0.15120  0.47000  Biso   1.000  C
  C172     1.0000 0.55130  0.13450  0.45370  Biso   1.000  C
  C173     1.0000 0.51090  0.11620  0.42676  Biso   1.000  C
  C174     1.0000 0.47330  0.12480  0.43129  Biso   1.000  C
  H68      1.0000 0.47170  0.14090  0.45460  Biso   1.000  H
  C175     1.0000 0.43810  0.11040  0.40256  Biso   1.000  C
  C176     1.0000 0.43929  0.08530  0.36947  Biso   1.000  C
  H69      1.0000 0.41510  0.07540  0.34960  Biso   1.000  H
  C177     1.0000 0.47550  0.07460  0.36496  Biso   1.000  C
  C178     1.0000 0.51140  0.09070  0.39340  Biso   1.000  C
  H70      1.0000 0.53680  0.08420  0.39000  Biso   1.000  H
  C179     1.0000 0.39840  0.12130  0.40784  Biso   1.000  C
  C180     1.0000 0.47750  0.04640  0.33000  Biso   1.000  C
  Fe11     1.0000 0.51937  0.52983  0.79784  Biso   1.000  Fe
  O81      1.0000 0.39894  0.46480  0.77858  Biso   1.000  O
  O82      1.0000 0.45610  0.52025  0.81692  Biso   1.000  O
  O83      1.0000 0.36157  0.63473  0.88021  Biso   1.000  O
  O84      1.0000 0.42477  0.63013  0.89663  Biso   1.000  O
  H71      1.0000 0.43257  0.65573  0.90873  Biso   1.000  H
  O85      1.0000 0.06058  0.46740  0.77533  Biso   1.000  O
  O86      1.0000 0.04030  0.45068  0.71090  Biso   1.000  O
  O87      1.0000 0.11262  0.36749  0.63711  Biso   1.000  O
  O88      1.0000 0.17733  0.37032  0.66353  Biso   1.000  O
  C181     1.0000 0.41457  0.49803  0.80373  Biso   1.000  C
  C182     1.0000 0.38087  0.51403  0.81862  Biso   1.000  C
  C183     1.0000 0.39777  0.55413  0.84323  Biso   1.000  C
  H72      1.0000 0.43007  0.56983  0.85203  Biso   1.000  H
  C184     1.0000 0.36777  0.57123  0.85513  Biso   1.000  C
  C185     1.0000 0.32047  0.54733  0.84293  Biso   1.000  C
  H73      1.0000 0.29967  0.55843  0.85153  Biso   1.000  H
  C186     1.0000 0.30317  0.50743  0.81843  Biso   1.000  C
  C187     1.0000 0.33437  0.49133  0.80673  Biso   1.000  C
  H74      1.0000 0.32277  0.46383  0.79013  Biso   1.000  H
  C188     1.0000 0.38567  0.61623  0.87813  Biso   1.000  C
  C189     1.0000 0.25527  0.48453  0.80333  Biso   1.000  C
  C190     1.0000 0.21797  0.46783  0.78703  Biso   1.000  C
  C191     1.0000 0.17757  0.44953  0.76009  Biso   1.000  C
  C192     1.0000 0.13997  0.45813  0.76462  Biso   1.000  C
  H75      1.0000 0.13837  0.47423  0.78793  Biso   1.000  H
  C193     1.0000 0.10477  0.44373  0.73589  Biso   1.000  C
  C194     1.0000 0.10596  0.41863  0.70280  Biso   1.000  C
  H76      1.0000 0.08177  0.40873  0.68293  Biso   1.000  H
  C195     1.0000 0.14217  0.40793  0.69829  Biso   1.000  C
  C196     1.0000 0.17807  0.42403  0.72673  Biso   1.000  C
  H77      1.0000 0.20347  0.41753  0.72333  Biso   1.000  H
  C197     1.0000 0.06507  0.45463  0.74117  Biso   1.000  C
  C198     1.0000 0.14417  0.37973  0.66333  Biso   1.000  C
  Fe12     1.0000 0.18603  0.86317  0.13118  Biso   1.000  Fe
  O89      1.0000 0.06560  0.79814  0.11192  Biso   1.000  O
  O90      1.0000 0.12276  0.85359  0.15026  Biso   1.000  O
  O91      1.0000 0.02823  0.96807  0.21355  Biso   1.000  O
  O92      1.0000 0.09143  0.96347  0.22997  Biso   1.000  O
  H78      1.0000 0.09923  0.98907  0.24207  Biso   1.000  H
  O93      1.0000 0.72724  0.80074  0.10867  Biso   1.000  O
  O94      1.0000 0.70696  0.78402  0.04424  Biso   1.000  O
  O95      1.0000 0.77928  0.70083  0.97045  Biso   1.000  O
  O96      1.0000 0.84399  0.70366  0.99687  Biso   1.000  O
  C199     1.0000 0.08123  0.83137  0.13707  Biso   1.000  C
  C200     1.0000 0.04753  0.84737  0.15196  Biso   1.000  C
  C201     1.0000 0.06443  0.88747  0.17657  Biso   1.000  C
  H79      1.0000 0.09673  0.90317  0.18537  Biso   1.000  H
  C202     1.0000 0.03443  0.90457  0.18847  Biso   1.000  C
  C203     1.0000 0.98713  0.88067  0.17627  Biso   1.000  C
  H80      1.0000 0.96633  0.89177  0.18487  Biso   1.000  H
  C204     1.0000 0.96983  0.84077  0.15177  Biso   1.000  C
  C205     1.0000 0.00103  0.82467  0.14007  Biso   1.000  C
  H81      1.0000 0.98943  0.79717  0.12347  Biso   1.000  H
  C206     1.0000 0.05233  0.94957  0.21147  Biso   1.000  C
  C207     1.0000 0.92193  0.81787  0.13667  Biso   1.000  C
  C208     1.0000 0.88463  0.80117  0.12037  Biso   1.000  C
  C209     1.0000 0.84423  0.78287  0.09343  Biso   1.000  C
  C210     1.0000 0.80663  0.79147  0.09796  Biso   1.000  C
  H82      1.0000 0.80503  0.80757  0.12127  Biso   1.000  H
  C211     1.0000 0.77143  0.77707  0.06923  Biso   1.000  C
  C212     1.0000 0.77262  0.75197  0.03614  Biso   1.000  C
  H83      1.0000 0.74843  0.74207  0.01627  Biso   1.000  H
  C213     1.0000 0.80883  0.74127  0.03163  Biso   1.000  C
  C214     1.0000 0.84473  0.75737  0.06007  Biso   1.000  C
  H84      1.0000 0.87013  0.75087  0.05667  Biso   1.000  H
  C215     1.0000 0.73173  0.78797  0.07451  Biso   1.000  C
  C216     1.0000 0.81083  0.71307  0.99667  Biso   1.000  C
  Fe13     1.0000 0.34380  0.14730  0.46451  Biso   1.000  Fe
  O97      1.0000 0.39920  0.26773  0.44525  Biso   1.000  O
  O98      1.0000 0.39749  0.21057  0.48359  Biso   1.000  O
  O99      1.0000 0.60650  0.30510  0.54688  Biso   1.000  O
  O100     1.0000 0.53870  0.24190  0.56330  Biso   1.000  O
  H85      1.0000 0.55650  0.23410  0.57540  Biso   1.000  H
  O101     1.0000 0.74016  0.60609  0.44200  Biso   1.000  O
  O102     1.0000 0.74372  0.62637  0.37757  Biso   1.000  O
  O103     1.0000 0.58821  0.55405  0.30378  Biso   1.000  O
  O104     1.0000 0.52633  0.48934  0.33020  Biso   1.000  O
  C217     1.0000 0.41680  0.25210  0.47040  Biso   1.000  C
  C218     1.0000 0.46650  0.28580  0.48529  Biso   1.000  C
  C219     1.0000 0.48970  0.26890  0.50990  Biso   1.000  C
  H86      1.0000 0.47310  0.23660  0.51870  Biso   1.000  H
  C220     1.0000 0.53680  0.29890  0.52180  Biso   1.000  C
  C221     1.0000 0.56020  0.34620  0.50960  Biso   1.000  C
  H87      1.0000 0.59210  0.36700  0.51820  Biso   1.000  H
  C222     1.0000 0.53760  0.36350  0.48510  Biso   1.000  C
  C223     1.0000 0.49030  0.33230  0.47340  Biso   1.000  C
  H88      1.0000 0.47440  0.34390  0.45680  Biso   1.000  H
  C224     1.0000 0.56390  0.28100  0.54480  Biso   1.000  C
  C225     1.0000 0.56260  0.41140  0.47000  Biso   1.000  C
  C226     1.0000 0.58320  0.44870  0.45370  Biso   1.000  C
  C227     1.0000 0.60530  0.48910  0.42676  Biso   1.000  C
  C228     1.0000 0.65150  0.52670  0.43129  Biso   1.000  C
  H89      1.0000 0.66920  0.52830  0.45460  Biso   1.000  H
  C229     1.0000 0.67230  0.56190  0.40256  Biso   1.000  C
  C230     1.0000 0.64601  0.56071  0.36947  Biso   1.000  C
  H90      1.0000 0.66030  0.58490  0.34960  Biso   1.000  H
  C231     1.0000 0.59910  0.52450  0.36496  Biso   1.000  C
  C232     1.0000 0.57930  0.48860  0.39340  Biso   1.000  C
  H91      1.0000 0.54740  0.46320  0.39000  Biso   1.000  H
  C233     1.0000 0.72290  0.60160  0.40784  Biso   1.000  C
  C234     1.0000 0.56890  0.52250  0.33000  Biso   1.000  C
  Fe14     1.0000 0.01047  0.48063  0.79784  Biso   1.000  Fe
  O105     1.0000 0.06587  0.60106  0.77858  Biso   1.000  O
  O106     1.0000 0.06416  0.54390  0.81692  Biso   1.000  O
  O107     1.0000 0.27317  0.63843  0.88021  Biso   1.000  O
  O108     1.0000 0.20537  0.57523  0.89663  Biso   1.000  O
  H92      1.0000 0.22317  0.56743  0.90873  Biso   1.000  H
  O109     1.0000 0.40683  0.93942  0.77533  Biso   1.000  O
  O110     1.0000 0.41039  0.95970  0.71090  Biso   1.000  O
  O111     1.0000 0.25488  0.88738  0.63711  Biso   1.000  O
  O112     1.0000 0.19300  0.82267  0.66353  Biso   1.000  O
  C235     1.0000 0.08347  0.58543  0.80373  Biso   1.000  C
  C236     1.0000 0.13317  0.61913  0.81862  Biso   1.000  C
  C237     1.0000 0.15637  0.60223  0.84323  Biso   1.000  C
  H93      1.0000 0.13977  0.56993  0.85203  Biso   1.000  H
  C238     1.0000 0.20347  0.63223  0.85513  Biso   1.000  C
  C239     1.0000 0.22687  0.67953  0.84293  Biso   1.000  C
  H94      1.0000 0.25877  0.70033  0.85153  Biso   1.000  H
  C240     1.0000 0.20427  0.69683  0.81843  Biso   1.000  C
  C241     1.0000 0.15697  0.66563  0.80673  Biso   1.000  C
  H95      1.0000 0.14107  0.67723  0.79013  Biso   1.000  H
  C242     1.0000 0.23057  0.61433  0.87813  Biso   1.000  C
  C243     1.0000 0.22927  0.74473  0.80333  Biso   1.000  C
  C244     1.0000 0.24987  0.78203  0.78703  Biso   1.000  C
  C245     1.0000 0.27197  0.82243  0.76009  Biso   1.000  C
  C246     1.0000 0.31817  0.86003  0.76462  Biso   1.000  C
  H96      1.0000 0.33587  0.86163  0.78793  Biso   1.000  H
  C247     1.0000 0.33897  0.89523  0.73589  Biso   1.000  C
  C248     1.0000 0.31268  0.89404  0.70280  Biso   1.000  C
  H97      1.0000 0.32697  0.91823  0.68293  Biso   1.000  H
  C249     1.0000 0.26577  0.85783  0.69829  Biso   1.000  C
  C250     1.0000 0.24597  0.82193  0.72673  Biso   1.000  C
  H98      1.0000 0.21407  0.79653  0.72333  Biso   1.000  H
  C251     1.0000 0.38957  0.93493  0.74117  Biso   1.000  C
  C252     1.0000 0.23557  0.85583  0.66333  Biso   1.000  C
  Fe15     1.0000 0.67713  0.81397  0.13118  Biso   1.000  Fe
  O113     1.0000 0.73253  0.93440  0.11192  Biso   1.000  O
  O114     1.0000 0.73082  0.87724  0.15026  Biso   1.000  O
  O115     1.0000 0.93983  0.97177  0.21355  Biso   1.000  O
  O116     1.0000 0.87203  0.90857  0.22997  Biso   1.000  O
  H99      1.0000 0.88983  0.90077  0.24207  Biso   1.000  H
  O117     1.0000 0.07349  0.27276  0.10867  Biso   1.000  O
  O118     1.0000 0.07705  0.29304  0.04424  Biso   1.000  O
  O119     1.0000 0.92154  0.22072  0.97045  Biso   1.000  O
  O120     1.0000 0.85966  0.15601  0.99687  Biso   1.000  O
  C253     1.0000 0.75013  0.91877  0.13707  Biso   1.000  C
  C254     1.0000 0.79983  0.95247  0.15196  Biso   1.000  C
  C255     1.0000 0.82303  0.93557  0.17657  Biso   1.000  C
  H100     1.0000 0.80643  0.90327  0.18537  Biso   1.000  H
  C256     1.0000 0.87013  0.96557  0.18847  Biso   1.000  C
  C257     1.0000 0.89353  0.01287  0.17627  Biso   1.000  C
  H101     1.0000 0.92543  0.03367  0.18487  Biso   1.000  H
  C258     1.0000 0.87093  0.03017  0.15177  Biso   1.000  C
  C259     1.0000 0.82363  0.99897  0.14007  Biso   1.000  C
  H102     1.0000 0.80773  0.01057  0.12347  Biso   1.000  H
  C260     1.0000 0.89723  0.94767  0.21147  Biso   1.000  C
  C261     1.0000 0.89593  0.07807  0.13667  Biso   1.000  C
  C262     1.0000 0.91653  0.11537  0.12037  Biso   1.000  C
  C263     1.0000 0.93863  0.15577  0.09343  Biso   1.000  C
  C264     1.0000 0.98483  0.19337  0.09796  Biso   1.000  C
  H103     1.0000 0.00253  0.19497  0.12127  Biso   1.000  H
  C265     1.0000 0.00563  0.22857  0.06923  Biso   1.000  C
  C266     1.0000 0.97934  0.22738  0.03614  Biso   1.000  C
  H104     1.0000 0.99363  0.25157  0.01627  Biso   1.000  H
  C267     1.0000 0.93243  0.19117  0.03163  Biso   1.000  C
  C268     1.0000 0.91263  0.15527  0.06007  Biso   1.000  C
  H105     1.0000 0.88073  0.12987  0.05667  Biso   1.000  H
  C269     1.0000 0.05623  0.26827  0.07451  Biso   1.000  C
  C270     1.0000 0.90223  0.18917  0.99667  Biso   1.000  C
  Fe16     1.0000 0.80350  0.65620  0.46451  Biso   1.000  Fe
  O121     1.0000 0.86853  0.60080  0.44525  Biso   1.000  O
  O122     1.0000 0.81308  0.60251  0.48359  Biso   1.000  O
  O123     1.0000 0.69860  0.39350  0.54688  Biso   1.000  O
  O124     1.0000 0.70320  0.46130  0.56330  Biso   1.000  O
  H106     1.0000 0.67760  0.44350  0.57540  Biso   1.000  H
  O125     1.0000 0.86593  0.25984  0.44200  Biso   1.000  O
  O126     1.0000 0.88265  0.25628  0.37757  Biso   1.000  O
  O127     1.0000 0.96584  0.41179  0.30378  Biso   1.000  O
  O128     1.0000 0.96301  0.47367  0.33020  Biso   1.000  O
  C271     1.0000 0.83530  0.58320  0.47040  Biso   1.000  C
  C272     1.0000 0.81930  0.53350  0.48529  Biso   1.000  C
  C273     1.0000 0.77920  0.51030  0.50990  Biso   1.000  C
  H107     1.0000 0.76350  0.52690  0.51870  Biso   1.000  H
  C274     1.0000 0.76210  0.46320  0.52180  Biso   1.000  C
  C275     1.0000 0.78600  0.43980  0.50960  Biso   1.000  C
  H108     1.0000 0.77490  0.40790  0.51820  Biso   1.000  H
  C276     1.0000 0.82590  0.46240  0.48510  Biso   1.000  C
  C277     1.0000 0.84200  0.50970  0.47340  Biso   1.000  C
  H109     1.0000 0.86950  0.52560  0.45680  Biso   1.000  H
  C278     1.0000 0.71710  0.43610  0.54480  Biso   1.000  C
  C279     1.0000 0.84880  0.43740  0.47000  Biso   1.000  C
  C280     1.0000 0.86550  0.41680  0.45370  Biso   1.000  C
  C281     1.0000 0.88380  0.39470  0.42676  Biso   1.000  C
  C282     1.0000 0.87520  0.34850  0.43129  Biso   1.000  C
  H110     1.0000 0.85910  0.33080  0.45460  Biso   1.000  H
  C283     1.0000 0.88960  0.32770  0.40256  Biso   1.000  C
  C284     1.0000 0.91470  0.35399  0.36947  Biso   1.000  C
  H111     1.0000 0.92460  0.33970  0.34960  Biso   1.000  H
  C285     1.0000 0.92540  0.40090  0.36496  Biso   1.000  C
  C286     1.0000 0.90930  0.42070  0.39340  Biso   1.000  C
  H112     1.0000 0.91580  0.45260  0.39000  Biso   1.000  H
  C287     1.0000 0.87870  0.27710  0.40784  Biso   1.000  C
  C288     1.0000 0.95360  0.43110  0.33000  Biso   1.000  C
  Fe17     1.0000 0.47017  0.98953  0.79784  Biso   1.000  Fe
  O129     1.0000 0.53520  0.93413  0.77858  Biso   1.000  O
  O130     1.0000 0.47975  0.93584  0.81692  Biso   1.000  O
  O131     1.0000 0.36527  0.72683  0.88021  Biso   1.000  O
  O132     1.0000 0.36987  0.79463  0.89663  Biso   1.000  O
  H113     1.0000 0.34427  0.77683  0.90873  Biso   1.000  H
  O133     1.0000 0.53260  0.59317  0.77533  Biso   1.000  O
  O134     1.0000 0.54932  0.58961  0.71090  Biso   1.000  O
  O135     1.0000 0.63251  0.74512  0.63711  Biso   1.000  O
  O136     1.0000 0.62968  0.80700  0.66353  Biso   1.000  O
  C289     1.0000 0.50197  0.91653  0.80373  Biso   1.000  C
  C290     1.0000 0.48597  0.86683  0.81862  Biso   1.000  C
  C291     1.0000 0.44587  0.84363  0.84323  Biso   1.000  C
  H114     1.0000 0.43017  0.86023  0.85203  Biso   1.000  H
  C292     1.0000 0.42877  0.79653  0.85513  Biso   1.000  C
  C293     1.0000 0.45267  0.77313  0.84293  Biso   1.000  C
  H115     1.0000 0.44157  0.74123  0.85153  Biso   1.000  H
  C294     1.0000 0.49257  0.79573  0.81843  Biso   1.000  C
  C295     1.0000 0.50867  0.84303  0.80673  Biso   1.000  C
  H116     1.0000 0.53617  0.85893  0.79013  Biso   1.000  H
  C296     1.0000 0.38377  0.76943  0.87813  Biso   1.000  C
  C297     1.0000 0.51547  0.77073  0.80333  Biso   1.000  C
  C298     1.0000 0.53217  0.75013  0.78703  Biso   1.000  C
  C299     1.0000 0.55047  0.72803  0.76009  Biso   1.000  C
  C300     1.0000 0.54187  0.68183  0.76462  Biso   1.000  C
  H117     1.0000 0.52577  0.66413  0.78793  Biso   1.000  H
  C301     1.0000 0.55627  0.66103  0.73589  Biso   1.000  C
  C302     1.0000 0.58137  0.68732  0.70280  Biso   1.000  C
  H118     1.0000 0.59127  0.67303  0.68293  Biso   1.000  H
  C303     1.0000 0.59207  0.73423  0.69829  Biso   1.000  C
  C304     1.0000 0.57597  0.75403  0.72673  Biso   1.000  C
  H119     1.0000 0.58247  0.78593  0.72333  Biso   1.000  H
  C305     1.0000 0.54537  0.61043  0.74117  Biso   1.000  C
  C306     1.0000 0.62027  0.76443  0.66333  Biso   1.000  C
  Fe18     1.0000 0.13683  0.32287  0.13118  Biso   1.000  Fe
  O137     1.0000 0.20186  0.26747  0.11192  Biso   1.000  O
  O138     1.0000 0.14641  0.26918  0.15026  Biso   1.000  O
  O139     1.0000 0.03193  0.06017  0.21355  Biso   1.000  O
  O140     1.0000 0.03653  0.12797  0.22997  Biso   1.000  O
  H120     1.0000 0.01093  0.11017  0.24207  Biso   1.000  H
  O141     1.0000 0.19926  0.92651  0.10867  Biso   1.000  O
  O142     1.0000 0.21598  0.92295  0.04424  Biso   1.000  O
  O143     1.0000 0.29917  0.07846  0.97045  Biso   1.000  O
  O144     1.0000 0.29634  0.14034  0.99687  Biso   1.000  O
  C307     1.0000 0.16863  0.24987  0.13707  Biso   1.000  C
  C308     1.0000 0.15263  0.20017  0.15196  Biso   1.000  C
  C309     1.0000 0.11253  0.17697  0.17657  Biso   1.000  C
  H121     1.0000 0.09683  0.19357  0.18537  Biso   1.000  H
  C310     1.0000 0.09543  0.12987  0.18847  Biso   1.000  C
  C311     1.0000 0.11933  0.10647  0.17627  Biso   1.000  C
  H122     1.0000 0.10823  0.07457  0.18487  Biso   1.000  H
  C312     1.0000 0.15923  0.12907  0.15177  Biso   1.000  C
  C313     1.0000 0.17533  0.17637  0.14007  Biso   1.000  C
  H123     1.0000 0.20283  0.19227  0.12347  Biso   1.000  H
  C314     1.0000 0.05043  0.10277  0.21147  Biso   1.000  C
  C315     1.0000 0.18213  0.10407  0.13667  Biso   1.000  C
  C316     1.0000 0.19883  0.08347  0.12037  Biso   1.000  C
  C317     1.0000 0.21713  0.06137  0.09343  Biso   1.000  C
  C318     1.0000 0.20853  0.01517  0.09796  Biso   1.000  C
  H124     1.0000 0.19243  0.99747  0.12127  Biso   1.000  H
  C319     1.0000 0.22293  0.99437  0.06923  Biso   1.000  C
  C320     1.0000 0.24803  0.02066  0.03614  Biso   1.000  C
  H125     1.0000 0.25793  0.00637  0.01627  Biso   1.000  H
  C321     1.0000 0.25873  0.06757  0.03163  Biso   1.000  C
  C322     1.0000 0.24263  0.08737  0.06007  Biso   1.000  C
  H126     1.0000 0.24913  0.11927  0.05667  Biso   1.000  H
  C323     1.0000 0.21203  0.94377  0.07451  Biso   1.000  C
  C324     1.0000 0.28693  0.09777  0.99667  Biso   1.000  C
  Fe19     1.0000 0.80350  0.14730  0.96451  Biso   1.000  Fe
  O145     1.0000 0.86853  0.26773  0.94525  Biso   1.000  O
  O146     1.0000 0.81308  0.21057  0.98359  Biso   1.000  O
  O147     1.0000 0.69860  0.30510  0.04688  Biso   1.000  O
  O148     1.0000 0.70320  0.24190  0.06330  Biso   1.000  O
  H127     1.0000 0.67760  0.23410  0.07540  Biso   1.000  H
  O149     1.0000 0.86593  0.60609  0.94200  Biso   1.000  O
  O150     1.0000 0.88265  0.62637  0.87757  Biso   1.000  O
  O151     1.0000 0.96584  0.55405  0.80378  Biso   1.000  O
  O152     1.0000 0.96301  0.48934  0.83020  Biso   1.000  O
  C325     1.0000 0.83530  0.25210  0.97040  Biso   1.000  C
  C326     1.0000 0.81930  0.28580  0.98529  Biso   1.000  C
  C327     1.0000 0.77920  0.26890  0.00990  Biso   1.000  C
  H128     1.0000 0.76350  0.23660  0.01870  Biso   1.000  H
  C328     1.0000 0.76210  0.29890  0.02180  Biso   1.000  C
  C329     1.0000 0.78600  0.34620  0.00960  Biso   1.000  C
  H129     1.0000 0.77490  0.36700  0.01820  Biso   1.000  H
  C330     1.0000 0.82590  0.36350  0.98510  Biso   1.000  C
  C331     1.0000 0.84200  0.33230  0.97340  Biso   1.000  C
  H130     1.0000 0.86950  0.34390  0.95680  Biso   1.000  H
  C332     1.0000 0.71710  0.28100  0.04480  Biso   1.000  C
  C333     1.0000 0.84880  0.41140  0.97000  Biso   1.000  C
  C334     1.0000 0.86550  0.44870  0.95370  Biso   1.000  C
  C335     1.0000 0.88380  0.48910  0.92676  Biso   1.000  C
  C336     1.0000 0.87520  0.52670  0.93129  Biso   1.000  C
  H131     1.0000 0.85910  0.52830  0.95460  Biso   1.000  H
  C337     1.0000 0.88960  0.56190  0.90256  Biso   1.000  C
  C338     1.0000 0.91470  0.56071  0.86947  Biso   1.000  C
  H132     1.0000 0.92460  0.58490  0.84960  Biso   1.000  H
  C339     1.0000 0.92540  0.52450  0.86496  Biso   1.000  C
  C340     1.0000 0.90930  0.48860  0.89340  Biso   1.000  C
  H133     1.0000 0.91580  0.46320  0.89000  Biso   1.000  H
  C341     1.0000 0.87870  0.60160  0.90784  Biso   1.000  C
  C342     1.0000 0.95360  0.52250  0.83000  Biso   1.000  C
  Fe20     1.0000 0.47017  0.48063  0.29784  Biso   1.000  Fe
  O153     1.0000 0.53520  0.60106  0.27858  Biso   1.000  O
  O154     1.0000 0.47975  0.54390  0.31692  Biso   1.000  O
  O155     1.0000 0.36527  0.63843  0.38021  Biso   1.000  O
  O156     1.0000 0.36987  0.57523  0.39663  Biso   1.000  O
  H134     1.0000 0.34427  0.56743  0.40873  Biso   1.000  H
  O157     1.0000 0.53260  0.93942  0.27533  Biso   1.000  O
  O158     1.0000 0.54932  0.95970  0.21090  Biso   1.000  O
  O159     1.0000 0.63251  0.88738  0.13711  Biso   1.000  O
  O160     1.0000 0.62968  0.82267  0.16353  Biso   1.000  O
  C343     1.0000 0.50197  0.58543  0.30373  Biso   1.000  C
  C344     1.0000 0.48597  0.61913  0.31862  Biso   1.000  C
  C345     1.0000 0.44587  0.60223  0.34323  Biso   1.000  C
  H135     1.0000 0.43017  0.56993  0.35203  Biso   1.000  H
  C346     1.0000 0.42877  0.63223  0.35513  Biso   1.000  C
  C347     1.0000 0.45267  0.67953  0.34293  Biso   1.000  C
  H136     1.0000 0.44157  0.70033  0.35153  Biso   1.000  H
  C348     1.0000 0.49257  0.69683  0.31843  Biso   1.000  C
  C349     1.0000 0.50867  0.66563  0.30673  Biso   1.000  C
  H137     1.0000 0.53617  0.67723  0.29013  Biso   1.000  H
  C350     1.0000 0.38377  0.61433  0.37813  Biso   1.000  C
  C351     1.0000 0.51547  0.74473  0.30333  Biso   1.000  C
  C352     1.0000 0.53217  0.78203  0.28703  Biso   1.000  C
  C353     1.0000 0.55047  0.82243  0.26009  Biso   1.000  C
  C354     1.0000 0.54187  0.86003  0.26462  Biso   1.000  C
  H138     1.0000 0.52577  0.86163  0.28793  Biso   1.000  H
  C355     1.0000 0.55627  0.89523  0.23589  Biso   1.000  C
  C356     1.0000 0.58137  0.89404  0.20280  Biso   1.000  C
  H139     1.0000 0.59127  0.91823  0.18293  Biso   1.000  H
  C357     1.0000 0.59207  0.85783  0.19829  Biso   1.000  C
  C358     1.0000 0.57597  0.82193  0.22673  Biso   1.000  C
  H140     1.0000 0.58247  0.79653  0.22333  Biso   1.000  H
  C359     1.0000 0.54537  0.93493  0.24117  Biso   1.000  C
  C360     1.0000 0.62027  0.85583  0.16333  Biso   1.000  C
  Fe21     1.0000 0.13683  0.81397  0.63118  Biso   1.000  Fe
  O161     1.0000 0.20186  0.93440  0.61192  Biso   1.000  O
  O162     1.0000 0.14641  0.87724  0.65026  Biso   1.000  O
  O163     1.0000 0.03193  0.97177  0.71355  Biso   1.000  O
  O164     1.0000 0.03653  0.90857  0.72997  Biso   1.000  O
  H141     1.0000 0.01093  0.90077  0.74207  Biso   1.000  H
  O165     1.0000 0.19926  0.27276  0.60867  Biso   1.000  O
  O166     1.0000 0.21598  0.29304  0.54424  Biso   1.000  O
  O167     1.0000 0.29917  0.22072  0.47045  Biso   1.000  O
  O168     1.0000 0.29634  0.15601  0.49687  Biso   1.000  O
  C361     1.0000 0.16863  0.91877  0.63707  Biso   1.000  C
  C362     1.0000 0.15263  0.95247  0.65196  Biso   1.000  C
  C363     1.0000 0.11253  0.93557  0.67657  Biso   1.000  C
  H142     1.0000 0.09683  0.90327  0.68537  Biso   1.000  H
  C364     1.0000 0.09543  0.96557  0.68847  Biso   1.000  C
  C365     1.0000 0.11933  0.01287  0.67627  Biso   1.000  C
  H143     1.0000 0.10823  0.03367  0.68487  Biso   1.000  H
  C366     1.0000 0.15923  0.03017  0.65177  Biso   1.000  C
  C367     1.0000 0.17533  0.99897  0.64007  Biso   1.000  C
  H144     1.0000 0.20283  0.01057  0.62347  Biso   1.000  H
  C368     1.0000 0.05043  0.94767  0.71147  Biso   1.000  C
  C369     1.0000 0.18213  0.07807  0.63667  Biso   1.000  C
  C370     1.0000 0.19883  0.11537  0.62037  Biso   1.000  C
  C371     1.0000 0.21713  0.15577  0.59343  Biso   1.000  C
  C372     1.0000 0.20853  0.19337  0.59796  Biso   1.000  C
  H145     1.0000 0.19243  0.19497  0.62127  Biso   1.000  H
  C373     1.0000 0.22293  0.22857  0.56923  Biso   1.000  C
  C374     1.0000 0.24803  0.22738  0.53614  Biso   1.000  C
  H146     1.0000 0.25793  0.25157  0.51627  Biso   1.000  H
  C375     1.0000 0.25873  0.19117  0.53163  Biso   1.000  C
  C376     1.0000 0.24263  0.15527  0.56007  Biso   1.000  C
  H147     1.0000 0.24913  0.12987  0.55667  Biso   1.000  H
  C377     1.0000 0.21203  0.26827  0.57451  Biso   1.000  C
  C378     1.0000 0.28693  0.18917  0.49667  Biso   1.000  C
  Fe22     1.0000 0.85270  0.65620  0.96451  Biso   1.000  Fe
  O169     1.0000 0.73227  0.60080  0.94525  Biso   1.000  O
  O170     1.0000 0.78943  0.60251  0.98359  Biso   1.000  O
  O171     1.0000 0.69490  0.39350  0.04688  Biso   1.000  O
  O172     1.0000 0.75810  0.46130  0.06330  Biso   1.000  O
  H148     1.0000 0.76590  0.44350  0.07540  Biso   1.000  H
  O173     1.0000 0.39391  0.25984  0.94200  Biso   1.000  O
  O174     1.0000 0.37363  0.25628  0.87757  Biso   1.000  O
  O175     1.0000 0.44595  0.41179  0.80378  Biso   1.000  O
  O176     1.0000 0.51066  0.47367  0.83020  Biso   1.000  O
  C379     1.0000 0.74790  0.58320  0.97040  Biso   1.000  C
  C380     1.0000 0.71420  0.53350  0.98529  Biso   1.000  C
  C381     1.0000 0.73110  0.51030  0.00990  Biso   1.000  C
  H149     1.0000 0.76340  0.52690  0.01870  Biso   1.000  H
  C382     1.0000 0.70110  0.46320  0.02180  Biso   1.000  C
  C383     1.0000 0.65380  0.43980  0.00960  Biso   1.000  C
  H150     1.0000 0.63300  0.40790  0.01820  Biso   1.000  H
  C384     1.0000 0.63650  0.46240  0.98510  Biso   1.000  C
  C385     1.0000 0.66770  0.50970  0.97340  Biso   1.000  C
  H151     1.0000 0.65610  0.52560  0.95680  Biso   1.000  H
  C386     1.0000 0.71900  0.43610  0.04480  Biso   1.000  C
  C387     1.0000 0.58860  0.43740  0.97000  Biso   1.000  C
  C388     1.0000 0.55130  0.41680  0.95370  Biso   1.000  C
  C389     1.0000 0.51090  0.39470  0.92676  Biso   1.000  C
  C390     1.0000 0.47330  0.34850  0.93129  Biso   1.000  C
  H152     1.0000 0.47170  0.33080  0.95460  Biso   1.000  H
  C391     1.0000 0.43810  0.32770  0.90256  Biso   1.000  C
  C392     1.0000 0.43929  0.35399  0.86947  Biso   1.000  C
  H153     1.0000 0.41510  0.33970  0.84960  Biso   1.000  H
  C393     1.0000 0.47550  0.40090  0.86496  Biso   1.000  C
  C394     1.0000 0.51140  0.42070  0.89340  Biso   1.000  C
  H154     1.0000 0.53680  0.45260  0.89000  Biso   1.000  H
  C395     1.0000 0.39840  0.27710  0.90784  Biso   1.000  C
  C396     1.0000 0.47750  0.43110  0.83000  Biso   1.000  C
  Fe23     1.0000 0.51937  0.98953  0.29784  Biso   1.000  Fe
  O177     1.0000 0.39894  0.93413  0.27858  Biso   1.000  O
  O178     1.0000 0.45610  0.93584  0.31692  Biso   1.000  O
  O179     1.0000 0.36157  0.72683  0.38021  Biso   1.000  O
  O180     1.0000 0.42477  0.79463  0.39663  Biso   1.000  O
  H155     1.0000 0.43257  0.77683  0.40873  Biso   1.000  H
  O181     1.0000 0.06058  0.59317  0.27533  Biso   1.000  O
  O182     1.0000 0.04030  0.58961  0.21090  Biso   1.000  O
  O183     1.0000 0.11262  0.74512  0.13711  Biso   1.000  O
  O184     1.0000 0.17733  0.80700  0.16353  Biso   1.000  O
  C397     1.0000 0.41457  0.91653  0.30373  Biso   1.000  C
  C398     1.0000 0.38087  0.86683  0.31862  Biso   1.000  C
  C399     1.0000 0.39777  0.84363  0.34323  Biso   1.000  C
  H156     1.0000 0.43007  0.86023  0.35203  Biso   1.000  H
  C400     1.0000 0.36777  0.79653  0.35513  Biso   1.000  C
  C401     1.0000 0.32047  0.77313  0.34293  Biso   1.000  C
  H157     1.0000 0.29967  0.74123  0.35153  Biso   1.000  H
  C402     1.0000 0.30317  0.79573  0.31843  Biso   1.000  C
  C403     1.0000 0.33437  0.84303  0.30673  Biso   1.000  C
  H158     1.0000 0.32277  0.85893  0.29013  Biso   1.000  H
  C404     1.0000 0.38567  0.76943  0.37813  Biso   1.000  C
  C405     1.0000 0.25527  0.77073  0.30333  Biso   1.000  C
  C406     1.0000 0.21797  0.75013  0.28703  Biso   1.000  C
  C407     1.0000 0.17757  0.72803  0.26009  Biso   1.000  C
  C408     1.0000 0.13997  0.68183  0.26462  Biso   1.000  C
  H159     1.0000 0.13837  0.66413  0.28793  Biso   1.000  H
  C409     1.0000 0.10477  0.66103  0.23589  Biso   1.000  C
  C410     1.0000 0.10596  0.68732  0.20280  Biso   1.000  C
  H160     1.0000 0.08177  0.67303  0.18293  Biso   1.000  H
  C411     1.0000 0.14217  0.73423  0.19829  Biso   1.000  C
  C412     1.0000 0.17807  0.75403  0.22673  Biso   1.000  C
  H161     1.0000 0.20347  0.78593  0.22333  Biso   1.000  H
  C413     1.0000 0.06507  0.61043  0.24117  Biso   1.000  C
  C414     1.0000 0.14417  0.76443  0.16333  Biso   1.000  C
  Fe24     1.0000 0.18603  0.32287  0.63118  Biso   1.000  Fe
  O185     1.0000 0.06560  0.26747  0.61192  Biso   1.000  O
  O186     1.0000 0.12276  0.26918  0.65026  Biso   1.000  O
  O187     1.0000 0.02823  0.06017  0.71355  Biso   1.000  O
  O188     1.0000 0.09143  0.12797  0.72997  Biso   1.000  O
  H162     1.0000 0.09923  0.11017  0.74207  Biso   1.000  H
  O189     1.0000 0.72724  0.92651  0.60867  Biso   1.000  O
  O190     1.0000 0.70696  0.92295  0.54424  Biso   1.000  O
  O191     1.0000 0.77928  0.07846  0.47045  Biso   1.000  O
  O192     1.0000 0.84399  0.14034  0.49687  Biso   1.000  O
  C415     1.0000 0.08123  0.24987  0.63707  Biso   1.000  C
  C416     1.0000 0.04753  0.20017  0.65196  Biso   1.000  C
  C417     1.0000 0.06443  0.17697  0.67657  Biso   1.000  C
  H163     1.0000 0.09673  0.19357  0.68537  Biso   1.000  H
  C418     1.0000 0.03443  0.12987  0.68847  Biso   1.000  C
  C419     1.0000 0.98713  0.10647  0.67627  Biso   1.000  C
  H164     1.0000 0.96633  0.07457  0.68487  Biso   1.000  H
  C420     1.0000 0.96983  0.12907  0.65177  Biso   1.000  C
  C421     1.0000 0.00103  0.17637  0.64007  Biso   1.000  C
  H165     1.0000 0.98943  0.19227  0.62347  Biso   1.000  H
  C422     1.0000 0.05233  0.10277  0.71147  Biso   1.000  C
  C423     1.0000 0.92193  0.10407  0.63667  Biso   1.000  C
  C424     1.0000 0.88463  0.08347  0.62037  Biso   1.000  C
  C425     1.0000 0.84423  0.06137  0.59343  Biso   1.000  C
  C426     1.0000 0.80663  0.01517  0.59796  Biso   1.000  C
  H166     1.0000 0.80503  0.99747  0.62127  Biso   1.000  H
  C427     1.0000 0.77143  0.99437  0.56923  Biso   1.000  C
  C428     1.0000 0.77262  0.02066  0.53614  Biso   1.000  C
  H167     1.0000 0.74843  0.00637  0.51627  Biso   1.000  H
  C429     1.0000 0.80883  0.06757  0.53163  Biso   1.000  C
  C430     1.0000 0.84473  0.08737  0.56007  Biso   1.000  C
  H168     1.0000 0.87013  0.11927  0.55667  Biso   1.000  H
  C431     1.0000 0.73173  0.94377  0.57451  Biso   1.000  C
  C432     1.0000 0.81083  0.09777  0.49667  Biso   1.000  C
  Fe25     1.0000 0.34380  0.19650  0.96451  Biso   1.000  Fe
  O193     1.0000 0.39920  0.13147  0.94525  Biso   1.000  O
  O194     1.0000 0.39749  0.18692  0.98359  Biso   1.000  O
  O195     1.0000 0.60650  0.30140  0.04688  Biso   1.000  O
  O196     1.0000 0.53870  0.29680  0.06330  Biso   1.000  O
  H169     1.0000 0.55650  0.32240  0.07540  Biso   1.000  H
  O197     1.0000 0.74016  0.13407  0.94200  Biso   1.000  O
  O198     1.0000 0.74372  0.11735  0.87757  Biso   1.000  O
  O199     1.0000 0.58821  0.03416  0.80378  Biso   1.000  O
  O200     1.0000 0.52633  0.03699  0.83020  Biso   1.000  O
  C433     1.0000 0.41680  0.16470  0.97040  Biso   1.000  C
  C434     1.0000 0.46650  0.18070  0.98529  Biso   1.000  C
  C435     1.0000 0.48970  0.22080  0.00990  Biso   1.000  C
  H170     1.0000 0.47310  0.23650  0.01870  Biso   1.000  H
  C436     1.0000 0.53680  0.23790  0.02180  Biso   1.000  C
  C437     1.0000 0.56020  0.21400  0.00960  Biso   1.000  C
  H171     1.0000 0.59210  0.22510  0.01820  Biso   1.000  H
  C438     1.0000 0.53760  0.17410  0.98510  Biso   1.000  C
  C439     1.0000 0.49030  0.15800  0.97340  Biso   1.000  C
  H172     1.0000 0.47440  0.13050  0.95680  Biso   1.000  H
  C440     1.0000 0.56390  0.28290  0.04480  Biso   1.000  C
  C441     1.0000 0.56260  0.15120  0.97000  Biso   1.000  C
  C442     1.0000 0.58320  0.13450  0.95370  Biso   1.000  C
  C443     1.0000 0.60530  0.11620  0.92676  Biso   1.000  C
  C444     1.0000 0.65150  0.12480  0.93129  Biso   1.000  C
  H173     1.0000 0.66920  0.14090  0.95460  Biso   1.000  H
  C445     1.0000 0.67230  0.11040  0.90256  Biso   1.000  C
  C446     1.0000 0.64601  0.08530  0.86947  Biso   1.000  C
  H174     1.0000 0.66030  0.07540  0.84960  Biso   1.000  H
  C447     1.0000 0.59910  0.07460  0.86496  Biso   1.000  C
  C448     1.0000 0.57930  0.09070  0.89340  Biso   1.000  C
  H175     1.0000 0.54740  0.08420  0.89000  Biso   1.000  H
  C449     1.0000 0.72290  0.12130  0.90784  Biso   1.000  C
  C450     1.0000 0.56890  0.04640  0.83000  Biso   1.000  C
  Fe26     1.0000 0.01047  0.52983  0.29784  Biso   1.000  Fe
  O201     1.0000 0.06587  0.46480  0.27858  Biso   1.000  O
  O202     1.0000 0.06416  0.52025  0.31692  Biso   1.000  O
  O203     1.0000 0.27317  0.63473  0.38021  Biso   1.000  O
  O204     1.0000 0.20537  0.63013  0.39663  Biso   1.000  O
  H176     1.0000 0.22317  0.65573  0.40873  Biso   1.000  H
  O205     1.0000 0.40683  0.46740  0.27533  Biso   1.000  O
  O206     1.0000 0.41039  0.45068  0.21090  Biso   1.000  O
  O207     1.0000 0.25488  0.36749  0.13711  Biso   1.000  O
  O208     1.0000 0.19300  0.37032  0.16353  Biso   1.000  O
  C451     1.0000 0.08347  0.49803  0.30373  Biso   1.000  C
  C452     1.0000 0.13317  0.51403  0.31862  Biso   1.000  C
  C453     1.0000 0.15637  0.55413  0.34323  Biso   1.000  C
  H177     1.0000 0.13977  0.56983  0.35203  Biso   1.000  H
  C454     1.0000 0.20347  0.57123  0.35513  Biso   1.000  C
  C455     1.0000 0.22687  0.54733  0.34293  Biso   1.000  C
  H178     1.0000 0.25877  0.55843  0.35153  Biso   1.000  H
  C456     1.0000 0.20427  0.50743  0.31843  Biso   1.000  C
  C457     1.0000 0.15697  0.49133  0.30673  Biso   1.000  C
  H179     1.0000 0.14107  0.46383  0.29013  Biso   1.000  H
  C458     1.0000 0.23057  0.61623  0.37813  Biso   1.000  C
  C459     1.0000 0.22927  0.48453  0.30333  Biso   1.000  C
  C460     1.0000 0.24987  0.46783  0.28703  Biso   1.000  C
  C461     1.0000 0.27197  0.44953  0.26009  Biso   1.000  C
  C462     1.0000 0.31817  0.45813  0.26462  Biso   1.000  C
  H180     1.0000 0.33587  0.47423  0.28793  Biso   1.000  H
  C463     1.0000 0.33897  0.44373  0.23589  Biso   1.000  C
  C464     1.0000 0.31268  0.41863  0.20280  Biso   1.000  C
  H181     1.0000 0.32697  0.40873  0.18293  Biso   1.000  H
  C465     1.0000 0.26577  0.40793  0.19829  Biso   1.000  C
  C466     1.0000 0.24597  0.42403  0.22673  Biso   1.000  C
  H182     1.0000 0.21407  0.41753  0.22333  Biso   1.000  H
  C467     1.0000 0.38957  0.45463  0.24117  Biso   1.000  C
  C468     1.0000 0.23557  0.37973  0.16333  Biso   1.000  C
  Fe27     1.0000 0.67713  0.86317  0.63118  Biso   1.000  Fe
  O209     1.0000 0.73253  0.79814  0.61192  Biso   1.000  O
  O210     1.0000 0.73082  0.85359  0.65026  Biso   1.000  O
  O211     1.0000 0.93983  0.96807  0.71355  Biso   1.000  O
  O212     1.0000 0.87203  0.96347  0.72997  Biso   1.000  O
  H183     1.0000 0.88983  0.98907  0.74207  Biso   1.000  H
  O213     1.0000 0.07349  0.80074  0.60867  Biso   1.000  O
  O214     1.0000 0.07705  0.78402  0.54424  Biso   1.000  O
  O215     1.0000 0.92154  0.70083  0.47045  Biso   1.000  O
  O216     1.0000 0.85966  0.70366  0.49687  Biso   1.000  O
  C469     1.0000 0.75013  0.83137  0.63707  Biso   1.000  C
  C470     1.0000 0.79983  0.84737  0.65196  Biso   1.000  C
  C471     1.0000 0.82303  0.88747  0.67657  Biso   1.000  C
  H184     1.0000 0.80643  0.90317  0.68537  Biso   1.000  H
  C472     1.0000 0.87013  0.90457  0.68847  Biso   1.000  C
  C473     1.0000 0.89353  0.88067  0.67627  Biso   1.000  C
  H185     1.0000 0.92543  0.89177  0.68487  Biso   1.000  H
  C474     1.0000 0.87093  0.84077  0.65177  Biso   1.000  C
  C475     1.0000 0.82363  0.82467  0.64007  Biso   1.000  C
  H186     1.0000 0.80773  0.79717  0.62347  Biso   1.000  H
  C476     1.0000 0.89723  0.94957  0.71147  Biso   1.000  C
  C477     1.0000 0.89593  0.81787  0.63667  Biso   1.000  C
  C478     1.0000 0.91653  0.80117  0.62037  Biso   1.000  C
  C479     1.0000 0.93863  0.78287  0.59343  Biso   1.000  C
  C480     1.0000 0.98483  0.79147  0.59796  Biso   1.000  C
  H187     1.0000 0.00253  0.80757  0.62127  Biso   1.000  H
  C481     1.0000 0.00563  0.77707  0.56923  Biso   1.000  C
  C482     1.0000 0.97934  0.75197  0.53614  Biso   1.000  C
  H188     1.0000 0.99363  0.74207  0.51627  Biso   1.000  H
  C483     1.0000 0.93243  0.74127  0.53163  Biso   1.000  C
  C484     1.0000 0.91263  0.75737  0.56007  Biso   1.000  C
  H189     1.0000 0.88073  0.75087  0.55667  Biso   1.000  H
  C485     1.0000 0.05623  0.78797  0.57451  Biso   1.000  C
  C486     1.0000 0.90223  0.71307  0.49667  Biso   1.000  C
  Fe28     1.0000 0.14730  0.80350  0.53549  Biso   1.000  Fe
  O217     1.0000 0.26773  0.86853  0.55475  Biso   1.000  O
  O218     1.0000 0.21057  0.81308  0.51641  Biso   1.000  O
  O219     1.0000 0.30510  0.69860  0.45312  Biso   1.000  O
  O220     1.0000 0.24190  0.70320  0.43670  Biso   1.000  O
  H190     1.0000 0.23410  0.67760  0.42460  Biso   1.000  H
  O221     1.0000 0.60609  0.86593  0.55800  Biso   1.000  O
  O222     1.0000 0.62637  0.88265  0.62243  Biso   1.000  O
  O223     1.0000 0.55405  0.96584  0.69622  Biso   1.000  O
  O224     1.0000 0.48934  0.96301  0.66980  Biso   1.000  O
  C487     1.0000 0.25210  0.83530  0.52960  Biso   1.000  C
  C488     1.0000 0.28580  0.81930  0.51471  Biso   1.000  C
  C489     1.0000 0.26890  0.77920  0.49010  Biso   1.000  C
  H191     1.0000 0.23660  0.76350  0.48130  Biso   1.000  H
  C490     1.0000 0.29890  0.76210  0.47820  Biso   1.000  C
  C491     1.0000 0.34620  0.78600  0.49040  Biso   1.000  C
  H192     1.0000 0.36700  0.77490  0.48180  Biso   1.000  H
  C492     1.0000 0.36350  0.82590  0.51490  Biso   1.000  C
  C493     1.0000 0.33230  0.84200  0.52660  Biso   1.000  C
  H193     1.0000 0.34390  0.86950  0.54320  Biso   1.000  H
  C494     1.0000 0.28100  0.71710  0.45520  Biso   1.000  C
  C495     1.0000 0.41140  0.84880  0.53000  Biso   1.000  C
  C496     1.0000 0.44870  0.86550  0.54630  Biso   1.000  C
  C497     1.0000 0.48910  0.88380  0.57324  Biso   1.000  C
  C498     1.0000 0.52670  0.87520  0.56871  Biso   1.000  C
  H194     1.0000 0.52830  0.85910  0.54540  Biso   1.000  H
  C499     1.0000 0.56190  0.88960  0.59744  Biso   1.000  C
  C500     1.0000 0.56071  0.91470  0.63053  Biso   1.000  C
  H195     1.0000 0.58490  0.92460  0.65040  Biso   1.000  H
  C501     1.0000 0.52450  0.92540  0.63504  Biso   1.000  C
  C502     1.0000 0.48860  0.90930  0.60660  Biso   1.000  C
  H196     1.0000 0.46320  0.91580  0.61000  Biso   1.000  H
  C503     1.0000 0.60160  0.87870  0.59216  Biso   1.000  C
  C504     1.0000 0.52250  0.95360  0.67000  Biso   1.000  C
  Fe29     1.0000 0.81397  0.13683  0.86882  Biso   1.000  Fe
  O225     1.0000 0.93440  0.20186  0.88808  Biso   1.000  O
  O226     1.0000 0.87724  0.14641  0.84974  Biso   1.000  O
  O227     1.0000 0.97177  0.03193  0.78645  Biso   1.000  O
  O228     1.0000 0.90857  0.03653  0.77003  Biso   1.000  O
  H197     1.0000 0.90077  0.01093  0.75793  Biso   1.000  H
  O229     1.0000 0.27276  0.19926  0.89133  Biso   1.000  O
  O230     1.0000 0.29304  0.21598  0.95576  Biso   1.000  O
  O231     1.0000 0.22072  0.29917  0.02955  Biso   1.000  O
  O232     1.0000 0.15601  0.29634  0.00313  Biso   1.000  O
  C505     1.0000 0.91877  0.16863  0.86293  Biso   1.000  C
  C506     1.0000 0.95247  0.15263  0.84804  Biso   1.000  C
  C507     1.0000 0.93557  0.11253  0.82343  Biso   1.000  C
  H198     1.0000 0.90327  0.09683  0.81463  Biso   1.000  H
  C508     1.0000 0.96557  0.09543  0.81153  Biso   1.000  C
  C509     1.0000 0.01287  0.11933  0.82373  Biso   1.000  C
  H199     1.0000 0.03367  0.10823  0.81513  Biso   1.000  H
  C510     1.0000 0.03017  0.15923  0.84823  Biso   1.000  C
  C511     1.0000 0.99897  0.17533  0.85993  Biso   1.000  C
  H200     1.0000 0.01057  0.20283  0.87653  Biso   1.000  H
  C512     1.0000 0.94767  0.05043  0.78853  Biso   1.000  C
  C513     1.0000 0.07807  0.18213  0.86333  Biso   1.000  C
  C514     1.0000 0.11537  0.19883  0.87963  Biso   1.000  C
  C515     1.0000 0.15577  0.21713  0.90657  Biso   1.000  C
  C516     1.0000 0.19337  0.20853  0.90204  Biso   1.000  C
  H201     1.0000 0.19497  0.19243  0.87873  Biso   1.000  H
  C517     1.0000 0.22857  0.22293  0.93077  Biso   1.000  C
  C518     1.0000 0.22738  0.24803  0.96386  Biso   1.000  C
  H202     1.0000 0.25157  0.25793  0.98373  Biso   1.000  H
  C519     1.0000 0.19117  0.25873  0.96837  Biso   1.000  C
  C520     1.0000 0.15527  0.24263  0.93993  Biso   1.000  C
  H203     1.0000 0.12987  0.24913  0.94333  Biso   1.000  H
  C521     1.0000 0.26827  0.21203  0.92549  Biso   1.000  C
  C522     1.0000 0.18917  0.28693  0.00333  Biso   1.000  C
  Fe30     1.0000 0.48063  0.47017  0.20216  Biso   1.000  Fe
  O233     1.0000 0.60106  0.53520  0.22142  Biso   1.000  O
  O234     1.0000 0.54390  0.47975  0.18308  Biso   1.000  O
  O235     1.0000 0.63843  0.36527  0.11979  Biso   1.000  O
  O236     1.0000 0.57523  0.36987  0.10337  Biso   1.000  O
  H204     1.0000 0.56743  0.34427  0.09127  Biso   1.000  H
  O237     1.0000 0.93942  0.53260  0.22467  Biso   1.000  O
  O238     1.0000 0.95970  0.54932  0.28910  Biso   1.000  O
  O239     1.0000 0.88738  0.63251  0.36289  Biso   1.000  O
  O240     1.0000 0.82267  0.62968  0.33647  Biso   1.000  O
  C523     1.0000 0.58543  0.50197  0.19627  Biso   1.000  C
  C524     1.0000 0.61913  0.48597  0.18138  Biso   1.000  C
  C525     1.0000 0.60223  0.44587  0.15677  Biso   1.000  C
  H205     1.0000 0.56993  0.43017  0.14797  Biso   1.000  H
  C526     1.0000 0.63223  0.42877  0.14487  Biso   1.000  C
  C527     1.0000 0.67953  0.45267  0.15707  Biso   1.000  C
  H206     1.0000 0.70033  0.44157  0.14847  Biso   1.000  H
  C528     1.0000 0.69683  0.49257  0.18157  Biso   1.000  C
  C529     1.0000 0.66563  0.50867  0.19327  Biso   1.000  C
  H207     1.0000 0.67723  0.53617  0.20987  Biso   1.000  H
  C530     1.0000 0.61433  0.38377  0.12187  Biso   1.000  C
  C531     1.0000 0.74473  0.51547  0.19667  Biso   1.000  C
  C532     1.0000 0.78203  0.53217  0.21297  Biso   1.000  C
  C533     1.0000 0.82243  0.55047  0.23991  Biso   1.000  C
  C534     1.0000 0.86003  0.54187  0.23538  Biso   1.000  C
  H208     1.0000 0.86163  0.52577  0.21207  Biso   1.000  H
  C535     1.0000 0.89523  0.55627  0.26411  Biso   1.000  C
  C536     1.0000 0.89404  0.58137  0.29720  Biso   1.000  C
  H209     1.0000 0.91823  0.59127  0.31707  Biso   1.000  H
  C537     1.0000 0.85783  0.59207  0.30171  Biso   1.000  C
  C538     1.0000 0.82193  0.57597  0.27327  Biso   1.000  C
  H210     1.0000 0.79653  0.58247  0.27667  Biso   1.000  H
  C539     1.0000 0.93493  0.54537  0.25883  Biso   1.000  C
  C540     1.0000 0.85583  0.62027  0.33667  Biso   1.000  C
  Fe31     1.0000 0.65620  0.85270  0.53549  Biso   1.000  Fe
  O241     1.0000 0.60080  0.73227  0.55475  Biso   1.000  O
  O242     1.0000 0.60251  0.78943  0.51641  Biso   1.000  O
  O243     1.0000 0.39350  0.69490  0.45312  Biso   1.000  O
  O244     1.0000 0.46130  0.75810  0.43670  Biso   1.000  O
  H211     1.0000 0.44350  0.76590  0.42460  Biso   1.000  H
  O245     1.0000 0.25984  0.39391  0.55800  Biso   1.000  O
  O246     1.0000 0.25628  0.37363  0.62243  Biso   1.000  O
  O247     1.0000 0.41179  0.44595  0.69622  Biso   1.000  O
  O248     1.0000 0.47367  0.51066  0.66980  Biso   1.000  O
  C541     1.0000 0.58320  0.74790  0.52960  Biso   1.000  C
  C542     1.0000 0.53350  0.71420  0.51471  Biso   1.000  C
  C543     1.0000 0.51030  0.73110  0.49010  Biso   1.000  C
  H212     1.0000 0.52690  0.76340  0.48130  Biso   1.000  H
  C544     1.0000 0.46320  0.70110  0.47820  Biso   1.000  C
  C545     1.0000 0.43980  0.65380  0.49040  Biso   1.000  C
  H213     1.0000 0.40790  0.63300  0.48180  Biso   1.000  H
  C546     1.0000 0.46240  0.63650  0.51490  Biso   1.000  C
  C547     1.0000 0.50970  0.66770  0.52660  Biso   1.000  C
  H214     1.0000 0.52560  0.65610  0.54320  Biso   1.000  H
  C548     1.0000 0.43610  0.71900  0.45520  Biso   1.000  C
  C549     1.0000 0.43740  0.58860  0.53000  Biso   1.000  C
  C550     1.0000 0.41680  0.55130  0.54630  Biso   1.000  C
  C551     1.0000 0.39470  0.51090  0.57324  Biso   1.000  C
  C552     1.0000 0.34850  0.47330  0.56871  Biso   1.000  C
  H215     1.0000 0.33080  0.47170  0.54540  Biso   1.000  H
  C553     1.0000 0.32770  0.43810  0.59744  Biso   1.000  C
  C554     1.0000 0.35399  0.43929  0.63053  Biso   1.000  C
  H216     1.0000 0.33970  0.41510  0.65040  Biso   1.000  H
  C555     1.0000 0.40090  0.47550  0.63504  Biso   1.000  C
  C556     1.0000 0.42070  0.51140  0.60660  Biso   1.000  C
  H217     1.0000 0.45260  0.53680  0.61000  Biso   1.000  H
  C557     1.0000 0.27710  0.39840  0.59216  Biso   1.000  C
  C558     1.0000 0.43110  0.47750  0.67000  Biso   1.000  C
  Fe32     1.0000 0.32287  0.18603  0.86882  Biso   1.000  Fe
  O249     1.0000 0.26747  0.06560  0.88808  Biso   1.000  O
  O250     1.0000 0.26918  0.12276  0.84974  Biso   1.000  O
  O251     1.0000 0.06017  0.02823  0.78645  Biso   1.000  O
  O252     1.0000 0.12797  0.09143  0.77003  Biso   1.000  O
  H218     1.0000 0.11017  0.09923  0.75793  Biso   1.000  H
  O253     1.0000 0.92651  0.72724  0.89133  Biso   1.000  O
  O254     1.0000 0.92295  0.70696  0.95576  Biso   1.000  O
  O255     1.0000 0.07846  0.77928  0.02955  Biso   1.000  O
  O256     1.0000 0.14034  0.84399  0.00313  Biso   1.000  O
  C559     1.0000 0.24987  0.08123  0.86293  Biso   1.000  C
  C560     1.0000 0.20017  0.04753  0.84804  Biso   1.000  C
  C561     1.0000 0.17697  0.06443  0.82343  Biso   1.000  C
  H219     1.0000 0.19357  0.09673  0.81463  Biso   1.000  H
  C562     1.0000 0.12987  0.03443  0.81153  Biso   1.000  C
  C563     1.0000 0.10647  0.98713  0.82373  Biso   1.000  C
  H220     1.0000 0.07457  0.96633  0.81513  Biso   1.000  H
  C564     1.0000 0.12907  0.96983  0.84823  Biso   1.000  C
  C565     1.0000 0.17637  0.00103  0.85993  Biso   1.000  C
  H221     1.0000 0.19227  0.98943  0.87653  Biso   1.000  H
  C566     1.0000 0.10277  0.05233  0.78853  Biso   1.000  C
  C567     1.0000 0.10407  0.92193  0.86333  Biso   1.000  C
  C568     1.0000 0.08347  0.88463  0.87963  Biso   1.000  C
  C569     1.0000 0.06137  0.84423  0.90657  Biso   1.000  C
  C570     1.0000 0.01517  0.80663  0.90204  Biso   1.000  C
  H222     1.0000 0.99747  0.80503  0.87873  Biso   1.000  H
  C571     1.0000 0.99437  0.77143  0.93077  Biso   1.000  C
  C572     1.0000 0.02066  0.77262  0.96386  Biso   1.000  C
  H223     1.0000 0.00637  0.74843  0.98373  Biso   1.000  H
  C573     1.0000 0.06757  0.80883  0.96837  Biso   1.000  C
  C574     1.0000 0.08737  0.84473  0.93993  Biso   1.000  C
  H224     1.0000 0.11927  0.87013  0.94333  Biso   1.000  H
  C575     1.0000 0.94377  0.73173  0.92549  Biso   1.000  C
  C576     1.0000 0.09777  0.81083  0.00333  Biso   1.000  C
  Fe33     1.0000 0.98953  0.51937  0.20216  Biso   1.000  Fe
  O257     1.0000 0.93413  0.39894  0.22142  Biso   1.000  O
  O258     1.0000 0.93584  0.45610  0.18308  Biso   1.000  O
  O259     1.0000 0.72683  0.36157  0.11979  Biso   1.000  O
  O260     1.0000 0.79463  0.42477  0.10337  Biso   1.000  O
  H225     1.0000 0.77683  0.43257  0.09127  Biso   1.000  H
  O261     1.0000 0.59317  0.06058  0.22467  Biso   1.000  O
  O262     1.0000 0.58961  0.04030  0.28910  Biso   1.000  O
  O263     1.0000 0.74512  0.11262  0.36289  Biso   1.000  O
  O264     1.0000 0.80700  0.17733  0.33647  Biso   1.000  O
  C577     1.0000 0.91653  0.41457  0.19627  Biso   1.000  C
  C578     1.0000 0.86683  0.38087  0.18138  Biso   1.000  C
  C579     1.0000 0.84363  0.39777  0.15677  Biso   1.000  C
  H226     1.0000 0.86023  0.43007  0.14797  Biso   1.000  H
  C580     1.0000 0.79653  0.36777  0.14487  Biso   1.000  C
  C581     1.0000 0.77313  0.32047  0.15707  Biso   1.000  C
  H227     1.0000 0.74123  0.29967  0.14847  Biso   1.000  H
  C582     1.0000 0.79573  0.30317  0.18157  Biso   1.000  C
  C583     1.0000 0.84303  0.33437  0.19327  Biso   1.000  C
  H228     1.0000 0.85893  0.32277  0.20987  Biso   1.000  H
  C584     1.0000 0.76943  0.38567  0.12187  Biso   1.000  C
  C585     1.0000 0.77073  0.25527  0.19667  Biso   1.000  C
  C586     1.0000 0.75013  0.21797  0.21297  Biso   1.000  C
  C587     1.0000 0.72803  0.17757  0.23991  Biso   1.000  C
  C588     1.0000 0.68183  0.13997  0.23538  Biso   1.000  C
  H229     1.0000 0.66413  0.13837  0.21207  Biso   1.000  H
  C589     1.0000 0.66103  0.10477  0.26411  Biso   1.000  C
  C590     1.0000 0.68732  0.10596  0.29720  Biso   1.000  C
  H230     1.0000 0.67303  0.08177  0.31707  Biso   1.000  H
  C591     1.0000 0.73423  0.14217  0.30171  Biso   1.000  C
  C592     1.0000 0.75403  0.17807  0.27327  Biso   1.000  C
  H231     1.0000 0.78593  0.20347  0.27667  Biso   1.000  H
  C593     1.0000 0.61043  0.06507  0.25883  Biso   1.000  C
  C594     1.0000 0.76443  0.14417  0.33667  Biso   1.000  C
  Fe34     1.0000 0.19650  0.34380  0.53549  Biso   1.000  Fe
  O265     1.0000 0.13147  0.39920  0.55475  Biso   1.000  O
  O266     1.0000 0.18692  0.39749  0.51641  Biso   1.000  O
  O267     1.0000 0.30140  0.60650  0.45312  Biso   1.000  O
  O268     1.0000 0.29680  0.53870  0.43670  Biso   1.000  O
  H232     1.0000 0.32240  0.55650  0.42460  Biso   1.000  H
  O269     1.0000 0.13407  0.74016  0.55800  Biso   1.000  O
  O270     1.0000 0.11735  0.74372  0.62243  Biso   1.000  O
  O271     1.0000 0.03416  0.58821  0.69622  Biso   1.000  O
  O272     1.0000 0.03699  0.52633  0.66980  Biso   1.000  O
  C595     1.0000 0.16470  0.41680  0.52960  Biso   1.000  C
  C596     1.0000 0.18070  0.46650  0.51471  Biso   1.000  C
  C597     1.0000 0.22080  0.48970  0.49010  Biso   1.000  C
  H233     1.0000 0.23650  0.47310  0.48130  Biso   1.000  H
  C598     1.0000 0.23790  0.53680  0.47820  Biso   1.000  C
  C599     1.0000 0.21400  0.56020  0.49040  Biso   1.000  C
  H234     1.0000 0.22510  0.59210  0.48180  Biso   1.000  H
  C600     1.0000 0.17410  0.53760  0.51490  Biso   1.000  C
  C601     1.0000 0.15800  0.49030  0.52660  Biso   1.000  C
  H235     1.0000 0.13050  0.47440  0.54320  Biso   1.000  H
  C602     1.0000 0.28290  0.56390  0.45520  Biso   1.000  C
  C603     1.0000 0.15120  0.56260  0.53000  Biso   1.000  C
  C604     1.0000 0.13450  0.58320  0.54630  Biso   1.000  C
  C605     1.0000 0.11620  0.60530  0.57324  Biso   1.000  C
  C606     1.0000 0.12480  0.65150  0.56871  Biso   1.000  C
  H236     1.0000 0.14090  0.66920  0.54540  Biso   1.000  H
  C607     1.0000 0.11040  0.67230  0.59744  Biso   1.000  C
  C608     1.0000 0.08530  0.64601  0.63053  Biso   1.000  C
  H237     1.0000 0.07540  0.66030  0.65040  Biso   1.000  H
  C609     1.0000 0.07460  0.59910  0.63504  Biso   1.000  C
  C610     1.0000 0.09070  0.57930  0.60660  Biso   1.000  C
  H238     1.0000 0.08420  0.54740  0.61000  Biso   1.000  H
  C611     1.0000 0.12130  0.72290  0.59216  Biso   1.000  C
  C612     1.0000 0.04640  0.56890  0.67000  Biso   1.000  C
  Fe35     1.0000 0.86317  0.67713  0.86882  Biso   1.000  Fe
  O273     1.0000 0.79814  0.73253  0.88808  Biso   1.000  O
  O274     1.0000 0.85359  0.73082  0.84974  Biso   1.000  O
  O275     1.0000 0.96807  0.93983  0.78645  Biso   1.000  O
  O276     1.0000 0.96347  0.87203  0.77003  Biso   1.000  O
  H239     1.0000 0.98907  0.88983  0.75793  Biso   1.000  H
  O277     1.0000 0.80074  0.07349  0.89133  Biso   1.000  O
  O278     1.0000 0.78402  0.07705  0.95576  Biso   1.000  O
  O279     1.0000 0.70083  0.92154  0.02955  Biso   1.000  O
  O280     1.0000 0.70366  0.85966  0.00313  Biso   1.000  O
  C613     1.0000 0.83137  0.75013  0.86293  Biso   1.000  C
  C614     1.0000 0.84737  0.79983  0.84804  Biso   1.000  C
  C615     1.0000 0.88747  0.82303  0.82343  Biso   1.000  C
  H240     1.0000 0.90317  0.80643  0.81463  Biso   1.000  H
  C616     1.0000 0.90457  0.87013  0.81153  Biso   1.000  C
  C617     1.0000 0.88067  0.89353  0.82373  Biso   1.000  C
  H241     1.0000 0.89177  0.92543  0.81513  Biso   1.000  H
  C618     1.0000 0.84077  0.87093  0.84823  Biso   1.000  C
  C619     1.0000 0.82467  0.82363  0.85993  Biso   1.000  C
  H242     1.0000 0.79717  0.80773  0.87653  Biso   1.000  H
  C620     1.0000 0.94957  0.89723  0.78853  Biso   1.000  C
  C621     1.0000 0.81787  0.89593  0.86333  Biso   1.000  C
  C622     1.0000 0.80117  0.91653  0.87963  Biso   1.000  C
  C623     1.0000 0.78287  0.93863  0.90657  Biso   1.000  C
  C624     1.0000 0.79147  0.98483  0.90204  Biso   1.000  C
  H243     1.0000 0.80757  0.00253  0.87873  Biso   1.000  H
  C625     1.0000 0.77707  0.00563  0.93077  Biso   1.000  C
  C626     1.0000 0.75197  0.97934  0.96386  Biso   1.000  C
  H244     1.0000 0.74207  0.99363  0.98373  Biso   1.000  H
  C627     1.0000 0.74127  0.93243  0.96837  Biso   1.000  C
  C628     1.0000 0.75737  0.91263  0.93993  Biso   1.000  C
  H245     1.0000 0.75087  0.88073  0.94333  Biso   1.000  H
  C629     1.0000 0.78797  0.05623  0.92549  Biso   1.000  C
  C630     1.0000 0.71307  0.90223  0.00333  Biso   1.000  C
  Fe36     1.0000 0.52983  0.01047  0.20216  Biso   1.000  Fe
  O281     1.0000 0.46480  0.06587  0.22142  Biso   1.000  O
  O282     1.0000 0.52025  0.06416  0.18308  Biso   1.000  O
  O283     1.0000 0.63473  0.27317  0.11979  Biso   1.000  O
  O284     1.0000 0.63013  0.20537  0.10337  Biso   1.000  O
  H246     1.0000 0.65573  0.22317  0.09127  Biso   1.000  H
  O285     1.0000 0.46740  0.40683  0.22467  Biso   1.000  O
  O286     1.0000 0.45068  0.41039  0.28910  Biso   1.000  O
  O287     1.0000 0.36749  0.25488  0.36289  Biso   1.000  O
  O288     1.0000 0.37032  0.19300  0.33647  Biso   1.000  O
  C631     1.0000 0.49803  0.08347  0.19627  Biso   1.000  C
  C632     1.0000 0.51403  0.13317  0.18138  Biso   1.000  C
  C633     1.0000 0.55413  0.15637  0.15677  Biso   1.000  C
  H247     1.0000 0.56983  0.13977  0.14797  Biso   1.000  H
  C634     1.0000 0.57123  0.20347  0.14487  Biso   1.000  C
  C635     1.0000 0.54733  0.22687  0.15707  Biso   1.000  C
  H248     1.0000 0.55843  0.25877  0.14847  Biso   1.000  H
  C636     1.0000 0.50743  0.20427  0.18157  Biso   1.000  C
  C637     1.0000 0.49133  0.15697  0.19327  Biso   1.000  C
  H249     1.0000 0.46383  0.14107  0.20987  Biso   1.000  H
  C638     1.0000 0.61623  0.23057  0.12187  Biso   1.000  C
  C639     1.0000 0.48453  0.22927  0.19667  Biso   1.000  C
  C640     1.0000 0.46783  0.24987  0.21297  Biso   1.000  C
  C641     1.0000 0.44953  0.27197  0.23991  Biso   1.000  C
  C642     1.0000 0.45813  0.31817  0.23538  Biso   1.000  C
  H250     1.0000 0.47423  0.33587  0.21207  Biso   1.000  H
  C643     1.0000 0.44373  0.33897  0.26411  Biso   1.000  C
  C644     1.0000 0.41863  0.31268  0.29720  Biso   1.000  C
  H251     1.0000 0.40873  0.32697  0.31707  Biso   1.000  H
  C645     1.0000 0.40793  0.26577  0.30171  Biso   1.000  C
  C646     1.0000 0.42403  0.24597  0.27327  Biso   1.000  C
  H252     1.0000 0.41753  0.21407  0.27667  Biso   1.000  H
  C647     1.0000 0.45463  0.38957  0.25883  Biso   1.000  C
  C648     1.0000 0.37973  0.23557  0.33667  Biso   1.000  C
  Fe37     1.0000 0.10337  0.77003  0.08333  Biso   1.000  Fe
  O289     1.0000 0.03583  0.70249  0.08333  Biso   1.000  O
  O290     1.0000 0.16238  0.82904  0.08333  Biso   1.000  O
  Ni1      1.0000 0.10017  0.76683  0.08333  Biso   1.000  Ni
  Fe38     1.0000 0.22997  0.33333  0.08333  Biso   1.000  Fe
  O291     1.0000 0.29751  0.33333  0.08333  Biso   1.000  O
  O292     1.0000 0.17096  0.33333  0.08333  Biso   1.000  O
  Ni2      1.0000 0.23317  0.33333  0.08333  Biso   1.000  Ni
  Fe39     1.0000 0.66667  0.89663  0.08333  Biso   1.000  Fe
  O293     1.0000 0.66667  0.96417  0.08333  Biso   1.000  O
  O294     1.0000 0.66667  0.83762  0.08333  Biso   1.000  O
  Ni3      1.0000 0.66667  0.89983  0.08333  Biso   1.000  Ni
  Fe40     1.0000 0.77003  0.10337  0.41667  Biso   1.000  Fe
  O295     1.0000 0.70249  0.03583  0.41667  Biso   1.000  O
  O296     1.0000 0.82904  0.16238  0.41667  Biso   1.000  O
  Ni4      1.0000 0.76683  0.10017  0.41667  Biso   1.000  Ni
  Fe41     1.0000 0.43670  0.43670  0.75000  Biso   1.000  Fe
  O297     1.0000 0.36916  0.36916  0.75000  Biso   1.000  O
  O298     1.0000 0.49571  0.49571  0.75000  Biso   1.000  O
  Ni5      1.0000 0.43350  0.43350  0.75000  Biso   1.000  Ni
  Fe42     1.0000 0.33333  0.22997  0.41667  Biso   1.000  Fe
  O299     1.0000 0.33333  0.29751  0.41667  Biso   1.000  O
  O300     1.0000 0.33333  0.17096  0.41667  Biso   1.000  O
  Ni6      1.0000 0.33333  0.23317  0.41667  Biso   1.000  Ni
  Fe43     1.0000 0.00000  0.56330  0.75000  Biso   1.000  Fe
  O301     1.0000 0.00000  0.63084  0.75000  Biso   1.000  O
  O302     1.0000 0.00000  0.50429  0.75000  Biso   1.000  O
  Ni7      1.0000 0.00000  0.56650  0.75000  Biso   1.000  Ni
  Fe44     1.0000 0.89663  0.66667  0.41667  Biso   1.000  Fe
  O303     1.0000 0.96417  0.66667  0.41667  Biso   1.000  O
  O304     1.0000 0.83762  0.66667  0.41667  Biso   1.000  O
  Ni8      1.0000 0.89983  0.66667  0.41667  Biso   1.000  Ni
  Fe45     1.0000 0.56330  0.00000  0.75000  Biso   1.000  Fe
  O305     1.0000 0.63084  0.00000  0.75000  Biso   1.000  O
  O306     1.0000 0.50429  0.00000  0.75000  Biso   1.000  O
  Ni9      1.0000 0.56650  0.00000  0.75000  Biso   1.000  Ni
  Fe46     1.0000 0.89663  0.22997  0.91667  Biso   1.000  Fe
  O307     1.0000 0.96417  0.29751  0.91667  Biso   1.000  O
  O308     1.0000 0.83762  0.17096  0.91667  Biso   1.000  O
  Ni10     1.0000 0.89983  0.23317  0.91667  Biso   1.000  Ni
  Fe47     1.0000 0.56330  0.56330  0.25000  Biso   1.000  Fe
  O309     1.0000 0.63084  0.63084  0.25000  Biso   1.000  O
  O310     1.0000 0.50429  0.50429  0.25000  Biso   1.000  O
  Ni11     1.0000 0.56650  0.56650  0.25000  Biso   1.000  Ni
  Fe48     1.0000 0.77003  0.66667  0.91667  Biso   1.000  Fe
  O311     1.0000 0.70249  0.66667  0.91667  Biso   1.000  O
  O312     1.0000 0.82904  0.66667  0.91667  Biso   1.000  O
  Ni12     1.0000 0.76683  0.66667  0.91667  Biso   1.000  Ni
  Fe49     1.0000 0.43670  0.00000  0.25000  Biso   1.000  Fe
  O313     1.0000 0.36916  0.00000  0.25000  Biso   1.000  O
  O314     1.0000 0.49571  0.00000  0.25000  Biso   1.000  O
  Ni13     1.0000 0.43350  0.00000  0.25000  Biso   1.000  Ni
  Fe50     1.0000 0.33333  0.10337  0.91667  Biso   1.000  Fe
  O315     1.0000 0.33333  0.03583  0.91667  Biso   1.000  O
  O316     1.0000 0.33333  0.16238  0.91667  Biso   1.000  O
  Ni14     1.0000 0.33333  0.10017  0.91667  Biso   1.000  Ni
  Fe51     1.0000 0.00000  0.43670  0.25000  Biso   1.000  Fe
  O317     1.0000 0.00000  0.36916  0.25000  Biso   1.000  O
  O318     1.0000 0.00000  0.49571  0.25000  Biso   1.000  O
  Ni15     1.0000 0.00000  0.43350  0.25000  Biso   1.000  Ni
  Fe52     1.0000 0.22997  0.89663  0.58333  Biso   1.000  Fe
  O319     1.0000 0.29751  0.96417  0.58333  Biso   1.000  O
  O320     1.0000 0.17096  0.83762  0.58333  Biso   1.000  O
  Ni16     1.0000 0.23317  0.89983  0.58333  Biso   1.000  Ni
  Fe53     1.0000 0.66667  0.77003  0.58333  Biso   1.000  Fe
  O321     1.0000 0.66667  0.70249  0.58333  Biso   1.000  O
  O322     1.0000 0.66667  0.82904  0.58333  Biso   1.000  O
  Ni17     1.0000 0.66667  0.76683  0.58333  Biso   1.000  Ni
  Fe54     1.0000 0.10337  0.33333  0.58333  Biso   1.000  Fe
  O323     1.0000 0.03583  0.33333  0.58333  Biso   1.000  O
  O324     1.0000 0.16238  0.33333  0.58333  Biso   1.000  O
  Ni18     1.0000 0.10017  0.33333  0.58333  Biso   1.000  Ni
  Fe55     1.0000 0.33333  0.66667  0.91667  Biso   1.000  Fe
  Fe56     1.0000 0.00000  0.00000  0.25000  Biso   1.000  Fe
  Fe57     1.0000 0.66667  0.33333  0.58333  Biso   1.000  Fe
  Fe58     1.0000 0.66667  0.33333  0.08333  Biso   1.000  Fe
  Fe59     1.0000 0.00000  0.00000  0.75000  Biso   1.000  Fe
  Fe60     1.0000 0.33333  0.66667  0.41667  Biso   1.000  Fe
