data_image0
_cell_length_a       25.898
_cell_length_b       25.898
_cell_length_c       32.995
_cell_angle_alpha    90
_cell_angle_beta     90
_cell_angle_gamma    120

_symmetry_space_group_name_H-M    "P 1"
_symmetry_int_tables_number       1

loop_
  _symmetry_equiv_pos_as_xyz
  'x, y, z'

loop_
  _atom_site_label
  _atom_site_occupancy
  _atom_site_fract_x
  _atom_site_fract_y
  _atom_site_fract_z
  _atom_site_thermal_displace_type
  _atom_site_B_iso_or_equiv
  _atom_site_type_symbol
  Fe1      1.0000 0.46520  0.29600  0.05170  Biso   1.000  Fe
  O1       1.0000 0.31540  0.90910  0.07450  Biso   1.000  O
  O2       1.0000 0.26160  0.94050  0.04142  Biso   1.000  O
  O3       1.0000 0.33960  0.15960  0.04117  Biso   1.000  O
  O4       1.0000 0.42340  0.21550  0.07558  Biso   1.000  O
  O5       1.0000 0.52880  0.27840  0.03280  Biso   1.000  O
  O6       1.0000 0.51320  0.38280  0.03160  Biso   1.000  O
  C1       1.0000 0.52130  0.08120  0.23350  Biso   1.000  C
  C2       1.0000 0.54520  0.09780  0.19490  Biso   1.000  C
  H1       1.0000 0.58620  0.11110  0.19040  Biso   1.000  H
  C3       1.0000 0.50900  0.09490  0.16280  Biso   1.000  C
  C4       1.0000 0.42490  0.05890  0.20810  Biso   1.000  C
  C5       1.0000 0.46130  0.06280  0.24030  Biso   1.000  C
  H2       1.0000 0.44540  0.05310  0.26690  Biso   1.000  H
  C6       1.0000 0.53120  0.11480  0.12000  Biso   1.000  C
  H3       1.0000 0.49710  0.09950  0.10140  Biso   1.000  H
  H4       1.0000 0.55740  0.09930  0.11200  Biso   1.000  H
  H5       1.0000 0.55350  0.15840  0.11880  Biso   1.000  H
  C7       1.0000 0.35930  0.03470  0.21990  Biso   1.000  C
  H6       1.0000 0.35680  0.04120  0.24890  Biso   1.000  H
  H7       1.0000 0.33630  0.99190  0.21400  Biso   1.000  H
  H8       1.0000 0.34310  0.05550  0.20430  Biso   1.000  H
  C8       1.0000 0.44960  0.07570  0.16911  Biso   1.000  C
  C9       1.0000 0.41020  0.06930  0.13440  Biso   1.000  C
  C10      1.0000 0.37320  0.01440  0.11720  Biso   1.000  C
  H9       1.0000 0.37240  0.98020  0.12850  Biso   1.000  H
  C11      1.0000 0.33760  0.00710  0.08440  Biso   1.000  C
  C12      1.0000 0.33840  0.05730  0.06900  Biso   1.000  C
  H10      1.0000 0.31290  0.05300  0.04690  Biso   1.000  H
  C13      1.0000 0.37480  0.11280  0.08460  Biso   1.000  C
  C14      1.0000 0.41070  0.11860  0.11740  Biso   1.000  C
  H11      1.0000 0.43610  0.15700  0.12850  Biso   1.000  H
  C15      1.0000 0.30090  0.94740  0.06530  Biso   1.000  C
  C16      1.0000 0.38020  0.16750  0.06560  Biso   1.000  C
  Co1      1.0000 0.46300  0.29600  0.04470  Biso   1.000  Co
  C17      1.0000 0.53350  0.06920  0.19460  Biso   1.000  C
  H12      1.0000 0.56540  0.06170  0.19020  Biso   1.000  H
  C18      1.0000 0.49870  0.06810  0.16200  Biso   1.000  C
  C19      1.0000 0.44030  0.09150  0.20740  Biso   1.000  C
  C20      1.0000 0.47570  0.09380  0.23960  Biso   1.000  C
  H13      1.0000 0.46880  0.10390  0.26600  Biso   1.000  H
  C21      1.0000 0.51650  0.05540  0.12030  Biso   1.000  C
  H14      1.0000 0.51410  0.08170  0.10000  Biso   1.000  H
  H15      1.0000 0.48930  0.01370  0.11280  Biso   1.000  H
  H16      1.0000 0.55740  0.06260  0.12150  Biso   1.000  H
  C22      1.0000 0.39000  0.10460  0.21330  Biso   1.000  C
  H17      1.0000 0.39820  0.14000  0.19760  Biso   1.000  H
  H18      1.0000 0.38680  0.11180  0.24210  Biso   1.000  H
  H19      1.0000 0.35250  0.07040  0.20400  Biso   1.000  H
  H20      1.0000 0.60570  0.25230  0.97270  Biso   1.000  H
  H21      1.0000 0.56940  0.20620  0.00820  Biso   1.000  H
  H22      1.0000 0.62140  0.27210  0.01910  Biso   1.000  H
  H23      1.0000 0.56630  0.48900  0.97200  Biso   1.000  H
  H24      1.0000 0.53820  0.49020  0.01500  Biso   1.000  H
  H25      1.0000 0.59870  0.48770  0.01300  Biso   1.000  H
  Fe2      1.0000 0.70400  0.16920  0.05170  Biso   1.000  Fe
  O7       1.0000 0.09090  0.40630  0.07450  Biso   1.000  O
  O8       1.0000 0.05950  0.32110  0.04142  Biso   1.000  O
  O9       1.0000 0.84040  0.18000  0.04117  Biso   1.000  O
  O10      1.0000 0.78450  0.20790  0.07558  Biso   1.000  O
  O11      1.0000 0.72160  0.25040  0.03280  Biso   1.000  O
  O12      1.0000 0.61720  0.13040  0.03160  Biso   1.000  O
  C23      1.0000 0.91880  0.44010  0.23350  Biso   1.000  C
  C24      1.0000 0.90220  0.44740  0.19490  Biso   1.000  C
  H26      1.0000 0.88890  0.47510  0.19040  Biso   1.000  H
  C25      1.0000 0.90510  0.41410  0.16280  Biso   1.000  C
  C26      1.0000 0.94110  0.36600  0.20810  Biso   1.000  C
  C27      1.0000 0.93720  0.39850  0.24030  Biso   1.000  C
  H27      1.0000 0.94690  0.39230  0.26690  Biso   1.000  H
  C28      1.0000 0.88520  0.41640  0.12000  Biso   1.000  C
  H28      1.0000 0.90050  0.39760  0.10140  Biso   1.000  H
  H29      1.0000 0.90070  0.45810  0.11200  Biso   1.000  H
  H30      1.0000 0.84160  0.39510  0.11880  Biso   1.000  H
  C29      1.0000 0.96530  0.32460  0.21990  Biso   1.000  C
  H31      1.0000 0.95880  0.31560  0.24890  Biso   1.000  H
  H32      1.0000 0.00810  0.34440  0.21400  Biso   1.000  H
  H33      1.0000 0.94450  0.28760  0.20430  Biso   1.000  H
  C30      1.0000 0.92430  0.37390  0.16911  Biso   1.000  C
  C31      1.0000 0.93070  0.34090  0.13440  Biso   1.000  C
  C32      1.0000 0.98560  0.35880  0.11720  Biso   1.000  C
  H34      1.0000 0.01980  0.39220  0.12850  Biso   1.000  H
  C33      1.0000 0.99290  0.33050  0.08440  Biso   1.000  C
  C34      1.0000 0.94270  0.28110  0.06900  Biso   1.000  C
  H35      1.0000 0.94700  0.25990  0.04690  Biso   1.000  H
  C35      1.0000 0.88720  0.26200  0.08460  Biso   1.000  C
  C36      1.0000 0.88140  0.29210  0.11740  Biso   1.000  C
  H36      1.0000 0.84300  0.27910  0.12850  Biso   1.000  H
  C37      1.0000 0.05260  0.35350  0.06530  Biso   1.000  C
  C38      1.0000 0.83250  0.21270  0.06560  Biso   1.000  C
  Co2      1.0000 0.70400  0.16700  0.04470  Biso   1.000  Co
  C39      1.0000 0.93080  0.46430  0.19460  Biso   1.000  C
  H37      1.0000 0.93830  0.50370  0.19020  Biso   1.000  H
  C40      1.0000 0.93190  0.43060  0.16200  Biso   1.000  C
  C41      1.0000 0.90850  0.34880  0.20740  Biso   1.000  C
  C42      1.0000 0.90620  0.38190  0.23960  Biso   1.000  C
  H38      1.0000 0.89610  0.36490  0.26600  Biso   1.000  H
  C43      1.0000 0.94460  0.46110  0.12030  Biso   1.000  C
  H39      1.0000 0.91830  0.43240  0.10000  Biso   1.000  H
  H40      1.0000 0.98630  0.47560  0.11280  Biso   1.000  H
  H41      1.0000 0.93740  0.49480  0.12150  Biso   1.000  H
  C44      1.0000 0.89540  0.28540  0.21330  Biso   1.000  C
  H42      1.0000 0.86000  0.25820  0.19760  Biso   1.000  H
  H43      1.0000 0.88820  0.27500  0.24210  Biso   1.000  H
  H44      1.0000 0.92960  0.28210  0.20400  Biso   1.000  H
  H45      1.0000 0.74770  0.35340  0.97270  Biso   1.000  H
  H46      1.0000 0.79380  0.36320  0.00820  Biso   1.000  H
  H47      1.0000 0.72790  0.34930  0.01910  Biso   1.000  H
  H48      1.0000 0.51100  0.07730  0.97200  Biso   1.000  H
  H49      1.0000 0.50980  0.04800  0.01500  Biso   1.000  H
  H50      1.0000 0.51230  0.11100  0.01300  Biso   1.000  H
  Fe3      1.0000 0.83080  0.53480  0.05170  Biso   1.000  Fe
  O13      1.0000 0.59370  0.68460  0.07450  Biso   1.000  O
  O14      1.0000 0.67890  0.73840  0.04142  Biso   1.000  O
  O15      1.0000 0.82000  0.66040  0.04117  Biso   1.000  O
  O16      1.0000 0.79210  0.57660  0.07558  Biso   1.000  O
  O17      1.0000 0.74960  0.47120  0.03280  Biso   1.000  O
  O18      1.0000 0.86960  0.48680  0.03160  Biso   1.000  O
  C45      1.0000 0.55990  0.47870  0.23350  Biso   1.000  C
  C46      1.0000 0.55260  0.45480  0.19490  Biso   1.000  C
  H51      1.0000 0.52490  0.41380  0.19040  Biso   1.000  H
  C47      1.0000 0.58590  0.49100  0.16280  Biso   1.000  C
  C48      1.0000 0.63400  0.57510  0.20810  Biso   1.000  C
  C49      1.0000 0.60150  0.53870  0.24030  Biso   1.000  C
  H52      1.0000 0.60770  0.55460  0.26690  Biso   1.000  H
  C50      1.0000 0.58360  0.46880  0.12000  Biso   1.000  C
  H53      1.0000 0.60240  0.50290  0.10140  Biso   1.000  H
  H54      1.0000 0.54190  0.44260  0.11200  Biso   1.000  H
  H55      1.0000 0.60490  0.44650  0.11880  Biso   1.000  H
  C51      1.0000 0.67540  0.64070  0.21990  Biso   1.000  C
  H56      1.0000 0.68440  0.64320  0.24890  Biso   1.000  H
  H57      1.0000 0.65560  0.66370  0.21400  Biso   1.000  H
  H58      1.0000 0.71240  0.65690  0.20430  Biso   1.000  H
  C52      1.0000 0.62610  0.55040  0.16911  Biso   1.000  C
  C53      1.0000 0.65910  0.58980  0.13440  Biso   1.000  C
  C54      1.0000 0.64120  0.62680  0.11720  Biso   1.000  C
  H59      1.0000 0.60780  0.62760  0.12850  Biso   1.000  H
  C55      1.0000 0.66950  0.66240  0.08440  Biso   1.000  C
  C56      1.0000 0.71890  0.66160  0.06900  Biso   1.000  C
  H60      1.0000 0.74010  0.68710  0.04690  Biso   1.000  H
  C57      1.0000 0.73800  0.62520  0.08460  Biso   1.000  C
  C58      1.0000 0.70790  0.58930  0.11740  Biso   1.000  C
  H61      1.0000 0.72090  0.56390  0.12850  Biso   1.000  H
  C59      1.0000 0.64650  0.69910  0.06530  Biso   1.000  C
  C60      1.0000 0.78730  0.61980  0.06560  Biso   1.000  C
  Co3      1.0000 0.83300  0.53700  0.04470  Biso   1.000  Co
  C61      1.0000 0.53570  0.46650  0.19460  Biso   1.000  C
  H62      1.0000 0.49630  0.43460  0.19020  Biso   1.000  H
  C62      1.0000 0.56940  0.50130  0.16200  Biso   1.000  C
  C63      1.0000 0.65120  0.55970  0.20740  Biso   1.000  C
  C64      1.0000 0.61810  0.52430  0.23960  Biso   1.000  C
  H63      1.0000 0.63510  0.53120  0.26600  Biso   1.000  H
  C65      1.0000 0.53890  0.48350  0.12030  Biso   1.000  C
  H64      1.0000 0.56760  0.48590  0.10000  Biso   1.000  H
  H65      1.0000 0.52440  0.51070  0.11280  Biso   1.000  H
  H66      1.0000 0.50520  0.44260  0.12150  Biso   1.000  H
  C66      1.0000 0.71460  0.61000  0.21330  Biso   1.000  C
  H67      1.0000 0.74180  0.60180  0.19760  Biso   1.000  H
  H68      1.0000 0.72500  0.61320  0.24210  Biso   1.000  H
  H69      1.0000 0.71790  0.64750  0.20400  Biso   1.000  H
  H70      1.0000 0.64660  0.39430  0.97270  Biso   1.000  H
  H71      1.0000 0.63680  0.43060  0.00820  Biso   1.000  H
  H72      1.0000 0.65070  0.37860  0.01910  Biso   1.000  H
  H73      1.0000 0.92270  0.43370  0.97200  Biso   1.000  H
  H74      1.0000 0.95200  0.46180  0.01500  Biso   1.000  H
  H75      1.0000 0.88900  0.40130  0.01300  Biso   1.000  H
  Fe4      1.0000 0.53480  0.70400  0.05170  Biso   1.000  Fe
  O19      1.0000 0.68460  0.09090  0.07450  Biso   1.000  O
  O20      1.0000 0.73840  0.05950  0.04142  Biso   1.000  O
  O21      1.0000 0.66040  0.84040  0.04117  Biso   1.000  O
  O22      1.0000 0.57660  0.78450  0.07558  Biso   1.000  O
  O23      1.0000 0.47120  0.72160  0.03280  Biso   1.000  O
  O24      1.0000 0.48680  0.61720  0.03160  Biso   1.000  O
  C67      1.0000 0.47870  0.91880  0.23350  Biso   1.000  C
  C68      1.0000 0.45480  0.90220  0.19490  Biso   1.000  C
  H76      1.0000 0.41380  0.88890  0.19040  Biso   1.000  H
  C69      1.0000 0.49100  0.90510  0.16280  Biso   1.000  C
  C70      1.0000 0.57510  0.94110  0.20810  Biso   1.000  C
  C71      1.0000 0.53870  0.93720  0.24030  Biso   1.000  C
  H77      1.0000 0.55460  0.94690  0.26690  Biso   1.000  H
  C72      1.0000 0.46880  0.88520  0.12000  Biso   1.000  C
  H78      1.0000 0.50290  0.90050  0.10140  Biso   1.000  H
  H79      1.0000 0.44260  0.90070  0.11200  Biso   1.000  H
  H80      1.0000 0.44650  0.84160  0.11880  Biso   1.000  H
  C73      1.0000 0.64070  0.96530  0.21990  Biso   1.000  C
  H81      1.0000 0.64320  0.95880  0.24890  Biso   1.000  H
  H82      1.0000 0.66370  0.00810  0.21400  Biso   1.000  H
  H83      1.0000 0.65690  0.94450  0.20430  Biso   1.000  H
  C74      1.0000 0.55040  0.92430  0.16911  Biso   1.000  C
  C75      1.0000 0.58980  0.93070  0.13440  Biso   1.000  C
  C76      1.0000 0.62680  0.98560  0.11720  Biso   1.000  C
  H84      1.0000 0.62760  0.01980  0.12850  Biso   1.000  H
  C77      1.0000 0.66240  0.99290  0.08440  Biso   1.000  C
  C78      1.0000 0.66160  0.94270  0.06900  Biso   1.000  C
  H85      1.0000 0.68710  0.94700  0.04690  Biso   1.000  H
  C79      1.0000 0.62520  0.88720  0.08460  Biso   1.000  C
  C80      1.0000 0.58930  0.88140  0.11740  Biso   1.000  C
  H86      1.0000 0.56390  0.84300  0.12850  Biso   1.000  H
  C81      1.0000 0.69910  0.05260  0.06530  Biso   1.000  C
  C82      1.0000 0.61980  0.83250  0.06560  Biso   1.000  C
  Co4      1.0000 0.53700  0.70400  0.04470  Biso   1.000  Co
  C83      1.0000 0.46650  0.93080  0.19460  Biso   1.000  C
  H87      1.0000 0.43460  0.93830  0.19020  Biso   1.000  H
  C84      1.0000 0.50130  0.93190  0.16200  Biso   1.000  C
  C85      1.0000 0.55970  0.90850  0.20740  Biso   1.000  C
  C86      1.0000 0.52430  0.90620  0.23960  Biso   1.000  C
  H88      1.0000 0.53120  0.89610  0.26600  Biso   1.000  H
  C87      1.0000 0.48350  0.94460  0.12030  Biso   1.000  C
  H89      1.0000 0.48590  0.91830  0.10000  Biso   1.000  H
  H90      1.0000 0.51070  0.98630  0.11280  Biso   1.000  H
  H91      1.0000 0.44260  0.93740  0.12150  Biso   1.000  H
  C88      1.0000 0.61000  0.89540  0.21330  Biso   1.000  C
  H92      1.0000 0.60180  0.86000  0.19760  Biso   1.000  H
  H93      1.0000 0.61320  0.88820  0.24210  Biso   1.000  H
  H94      1.0000 0.64750  0.92960  0.20400  Biso   1.000  H
  H95      1.0000 0.39430  0.74770  0.97270  Biso   1.000  H
  H96      1.0000 0.43060  0.79380  0.00820  Biso   1.000  H
  H97      1.0000 0.37860  0.72790  0.01910  Biso   1.000  H
  H98      1.0000 0.43370  0.51100  0.97200  Biso   1.000  H
  H99      1.0000 0.46180  0.50980  0.01500  Biso   1.000  H
  H100     1.0000 0.40130  0.51230  0.01300  Biso   1.000  H
  Fe5      1.0000 0.29600  0.83080  0.05170  Biso   1.000  Fe
  O25      1.0000 0.90910  0.59370  0.07450  Biso   1.000  O
  O26      1.0000 0.94050  0.67890  0.04142  Biso   1.000  O
  O27      1.0000 0.15960  0.82000  0.04117  Biso   1.000  O
  O28      1.0000 0.21550  0.79210  0.07558  Biso   1.000  O
  O29      1.0000 0.27840  0.74960  0.03280  Biso   1.000  O
  O30      1.0000 0.38280  0.86960  0.03160  Biso   1.000  O
  C89      1.0000 0.08120  0.55990  0.23350  Biso   1.000  C
  C90      1.0000 0.09780  0.55260  0.19490  Biso   1.000  C
  H101     1.0000 0.11110  0.52490  0.19040  Biso   1.000  H
  C91      1.0000 0.09490  0.58590  0.16280  Biso   1.000  C
  C92      1.0000 0.05890  0.63400  0.20810  Biso   1.000  C
  C93      1.0000 0.06280  0.60150  0.24030  Biso   1.000  C
  H102     1.0000 0.05310  0.60770  0.26690  Biso   1.000  H
  C94      1.0000 0.11480  0.58360  0.12000  Biso   1.000  C
  H103     1.0000 0.09950  0.60240  0.10140  Biso   1.000  H
  H104     1.0000 0.09930  0.54190  0.11200  Biso   1.000  H
  H105     1.0000 0.15840  0.60490  0.11880  Biso   1.000  H
  C95      1.0000 0.03470  0.67540  0.21990  Biso   1.000  C
  H106     1.0000 0.04120  0.68440  0.24890  Biso   1.000  H
  H107     1.0000 0.99190  0.65560  0.21400  Biso   1.000  H
  H108     1.0000 0.05550  0.71240  0.20430  Biso   1.000  H
  C96      1.0000 0.07570  0.62610  0.16911  Biso   1.000  C
  C97      1.0000 0.06930  0.65910  0.13440  Biso   1.000  C
  C98      1.0000 0.01440  0.64120  0.11720  Biso   1.000  C
  H109     1.0000 0.98020  0.60780  0.12850  Biso   1.000  H
  C99      1.0000 0.00710  0.66950  0.08440  Biso   1.000  C
  C100     1.0000 0.05730  0.71890  0.06900  Biso   1.000  C
  H110     1.0000 0.05300  0.74010  0.04690  Biso   1.000  H
  C101     1.0000 0.11280  0.73800  0.08460  Biso   1.000  C
  C102     1.0000 0.11860  0.70790  0.11740  Biso   1.000  C
  H111     1.0000 0.15700  0.72090  0.12850  Biso   1.000  H
  C103     1.0000 0.94740  0.64650  0.06530  Biso   1.000  C
  C104     1.0000 0.16750  0.78730  0.06560  Biso   1.000  C
  Co5      1.0000 0.29600  0.83300  0.04470  Biso   1.000  Co
  C105     1.0000 0.06920  0.53570  0.19460  Biso   1.000  C
  H112     1.0000 0.06170  0.49630  0.19020  Biso   1.000  H
  C106     1.0000 0.06810  0.56940  0.16200  Biso   1.000  C
  C107     1.0000 0.09150  0.65120  0.20740  Biso   1.000  C
  C108     1.0000 0.09380  0.61810  0.23960  Biso   1.000  C
  H113     1.0000 0.10390  0.63510  0.26600  Biso   1.000  H
  C109     1.0000 0.05540  0.53890  0.12030  Biso   1.000  C
  H114     1.0000 0.08170  0.56760  0.10000  Biso   1.000  H
  H115     1.0000 0.01370  0.52440  0.11280  Biso   1.000  H
  H116     1.0000 0.06260  0.50520  0.12150  Biso   1.000  H
  C110     1.0000 0.10460  0.71460  0.21330  Biso   1.000  C
  H117     1.0000 0.14000  0.74180  0.19760  Biso   1.000  H
  H118     1.0000 0.11180  0.72500  0.24210  Biso   1.000  H
  H119     1.0000 0.07040  0.71790  0.20400  Biso   1.000  H
  H120     1.0000 0.25230  0.64660  0.97270  Biso   1.000  H
  H121     1.0000 0.20620  0.63680  0.00820  Biso   1.000  H
  H122     1.0000 0.27210  0.65070  0.01910  Biso   1.000  H
  H123     1.0000 0.48900  0.92270  0.97200  Biso   1.000  H
  H124     1.0000 0.49020  0.95200  0.01500  Biso   1.000  H
  H125     1.0000 0.48770  0.88900  0.01300  Biso   1.000  H
  Fe6      1.0000 0.16920  0.46520  0.05170  Biso   1.000  Fe
  O31      1.0000 0.40630  0.31540  0.07450  Biso   1.000  O
  O32      1.0000 0.32110  0.26160  0.04142  Biso   1.000  O
  O33      1.0000 0.18000  0.33960  0.04117  Biso   1.000  O
  O34      1.0000 0.20790  0.42340  0.07558  Biso   1.000  O
  O35      1.0000 0.25040  0.52880  0.03280  Biso   1.000  O
  O36      1.0000 0.13040  0.51320  0.03160  Biso   1.000  O
  C111     1.0000 0.44010  0.52130  0.23350  Biso   1.000  C
  C112     1.0000 0.44740  0.54520  0.19490  Biso   1.000  C
  H126     1.0000 0.47510  0.58620  0.19040  Biso   1.000  H
  C113     1.0000 0.41410  0.50900  0.16280  Biso   1.000  C
  C114     1.0000 0.36600  0.42490  0.20810  Biso   1.000  C
  C115     1.0000 0.39850  0.46130  0.24030  Biso   1.000  C
  H127     1.0000 0.39230  0.44540  0.26690  Biso   1.000  H
  C116     1.0000 0.41640  0.53120  0.12000  Biso   1.000  C
  H128     1.0000 0.39760  0.49710  0.10140  Biso   1.000  H
  H129     1.0000 0.45810  0.55740  0.11200  Biso   1.000  H
  H130     1.0000 0.39510  0.55350  0.11880  Biso   1.000  H
  C117     1.0000 0.32460  0.35930  0.21990  Biso   1.000  C
  H131     1.0000 0.31560  0.35680  0.24890  Biso   1.000  H
  H132     1.0000 0.34440  0.33630  0.21400  Biso   1.000  H
  H133     1.0000 0.28760  0.34310  0.20430  Biso   1.000  H
  C118     1.0000 0.37390  0.44960  0.16911  Biso   1.000  C
  C119     1.0000 0.34090  0.41020  0.13440  Biso   1.000  C
  C120     1.0000 0.35880  0.37320  0.11720  Biso   1.000  C
  H134     1.0000 0.39220  0.37240  0.12850  Biso   1.000  H
  C121     1.0000 0.33050  0.33760  0.08440  Biso   1.000  C
  C122     1.0000 0.28110  0.33840  0.06900  Biso   1.000  C
  H135     1.0000 0.25990  0.31290  0.04690  Biso   1.000  H
  C123     1.0000 0.26200  0.37480  0.08460  Biso   1.000  C
  C124     1.0000 0.29210  0.41070  0.11740  Biso   1.000  C
  H136     1.0000 0.27910  0.43610  0.12850  Biso   1.000  H
  C125     1.0000 0.35350  0.30090  0.06530  Biso   1.000  C
  C126     1.0000 0.21270  0.38020  0.06560  Biso   1.000  C
  Co6      1.0000 0.16700  0.46300  0.04470  Biso   1.000  Co
  C127     1.0000 0.46430  0.53350  0.19460  Biso   1.000  C
  H137     1.0000 0.50370  0.56540  0.19020  Biso   1.000  H
  C128     1.0000 0.43060  0.49870  0.16200  Biso   1.000  C
  C129     1.0000 0.34880  0.44030  0.20740  Biso   1.000  C
  C130     1.0000 0.38190  0.47570  0.23960  Biso   1.000  C
  H138     1.0000 0.36490  0.46880  0.26600  Biso   1.000  H
  C131     1.0000 0.46110  0.51650  0.12030  Biso   1.000  C
  H139     1.0000 0.43240  0.51410  0.10000  Biso   1.000  H
  H140     1.0000 0.47560  0.48930  0.11280  Biso   1.000  H
  H141     1.0000 0.49480  0.55740  0.12150  Biso   1.000  H
  C132     1.0000 0.28540  0.39000  0.21330  Biso   1.000  C
  H142     1.0000 0.25820  0.39820  0.19760  Biso   1.000  H
  H143     1.0000 0.27500  0.38680  0.24210  Biso   1.000  H
  H144     1.0000 0.28210  0.35250  0.20400  Biso   1.000  H
  H145     1.0000 0.35340  0.60570  0.97270  Biso   1.000  H
  H146     1.0000 0.36320  0.56940  0.00820  Biso   1.000  H
  H147     1.0000 0.34930  0.62140  0.01910  Biso   1.000  H
  H148     1.0000 0.07730  0.56630  0.97200  Biso   1.000  H
  H149     1.0000 0.04800  0.53820  0.01500  Biso   1.000  H
  H150     1.0000 0.11100  0.59870  0.01300  Biso   1.000  H
  Fe7      1.0000 0.29600  0.46520  0.44830  Biso   1.000  Fe
  O37      1.0000 0.90910  0.31540  0.42550  Biso   1.000  O
  O38      1.0000 0.94050  0.26160  0.45858  Biso   1.000  O
  O39      1.0000 0.15960  0.33960  0.45883  Biso   1.000  O
  O40      1.0000 0.21550  0.42340  0.42442  Biso   1.000  O
  O41      1.0000 0.27840  0.52880  0.46720  Biso   1.000  O
  O42      1.0000 0.38280  0.51320  0.46840  Biso   1.000  O
  C133     1.0000 0.08120  0.52130  0.26650  Biso   1.000  C
  C134     1.0000 0.09780  0.54520  0.30510  Biso   1.000  C
  H151     1.0000 0.11110  0.58620  0.30960  Biso   1.000  H
  C135     1.0000 0.09490  0.50900  0.33720  Biso   1.000  C
  C136     1.0000 0.05890  0.42490  0.29190  Biso   1.000  C
  C137     1.0000 0.06280  0.46130  0.25970  Biso   1.000  C
  H152     1.0000 0.05310  0.44540  0.23310  Biso   1.000  H
  C138     1.0000 0.11480  0.53120  0.38000  Biso   1.000  C
  H153     1.0000 0.09950  0.49710  0.39860  Biso   1.000  H
  H154     1.0000 0.09930  0.55740  0.38800  Biso   1.000  H
  H155     1.0000 0.15840  0.55350  0.38120  Biso   1.000  H
  C139     1.0000 0.03470  0.35930  0.28010  Biso   1.000  C
  H156     1.0000 0.04120  0.35680  0.25110  Biso   1.000  H
  H157     1.0000 0.99190  0.33630  0.28600  Biso   1.000  H
  H158     1.0000 0.05550  0.34310  0.29570  Biso   1.000  H
  C140     1.0000 0.07570  0.44960  0.33089  Biso   1.000  C
  C141     1.0000 0.06930  0.41020  0.36560  Biso   1.000  C
  C142     1.0000 0.01440  0.37320  0.38280  Biso   1.000  C
  H159     1.0000 0.98020  0.37240  0.37150  Biso   1.000  H
  C143     1.0000 0.00710  0.33760  0.41560  Biso   1.000  C
  C144     1.0000 0.05730  0.33840  0.43100  Biso   1.000  C
  H160     1.0000 0.05300  0.31290  0.45310  Biso   1.000  H
  C145     1.0000 0.11280  0.37480  0.41540  Biso   1.000  C
  C146     1.0000 0.11860  0.41070  0.38260  Biso   1.000  C
  H161     1.0000 0.15700  0.43610  0.37150  Biso   1.000  H
  C147     1.0000 0.94740  0.30090  0.43470  Biso   1.000  C
  C148     1.0000 0.16750  0.38020  0.43440  Biso   1.000  C
  Co7      1.0000 0.29600  0.46300  0.45530  Biso   1.000  Co
  C149     1.0000 0.06920  0.53350  0.30540  Biso   1.000  C
  H162     1.0000 0.06170  0.56540  0.30980  Biso   1.000  H
  C150     1.0000 0.06810  0.49870  0.33800  Biso   1.000  C
  C151     1.0000 0.09150  0.44030  0.29260  Biso   1.000  C
  C152     1.0000 0.09380  0.47570  0.26040  Biso   1.000  C
  H163     1.0000 0.10390  0.46880  0.23400  Biso   1.000  H
  C153     1.0000 0.05540  0.51650  0.37970  Biso   1.000  C
  H164     1.0000 0.08170  0.51410  0.40000  Biso   1.000  H
  H165     1.0000 0.01370  0.48930  0.38720  Biso   1.000  H
  H166     1.0000 0.06260  0.55740  0.37850  Biso   1.000  H
  C154     1.0000 0.10460  0.39000  0.28670  Biso   1.000  C
  H167     1.0000 0.14000  0.39820  0.30240  Biso   1.000  H
  H168     1.0000 0.11180  0.38680  0.25790  Biso   1.000  H
  H169     1.0000 0.07040  0.35250  0.29600  Biso   1.000  H
  H170     1.0000 0.25230  0.60570  0.52730  Biso   1.000  H
  H171     1.0000 0.20620  0.56940  0.49180  Biso   1.000  H
  H172     1.0000 0.27210  0.62140  0.48090  Biso   1.000  H
  H173     1.0000 0.48900  0.56630  0.52800  Biso   1.000  H
  H174     1.0000 0.49020  0.53820  0.48500  Biso   1.000  H
  H175     1.0000 0.48770  0.59870  0.48700  Biso   1.000  H
  Fe8      1.0000 0.16920  0.70400  0.44830  Biso   1.000  Fe
  O43      1.0000 0.40630  0.09090  0.42550  Biso   1.000  O
  O44      1.0000 0.32110  0.05950  0.45858  Biso   1.000  O
  O45      1.0000 0.18000  0.84040  0.45883  Biso   1.000  O
  O46      1.0000 0.20790  0.78450  0.42442  Biso   1.000  O
  O47      1.0000 0.25040  0.72160  0.46720  Biso   1.000  O
  O48      1.0000 0.13040  0.61720  0.46840  Biso   1.000  O
  C155     1.0000 0.44010  0.91880  0.26650  Biso   1.000  C
  C156     1.0000 0.44740  0.90220  0.30510  Biso   1.000  C
  H176     1.0000 0.47510  0.88890  0.30960  Biso   1.000  H
  C157     1.0000 0.41410  0.90510  0.33720  Biso   1.000  C
  C158     1.0000 0.36600  0.94110  0.29190  Biso   1.000  C
  C159     1.0000 0.39850  0.93720  0.25970  Biso   1.000  C
  H177     1.0000 0.39230  0.94690  0.23310  Biso   1.000  H
  C160     1.0000 0.41640  0.88520  0.38000  Biso   1.000  C
  H178     1.0000 0.39760  0.90050  0.39860  Biso   1.000  H
  H179     1.0000 0.45810  0.90070  0.38800  Biso   1.000  H
  H180     1.0000 0.39510  0.84160  0.38120  Biso   1.000  H
  C161     1.0000 0.32460  0.96530  0.28010  Biso   1.000  C
  H181     1.0000 0.31560  0.95880  0.25110  Biso   1.000  H
  H182     1.0000 0.34440  0.00810  0.28600  Biso   1.000  H
  H183     1.0000 0.28760  0.94450  0.29570  Biso   1.000  H
  C162     1.0000 0.37390  0.92430  0.33089  Biso   1.000  C
  C163     1.0000 0.34090  0.93070  0.36560  Biso   1.000  C
  C164     1.0000 0.35880  0.98560  0.38280  Biso   1.000  C
  H184     1.0000 0.39220  0.01980  0.37150  Biso   1.000  H
  C165     1.0000 0.33050  0.99290  0.41560  Biso   1.000  C
  C166     1.0000 0.28110  0.94270  0.43100  Biso   1.000  C
  H185     1.0000 0.25990  0.94700  0.45310  Biso   1.000  H
  C167     1.0000 0.26200  0.88720  0.41540  Biso   1.000  C
  C168     1.0000 0.29210  0.88140  0.38260  Biso   1.000  C
  H186     1.0000 0.27910  0.84300  0.37150  Biso   1.000  H
  C169     1.0000 0.35350  0.05260  0.43470  Biso   1.000  C
  C170     1.0000 0.21270  0.83250  0.43440  Biso   1.000  C
  Co8      1.0000 0.16700  0.70400  0.45530  Biso   1.000  Co
  C171     1.0000 0.46430  0.93080  0.30540  Biso   1.000  C
  H187     1.0000 0.50370  0.93830  0.30980  Biso   1.000  H
  C172     1.0000 0.43060  0.93190  0.33800  Biso   1.000  C
  C173     1.0000 0.34880  0.90850  0.29260  Biso   1.000  C
  C174     1.0000 0.38190  0.90620  0.26040  Biso   1.000  C
  H188     1.0000 0.36490  0.89610  0.23400  Biso   1.000  H
  C175     1.0000 0.46110  0.94460  0.37970  Biso   1.000  C
  H189     1.0000 0.43240  0.91830  0.40000  Biso   1.000  H
  H190     1.0000 0.47560  0.98630  0.38720  Biso   1.000  H
  H191     1.0000 0.49480  0.93740  0.37850  Biso   1.000  H
  C176     1.0000 0.28540  0.89540  0.28670  Biso   1.000  C
  H192     1.0000 0.25820  0.86000  0.30240  Biso   1.000  H
  H193     1.0000 0.27500  0.88820  0.25790  Biso   1.000  H
  H194     1.0000 0.28210  0.92960  0.29600  Biso   1.000  H
  H195     1.0000 0.35340  0.74770  0.52730  Biso   1.000  H
  H196     1.0000 0.36320  0.79380  0.49180  Biso   1.000  H
  H197     1.0000 0.34930  0.72790  0.48090  Biso   1.000  H
  H198     1.0000 0.07730  0.51100  0.52800  Biso   1.000  H
  H199     1.0000 0.04800  0.50980  0.48500  Biso   1.000  H
  H200     1.0000 0.11100  0.51230  0.48700  Biso   1.000  H
  Fe9      1.0000 0.53480  0.83080  0.44830  Biso   1.000  Fe
  O49      1.0000 0.68460  0.59370  0.42550  Biso   1.000  O
  O50      1.0000 0.73840  0.67890  0.45858  Biso   1.000  O
  O51      1.0000 0.66040  0.82000  0.45883  Biso   1.000  O
  O52      1.0000 0.57660  0.79210  0.42442  Biso   1.000  O
  O53      1.0000 0.47120  0.74960  0.46720  Biso   1.000  O
  O54      1.0000 0.48680  0.86960  0.46840  Biso   1.000  O
  C177     1.0000 0.47870  0.55990  0.26650  Biso   1.000  C
  C178     1.0000 0.45480  0.55260  0.30510  Biso   1.000  C
  H201     1.0000 0.41380  0.52490  0.30960  Biso   1.000  H
  C179     1.0000 0.49100  0.58590  0.33720  Biso   1.000  C
  C180     1.0000 0.57510  0.63400  0.29190  Biso   1.000  C
  C181     1.0000 0.53870  0.60150  0.25970  Biso   1.000  C
  H202     1.0000 0.55460  0.60770  0.23310  Biso   1.000  H
  C182     1.0000 0.46880  0.58360  0.38000  Biso   1.000  C
  H203     1.0000 0.50290  0.60240  0.39860  Biso   1.000  H
  H204     1.0000 0.44260  0.54190  0.38800  Biso   1.000  H
  H205     1.0000 0.44650  0.60490  0.38120  Biso   1.000  H
  C183     1.0000 0.64070  0.67540  0.28010  Biso   1.000  C
  H206     1.0000 0.64320  0.68440  0.25110  Biso   1.000  H
  H207     1.0000 0.66370  0.65560  0.28600  Biso   1.000  H
  H208     1.0000 0.65690  0.71240  0.29570  Biso   1.000  H
  C184     1.0000 0.55040  0.62610  0.33089  Biso   1.000  C
  C185     1.0000 0.58980  0.65910  0.36560  Biso   1.000  C
  C186     1.0000 0.62680  0.64120  0.38280  Biso   1.000  C
  H209     1.0000 0.62760  0.60780  0.37150  Biso   1.000  H
  C187     1.0000 0.66240  0.66950  0.41560  Biso   1.000  C
  C188     1.0000 0.66160  0.71890  0.43100  Biso   1.000  C
  H210     1.0000 0.68710  0.74010  0.45310  Biso   1.000  H
  C189     1.0000 0.62520  0.73800  0.41540  Biso   1.000  C
  C190     1.0000 0.58930  0.70790  0.38260  Biso   1.000  C
  H211     1.0000 0.56390  0.72090  0.37150  Biso   1.000  H
  C191     1.0000 0.69910  0.64650  0.43470  Biso   1.000  C
  C192     1.0000 0.61980  0.78730  0.43440  Biso   1.000  C
  Co9      1.0000 0.53700  0.83300  0.45530  Biso   1.000  Co
  C193     1.0000 0.46650  0.53570  0.30540  Biso   1.000  C
  H212     1.0000 0.43460  0.49630  0.30980  Biso   1.000  H
  C194     1.0000 0.50130  0.56940  0.33800  Biso   1.000  C
  C195     1.0000 0.55970  0.65120  0.29260  Biso   1.000  C
  C196     1.0000 0.52430  0.61810  0.26040  Biso   1.000  C
  H213     1.0000 0.53120  0.63510  0.23400  Biso   1.000  H
  C197     1.0000 0.48350  0.53890  0.37970  Biso   1.000  C
  H214     1.0000 0.48590  0.56760  0.40000  Biso   1.000  H
  H215     1.0000 0.51070  0.52440  0.38720  Biso   1.000  H
  H216     1.0000 0.44260  0.50520  0.37850  Biso   1.000  H
  C198     1.0000 0.61000  0.71460  0.28670  Biso   1.000  C
  H217     1.0000 0.60180  0.74180  0.30240  Biso   1.000  H
  H218     1.0000 0.61320  0.72500  0.25790  Biso   1.000  H
  H219     1.0000 0.64750  0.71790  0.29600  Biso   1.000  H
  H220     1.0000 0.39430  0.64660  0.52730  Biso   1.000  H
  H221     1.0000 0.43060  0.63680  0.49180  Biso   1.000  H
  H222     1.0000 0.37860  0.65070  0.48090  Biso   1.000  H
  H223     1.0000 0.43370  0.92270  0.52800  Biso   1.000  H
  H224     1.0000 0.46180  0.95200  0.48500  Biso   1.000  H
  H225     1.0000 0.40130  0.88900  0.48700  Biso   1.000  H
  Fe10     1.0000 0.70400  0.53480  0.44830  Biso   1.000  Fe
  O55      1.0000 0.09090  0.68460  0.42550  Biso   1.000  O
  O56      1.0000 0.05950  0.73840  0.45858  Biso   1.000  O
  O57      1.0000 0.84040  0.66040  0.45883  Biso   1.000  O
  O58      1.0000 0.78450  0.57660  0.42442  Biso   1.000  O
  O59      1.0000 0.72160  0.47120  0.46720  Biso   1.000  O
  O60      1.0000 0.61720  0.48680  0.46840  Biso   1.000  O
  C199     1.0000 0.91880  0.47870  0.26650  Biso   1.000  C
  C200     1.0000 0.90220  0.45480  0.30510  Biso   1.000  C
  H226     1.0000 0.88890  0.41380  0.30960  Biso   1.000  H
  C201     1.0000 0.90510  0.49100  0.33720  Biso   1.000  C
  C202     1.0000 0.94110  0.57510  0.29190  Biso   1.000  C
  C203     1.0000 0.93720  0.53870  0.25970  Biso   1.000  C
  H227     1.0000 0.94690  0.55460  0.23310  Biso   1.000  H
  C204     1.0000 0.88520  0.46880  0.38000  Biso   1.000  C
  H228     1.0000 0.90050  0.50290  0.39860  Biso   1.000  H
  H229     1.0000 0.90070  0.44260  0.38800  Biso   1.000  H
  H230     1.0000 0.84160  0.44650  0.38120  Biso   1.000  H
  C205     1.0000 0.96530  0.64070  0.28010  Biso   1.000  C
  H231     1.0000 0.95880  0.64320  0.25110  Biso   1.000  H
  H232     1.0000 0.00810  0.66370  0.28600  Biso   1.000  H
  H233     1.0000 0.94450  0.65690  0.29570  Biso   1.000  H
  C206     1.0000 0.92430  0.55040  0.33089  Biso   1.000  C
  C207     1.0000 0.93070  0.58980  0.36560  Biso   1.000  C
  C208     1.0000 0.98560  0.62680  0.38280  Biso   1.000  C
  H234     1.0000 0.01980  0.62760  0.37150  Biso   1.000  H
  C209     1.0000 0.99290  0.66240  0.41560  Biso   1.000  C
  C210     1.0000 0.94270  0.66160  0.43100  Biso   1.000  C
  H235     1.0000 0.94700  0.68710  0.45310  Biso   1.000  H
  C211     1.0000 0.88720  0.62520  0.41540  Biso   1.000  C
  C212     1.0000 0.88140  0.58930  0.38260  Biso   1.000  C
  H236     1.0000 0.84300  0.56390  0.37150  Biso   1.000  H
  C213     1.0000 0.05260  0.69910  0.43470  Biso   1.000  C
  C214     1.0000 0.83250  0.61980  0.43440  Biso   1.000  C
  Co10     1.0000 0.70400  0.53700  0.45530  Biso   1.000  Co
  C215     1.0000 0.93080  0.46650  0.30540  Biso   1.000  C
  H237     1.0000 0.93830  0.43460  0.30980  Biso   1.000  H
  C216     1.0000 0.93190  0.50130  0.33800  Biso   1.000  C
  C217     1.0000 0.90850  0.55970  0.29260  Biso   1.000  C
  C218     1.0000 0.90620  0.52430  0.26040  Biso   1.000  C
  H238     1.0000 0.89610  0.53120  0.23400  Biso   1.000  H
  C219     1.0000 0.94460  0.48350  0.37970  Biso   1.000  C
  H239     1.0000 0.91830  0.48590  0.40000  Biso   1.000  H
  H240     1.0000 0.98630  0.51070  0.38720  Biso   1.000  H
  H241     1.0000 0.93740  0.44260  0.37850  Biso   1.000  H
  C220     1.0000 0.89540  0.61000  0.28670  Biso   1.000  C
  H242     1.0000 0.86000  0.60180  0.30240  Biso   1.000  H
  H243     1.0000 0.88820  0.61320  0.25790  Biso   1.000  H
  H244     1.0000 0.92960  0.64750  0.29600  Biso   1.000  H
  H245     1.0000 0.74770  0.39430  0.52730  Biso   1.000  H
  H246     1.0000 0.79380  0.43060  0.49180  Biso   1.000  H
  H247     1.0000 0.72790  0.37860  0.48090  Biso   1.000  H
  H248     1.0000 0.51100  0.43370  0.52800  Biso   1.000  H
  H249     1.0000 0.50980  0.46180  0.48500  Biso   1.000  H
  H250     1.0000 0.51230  0.40130  0.48700  Biso   1.000  H
  Fe11     1.0000 0.83080  0.29600  0.44830  Biso   1.000  Fe
  O61      1.0000 0.59370  0.90910  0.42550  Biso   1.000  O
  O62      1.0000 0.67890  0.94050  0.45858  Biso   1.000  O
  O63      1.0000 0.82000  0.15960  0.45883  Biso   1.000  O
  O64      1.0000 0.79210  0.21550  0.42442  Biso   1.000  O
  O65      1.0000 0.74960  0.27840  0.46720  Biso   1.000  O
  O66      1.0000 0.86960  0.38280  0.46840  Biso   1.000  O
  C221     1.0000 0.55990  0.08120  0.26650  Biso   1.000  C
  C222     1.0000 0.55260  0.09780  0.30510  Biso   1.000  C
  H251     1.0000 0.52490  0.11110  0.30960  Biso   1.000  H
  C223     1.0000 0.58590  0.09490  0.33720  Biso   1.000  C
  C224     1.0000 0.63400  0.05890  0.29190  Biso   1.000  C
  C225     1.0000 0.60150  0.06280  0.25970  Biso   1.000  C
  H252     1.0000 0.60770  0.05310  0.23310  Biso   1.000  H
  C226     1.0000 0.58360  0.11480  0.38000  Biso   1.000  C
  H253     1.0000 0.60240  0.09950  0.39860  Biso   1.000  H
  H254     1.0000 0.54190  0.09930  0.38800  Biso   1.000  H
  H255     1.0000 0.60490  0.15840  0.38120  Biso   1.000  H
  C227     1.0000 0.67540  0.03470  0.28010  Biso   1.000  C
  H256     1.0000 0.68440  0.04120  0.25110  Biso   1.000  H
  H257     1.0000 0.65560  0.99190  0.28600  Biso   1.000  H
  H258     1.0000 0.71240  0.05550  0.29570  Biso   1.000  H
  C228     1.0000 0.62610  0.07570  0.33089  Biso   1.000  C
  C229     1.0000 0.65910  0.06930  0.36560  Biso   1.000  C
  C230     1.0000 0.64120  0.01440  0.38280  Biso   1.000  C
  H259     1.0000 0.60780  0.98020  0.37150  Biso   1.000  H
  C231     1.0000 0.66950  0.00710  0.41560  Biso   1.000  C
  C232     1.0000 0.71890  0.05730  0.43100  Biso   1.000  C
  H260     1.0000 0.74010  0.05300  0.45310  Biso   1.000  H
  C233     1.0000 0.73800  0.11280  0.41540  Biso   1.000  C
  C234     1.0000 0.70790  0.11860  0.38260  Biso   1.000  C
  H261     1.0000 0.72090  0.15700  0.37150  Biso   1.000  H
  C235     1.0000 0.64650  0.94740  0.43470  Biso   1.000  C
  C236     1.0000 0.78730  0.16750  0.43440  Biso   1.000  C
  Co11     1.0000 0.83300  0.29600  0.45530  Biso   1.000  Co
  C237     1.0000 0.53570  0.06920  0.30540  Biso   1.000  C
  H262     1.0000 0.49630  0.06170  0.30980  Biso   1.000  H
  C238     1.0000 0.56940  0.06810  0.33800  Biso   1.000  C
  C239     1.0000 0.65120  0.09150  0.29260  Biso   1.000  C
  C240     1.0000 0.61810  0.09380  0.26040  Biso   1.000  C
  H263     1.0000 0.63510  0.10390  0.23400  Biso   1.000  H
  C241     1.0000 0.53890  0.05540  0.37970  Biso   1.000  C
  H264     1.0000 0.56760  0.08170  0.40000  Biso   1.000  H
  H265     1.0000 0.52440  0.01370  0.38720  Biso   1.000  H
  H266     1.0000 0.50520  0.06260  0.37850  Biso   1.000  H
  C242     1.0000 0.71460  0.10460  0.28670  Biso   1.000  C
  H267     1.0000 0.74180  0.14000  0.30240  Biso   1.000  H
  H268     1.0000 0.72500  0.11180  0.25790  Biso   1.000  H
  H269     1.0000 0.71790  0.07040  0.29600  Biso   1.000  H
  H270     1.0000 0.64660  0.25230  0.52730  Biso   1.000  H
  H271     1.0000 0.63680  0.20620  0.49180  Biso   1.000  H
  H272     1.0000 0.65070  0.27210  0.48090  Biso   1.000  H
  H273     1.0000 0.92270  0.48900  0.52800  Biso   1.000  H
  H274     1.0000 0.95200  0.49020  0.48500  Biso   1.000  H
  H275     1.0000 0.88900  0.48770  0.48700  Biso   1.000  H
  Fe12     1.0000 0.46520  0.16920  0.44830  Biso   1.000  Fe
  O67      1.0000 0.31540  0.40630  0.42550  Biso   1.000  O
  O68      1.0000 0.26160  0.32110  0.45858  Biso   1.000  O
  O69      1.0000 0.33960  0.18000  0.45883  Biso   1.000  O
  O70      1.0000 0.42340  0.20790  0.42442  Biso   1.000  O
  O71      1.0000 0.52880  0.25040  0.46720  Biso   1.000  O
  O72      1.0000 0.51320  0.13040  0.46840  Biso   1.000  O
  C243     1.0000 0.52130  0.44010  0.26650  Biso   1.000  C
  C244     1.0000 0.54520  0.44740  0.30510  Biso   1.000  C
  H276     1.0000 0.58620  0.47510  0.30960  Biso   1.000  H
  C245     1.0000 0.50900  0.41410  0.33720  Biso   1.000  C
  C246     1.0000 0.42490  0.36600  0.29190  Biso   1.000  C
  C247     1.0000 0.46130  0.39850  0.25970  Biso   1.000  C
  H277     1.0000 0.44540  0.39230  0.23310  Biso   1.000  H
  C248     1.0000 0.53120  0.41640  0.38000  Biso   1.000  C
  H278     1.0000 0.49710  0.39760  0.39860  Biso   1.000  H
  H279     1.0000 0.55740  0.45810  0.38800  Biso   1.000  H
  H280     1.0000 0.55350  0.39510  0.38120  Biso   1.000  H
  C249     1.0000 0.35930  0.32460  0.28010  Biso   1.000  C
  H281     1.0000 0.35680  0.31560  0.25110  Biso   1.000  H
  H282     1.0000 0.33630  0.34440  0.28600  Biso   1.000  H
  H283     1.0000 0.34310  0.28760  0.29570  Biso   1.000  H
  C250     1.0000 0.44960  0.37390  0.33089  Biso   1.000  C
  C251     1.0000 0.41020  0.34090  0.36560  Biso   1.000  C
  C252     1.0000 0.37320  0.35880  0.38280  Biso   1.000  C
  H284     1.0000 0.37240  0.39220  0.37150  Biso   1.000  H
  C253     1.0000 0.33760  0.33050  0.41560  Biso   1.000  C
  C254     1.0000 0.33840  0.28110  0.43100  Biso   1.000  C
  H285     1.0000 0.31290  0.25990  0.45310  Biso   1.000  H
  C255     1.0000 0.37480  0.26200  0.41540  Biso   1.000  C
  C256     1.0000 0.41070  0.29210  0.38260  Biso   1.000  C
  H286     1.0000 0.43610  0.27910  0.37150  Biso   1.000  H
  C257     1.0000 0.30090  0.35350  0.43470  Biso   1.000  C
  C258     1.0000 0.38020  0.21270  0.43440  Biso   1.000  C
  Co12     1.0000 0.46300  0.16700  0.45530  Biso   1.000  Co
  C259     1.0000 0.53350  0.46430  0.30540  Biso   1.000  C
  H287     1.0000 0.56540  0.50370  0.30980  Biso   1.000  H
  C260     1.0000 0.49870  0.43060  0.33800  Biso   1.000  C
  C261     1.0000 0.44030  0.34880  0.29260  Biso   1.000  C
  C262     1.0000 0.47570  0.38190  0.26040  Biso   1.000  C
  H288     1.0000 0.46880  0.36490  0.23400  Biso   1.000  H
  C263     1.0000 0.51650  0.46110  0.37970  Biso   1.000  C
  H289     1.0000 0.51410  0.43240  0.40000  Biso   1.000  H
  H290     1.0000 0.48930  0.47560  0.38720  Biso   1.000  H
  H291     1.0000 0.55740  0.49480  0.37850  Biso   1.000  H
  C264     1.0000 0.39000  0.28540  0.28670  Biso   1.000  C
  H292     1.0000 0.39820  0.25820  0.30240  Biso   1.000  H
  H293     1.0000 0.38680  0.27500  0.25790  Biso   1.000  H
  H294     1.0000 0.35250  0.28210  0.29600  Biso   1.000  H
  H295     1.0000 0.60570  0.35340  0.52730  Biso   1.000  H
  H296     1.0000 0.56940  0.36320  0.49180  Biso   1.000  H
  H297     1.0000 0.62140  0.34930  0.48090  Biso   1.000  H
  H298     1.0000 0.56630  0.07730  0.52800  Biso   1.000  H
  H299     1.0000 0.53820  0.04800  0.48500  Biso   1.000  H
  H300     1.0000 0.59870  0.11100  0.48700  Biso   1.000  H
  Fe13     1.0000 0.53480  0.70400  0.94830  Biso   1.000  Fe
  O73      1.0000 0.68460  0.09090  0.92550  Biso   1.000  O
  O74      1.0000 0.73840  0.05950  0.95858  Biso   1.000  O
  O75      1.0000 0.66040  0.84040  0.95883  Biso   1.000  O
  O76      1.0000 0.57660  0.78450  0.92442  Biso   1.000  O
  O77      1.0000 0.47120  0.72160  0.96720  Biso   1.000  O
  O78      1.0000 0.48680  0.61720  0.96840  Biso   1.000  O
  C265     1.0000 0.47870  0.91880  0.76650  Biso   1.000  C
  C266     1.0000 0.45480  0.90220  0.80510  Biso   1.000  C
  H301     1.0000 0.41380  0.88890  0.80960  Biso   1.000  H
  C267     1.0000 0.49100  0.90510  0.83720  Biso   1.000  C
  C268     1.0000 0.57510  0.94110  0.79190  Biso   1.000  C
  C269     1.0000 0.53870  0.93720  0.75970  Biso   1.000  C
  H302     1.0000 0.55460  0.94690  0.73310  Biso   1.000  H
  C270     1.0000 0.46880  0.88520  0.88000  Biso   1.000  C
  H303     1.0000 0.50290  0.90050  0.89860  Biso   1.000  H
  H304     1.0000 0.44260  0.90070  0.88800  Biso   1.000  H
  H305     1.0000 0.44650  0.84160  0.88120  Biso   1.000  H
  C271     1.0000 0.64070  0.96530  0.78010  Biso   1.000  C
  H306     1.0000 0.64320  0.95880  0.75110  Biso   1.000  H
  H307     1.0000 0.66370  0.00810  0.78600  Biso   1.000  H
  H308     1.0000 0.65690  0.94450  0.79570  Biso   1.000  H
  C272     1.0000 0.55040  0.92430  0.83089  Biso   1.000  C
  C273     1.0000 0.58980  0.93070  0.86560  Biso   1.000  C
  C274     1.0000 0.62680  0.98560  0.88280  Biso   1.000  C
  H309     1.0000 0.62760  0.01980  0.87150  Biso   1.000  H
  C275     1.0000 0.66240  0.99290  0.91560  Biso   1.000  C
  C276     1.0000 0.66160  0.94270  0.93100  Biso   1.000  C
  H310     1.0000 0.68710  0.94700  0.95310  Biso   1.000  H
  C277     1.0000 0.62520  0.88720  0.91540  Biso   1.000  C
  C278     1.0000 0.58930  0.88140  0.88260  Biso   1.000  C
  H311     1.0000 0.56390  0.84300  0.87150  Biso   1.000  H
  C279     1.0000 0.69910  0.05260  0.93470  Biso   1.000  C
  C280     1.0000 0.61980  0.83250  0.93440  Biso   1.000  C
  Co13     1.0000 0.53700  0.70400  0.95530  Biso   1.000  Co
  C281     1.0000 0.46650  0.93080  0.80540  Biso   1.000  C
  H312     1.0000 0.43460  0.93830  0.80980  Biso   1.000  H
  C282     1.0000 0.50130  0.93190  0.83800  Biso   1.000  C
  C283     1.0000 0.55970  0.90850  0.79260  Biso   1.000  C
  C284     1.0000 0.52430  0.90620  0.76040  Biso   1.000  C
  H313     1.0000 0.53120  0.89610  0.73400  Biso   1.000  H
  C285     1.0000 0.48350  0.94460  0.87970  Biso   1.000  C
  H314     1.0000 0.48590  0.91830  0.90000  Biso   1.000  H
  H315     1.0000 0.51070  0.98630  0.88720  Biso   1.000  H
  H316     1.0000 0.44260  0.93740  0.87850  Biso   1.000  H
  C286     1.0000 0.61000  0.89540  0.78670  Biso   1.000  C
  H317     1.0000 0.60180  0.86000  0.80240  Biso   1.000  H
  H318     1.0000 0.61320  0.88820  0.75790  Biso   1.000  H
  H319     1.0000 0.64750  0.92960  0.79600  Biso   1.000  H
  H320     1.0000 0.39430  0.74770  0.02730  Biso   1.000  H
  H321     1.0000 0.43060  0.79380  0.99180  Biso   1.000  H
  H322     1.0000 0.37860  0.72790  0.98090  Biso   1.000  H
  H323     1.0000 0.43370  0.51100  0.02800  Biso   1.000  H
  H324     1.0000 0.46180  0.50980  0.98500  Biso   1.000  H
  H325     1.0000 0.40130  0.51230  0.98700  Biso   1.000  H
  Fe14     1.0000 0.29600  0.83080  0.94830  Biso   1.000  Fe
  O79      1.0000 0.90910  0.59370  0.92550  Biso   1.000  O
  O80      1.0000 0.94050  0.67890  0.95858  Biso   1.000  O
  O81      1.0000 0.15960  0.82000  0.95883  Biso   1.000  O
  O82      1.0000 0.21550  0.79210  0.92442  Biso   1.000  O
  O83      1.0000 0.27840  0.74960  0.96720  Biso   1.000  O
  O84      1.0000 0.38280  0.86960  0.96840  Biso   1.000  O
  C287     1.0000 0.08120  0.55990  0.76650  Biso   1.000  C
  C288     1.0000 0.09780  0.55260  0.80510  Biso   1.000  C
  H326     1.0000 0.11110  0.52490  0.80960  Biso   1.000  H
  C289     1.0000 0.09490  0.58590  0.83720  Biso   1.000  C
  C290     1.0000 0.05890  0.63400  0.79190  Biso   1.000  C
  C291     1.0000 0.06280  0.60150  0.75970  Biso   1.000  C
  H327     1.0000 0.05310  0.60770  0.73310  Biso   1.000  H
  C292     1.0000 0.11480  0.58360  0.88000  Biso   1.000  C
  H328     1.0000 0.09950  0.60240  0.89860  Biso   1.000  H
  H329     1.0000 0.09930  0.54190  0.88800  Biso   1.000  H
  H330     1.0000 0.15840  0.60490  0.88120  Biso   1.000  H
  C293     1.0000 0.03470  0.67540  0.78010  Biso   1.000  C
  H331     1.0000 0.04120  0.68440  0.75110  Biso   1.000  H
  H332     1.0000 0.99190  0.65560  0.78600  Biso   1.000  H
  H333     1.0000 0.05550  0.71240  0.79570  Biso   1.000  H
  C294     1.0000 0.07570  0.62610  0.83089  Biso   1.000  C
  C295     1.0000 0.06930  0.65910  0.86560  Biso   1.000  C
  C296     1.0000 0.01440  0.64120  0.88280  Biso   1.000  C
  H334     1.0000 0.98020  0.60780  0.87150  Biso   1.000  H
  C297     1.0000 0.00710  0.66950  0.91560  Biso   1.000  C
  C298     1.0000 0.05730  0.71890  0.93100  Biso   1.000  C
  H335     1.0000 0.05300  0.74010  0.95310  Biso   1.000  H
  C299     1.0000 0.11280  0.73800  0.91540  Biso   1.000  C
  C300     1.0000 0.11860  0.70790  0.88260  Biso   1.000  C
  H336     1.0000 0.15700  0.72090  0.87150  Biso   1.000  H
  C301     1.0000 0.94740  0.64650  0.93470  Biso   1.000  C
  C302     1.0000 0.16750  0.78730  0.93440  Biso   1.000  C
  Co14     1.0000 0.29600  0.83300  0.95530  Biso   1.000  Co
  C303     1.0000 0.06920  0.53570  0.80540  Biso   1.000  C
  H337     1.0000 0.06170  0.49630  0.80980  Biso   1.000  H
  C304     1.0000 0.06810  0.56940  0.83800  Biso   1.000  C
  C305     1.0000 0.09150  0.65120  0.79260  Biso   1.000  C
  C306     1.0000 0.09380  0.61810  0.76040  Biso   1.000  C
  H338     1.0000 0.10390  0.63510  0.73400  Biso   1.000  H
  C307     1.0000 0.05540  0.53890  0.87970  Biso   1.000  C
  H339     1.0000 0.08170  0.56760  0.90000  Biso   1.000  H
  H340     1.0000 0.01370  0.52440  0.88720  Biso   1.000  H
  H341     1.0000 0.06260  0.50520  0.87850  Biso   1.000  H
  C308     1.0000 0.10460  0.71460  0.78670  Biso   1.000  C
  H342     1.0000 0.14000  0.74180  0.80240  Biso   1.000  H
  H343     1.0000 0.11180  0.72500  0.75790  Biso   1.000  H
  H344     1.0000 0.07040  0.71790  0.79600  Biso   1.000  H
  H345     1.0000 0.25230  0.64660  0.02730  Biso   1.000  H
  H346     1.0000 0.20620  0.63680  0.99180  Biso   1.000  H
  H347     1.0000 0.27210  0.65070  0.98090  Biso   1.000  H
  H348     1.0000 0.48900  0.92270  0.02800  Biso   1.000  H
  H349     1.0000 0.49020  0.95200  0.98500  Biso   1.000  H
  H350     1.0000 0.48770  0.88900  0.98700  Biso   1.000  H
  Fe15     1.0000 0.16920  0.46520  0.94830  Biso   1.000  Fe
  O85      1.0000 0.40630  0.31540  0.92550  Biso   1.000  O
  O86      1.0000 0.32110  0.26160  0.95858  Biso   1.000  O
  O87      1.0000 0.18000  0.33960  0.95883  Biso   1.000  O
  O88      1.0000 0.20790  0.42340  0.92442  Biso   1.000  O
  O89      1.0000 0.25040  0.52880  0.96720  Biso   1.000  O
  O90      1.0000 0.13040  0.51320  0.96840  Biso   1.000  O
  C309     1.0000 0.44010  0.52130  0.76650  Biso   1.000  C
  C310     1.0000 0.44740  0.54520  0.80510  Biso   1.000  C
  H351     1.0000 0.47510  0.58620  0.80960  Biso   1.000  H
  C311     1.0000 0.41410  0.50900  0.83720  Biso   1.000  C
  C312     1.0000 0.36600  0.42490  0.79190  Biso   1.000  C
  C313     1.0000 0.39850  0.46130  0.75970  Biso   1.000  C
  H352     1.0000 0.39230  0.44540  0.73310  Biso   1.000  H
  C314     1.0000 0.41640  0.53120  0.88000  Biso   1.000  C
  H353     1.0000 0.39760  0.49710  0.89860  Biso   1.000  H
  H354     1.0000 0.45810  0.55740  0.88800  Biso   1.000  H
  H355     1.0000 0.39510  0.55350  0.88120  Biso   1.000  H
  C315     1.0000 0.32460  0.35930  0.78010  Biso   1.000  C
  H356     1.0000 0.31560  0.35680  0.75110  Biso   1.000  H
  H357     1.0000 0.34440  0.33630  0.78600  Biso   1.000  H
  H358     1.0000 0.28760  0.34310  0.79570  Biso   1.000  H
  C316     1.0000 0.37390  0.44960  0.83089  Biso   1.000  C
  C317     1.0000 0.34090  0.41020  0.86560  Biso   1.000  C
  C318     1.0000 0.35880  0.37320  0.88280  Biso   1.000  C
  H359     1.0000 0.39220  0.37240  0.87150  Biso   1.000  H
  C319     1.0000 0.33050  0.33760  0.91560  Biso   1.000  C
  C320     1.0000 0.28110  0.33840  0.93100  Biso   1.000  C
  H360     1.0000 0.25990  0.31290  0.95310  Biso   1.000  H
  C321     1.0000 0.26200  0.37480  0.91540  Biso   1.000  C
  C322     1.0000 0.29210  0.41070  0.88260  Biso   1.000  C
  H361     1.0000 0.27910  0.43610  0.87150  Biso   1.000  H
  C323     1.0000 0.35350  0.30090  0.93470  Biso   1.000  C
  C324     1.0000 0.21270  0.38020  0.93440  Biso   1.000  C
  Co15     1.0000 0.16700  0.46300  0.95530  Biso   1.000  Co
  C325     1.0000 0.46430  0.53350  0.80540  Biso   1.000  C
  H362     1.0000 0.50370  0.56540  0.80980  Biso   1.000  H
  C326     1.0000 0.43060  0.49870  0.83800  Biso   1.000  C
  C327     1.0000 0.34880  0.44030  0.79260  Biso   1.000  C
  C328     1.0000 0.38190  0.47570  0.76040  Biso   1.000  C
  H363     1.0000 0.36490  0.46880  0.73400  Biso   1.000  H
  C329     1.0000 0.46110  0.51650  0.87970  Biso   1.000  C
  H364     1.0000 0.43240  0.51410  0.90000  Biso   1.000  H
  H365     1.0000 0.47560  0.48930  0.88720  Biso   1.000  H
  H366     1.0000 0.49480  0.55740  0.87850  Biso   1.000  H
  C330     1.0000 0.28540  0.39000  0.78670  Biso   1.000  C
  H367     1.0000 0.25820  0.39820  0.80240  Biso   1.000  H
  H368     1.0000 0.27500  0.38680  0.75790  Biso   1.000  H
  H369     1.0000 0.28210  0.35250  0.79600  Biso   1.000  H
  H370     1.0000 0.35340  0.60570  0.02730  Biso   1.000  H
  H371     1.0000 0.36320  0.56940  0.99180  Biso   1.000  H
  H372     1.0000 0.34930  0.62140  0.98090  Biso   1.000  H
  H373     1.0000 0.07730  0.56630  0.02800  Biso   1.000  H
  H374     1.0000 0.04800  0.53820  0.98500  Biso   1.000  H
  H375     1.0000 0.11100  0.59870  0.98700  Biso   1.000  H
  Fe16     1.0000 0.46520  0.29600  0.94830  Biso   1.000  Fe
  O91      1.0000 0.31540  0.90910  0.92550  Biso   1.000  O
  O92      1.0000 0.26160  0.94050  0.95858  Biso   1.000  O
  O93      1.0000 0.33960  0.15960  0.95883  Biso   1.000  O
  O94      1.0000 0.42340  0.21550  0.92442  Biso   1.000  O
  O95      1.0000 0.52880  0.27840  0.96720  Biso   1.000  O
  O96      1.0000 0.51320  0.38280  0.96840  Biso   1.000  O
  C331     1.0000 0.52130  0.08120  0.76650  Biso   1.000  C
  C332     1.0000 0.54520  0.09780  0.80510  Biso   1.000  C
  H376     1.0000 0.58620  0.11110  0.80960  Biso   1.000  H
  C333     1.0000 0.50900  0.09490  0.83720  Biso   1.000  C
  C334     1.0000 0.42490  0.05890  0.79190  Biso   1.000  C
  C335     1.0000 0.46130  0.06280  0.75970  Biso   1.000  C
  H377     1.0000 0.44540  0.05310  0.73310  Biso   1.000  H
  C336     1.0000 0.53120  0.11480  0.88000  Biso   1.000  C
  H378     1.0000 0.49710  0.09950  0.89860  Biso   1.000  H
  H379     1.0000 0.55740  0.09930  0.88800  Biso   1.000  H
  H380     1.0000 0.55350  0.15840  0.88120  Biso   1.000  H
  C337     1.0000 0.35930  0.03470  0.78010  Biso   1.000  C
  H381     1.0000 0.35680  0.04120  0.75110  Biso   1.000  H
  H382     1.0000 0.33630  0.99190  0.78600  Biso   1.000  H
  H383     1.0000 0.34310  0.05550  0.79570  Biso   1.000  H
  C338     1.0000 0.44960  0.07570  0.83089  Biso   1.000  C
  C339     1.0000 0.41020  0.06930  0.86560  Biso   1.000  C
  C340     1.0000 0.37320  0.01440  0.88280  Biso   1.000  C
  H384     1.0000 0.37240  0.98020  0.87150  Biso   1.000  H
  C341     1.0000 0.33760  0.00710  0.91560  Biso   1.000  C
  C342     1.0000 0.33840  0.05730  0.93100  Biso   1.000  C
  H385     1.0000 0.31290  0.05300  0.95310  Biso   1.000  H
  C343     1.0000 0.37480  0.11280  0.91540  Biso   1.000  C
  C344     1.0000 0.41070  0.11860  0.88260  Biso   1.000  C
  H386     1.0000 0.43610  0.15700  0.87150  Biso   1.000  H
  C345     1.0000 0.30090  0.94740  0.93470  Biso   1.000  C
  C346     1.0000 0.38020  0.16750  0.93440  Biso   1.000  C
  Co16     1.0000 0.46300  0.29600  0.95530  Biso   1.000  Co
  C347     1.0000 0.53350  0.06920  0.80540  Biso   1.000  C
  H387     1.0000 0.56540  0.06170  0.80980  Biso   1.000  H
  C348     1.0000 0.49870  0.06810  0.83800  Biso   1.000  C
  C349     1.0000 0.44030  0.09150  0.79260  Biso   1.000  C
  C350     1.0000 0.47570  0.09380  0.76040  Biso   1.000  C
  H388     1.0000 0.46880  0.10390  0.73400  Biso   1.000  H
  C351     1.0000 0.51650  0.05540  0.87970  Biso   1.000  C
  H389     1.0000 0.51410  0.08170  0.90000  Biso   1.000  H
  H390     1.0000 0.48930  0.01370  0.88720  Biso   1.000  H
  H391     1.0000 0.55740  0.06260  0.87850  Biso   1.000  H
  C352     1.0000 0.39000  0.10460  0.78670  Biso   1.000  C
  H392     1.0000 0.39820  0.14000  0.80240  Biso   1.000  H
  H393     1.0000 0.38680  0.11180  0.75790  Biso   1.000  H
  H394     1.0000 0.35250  0.07040  0.79600  Biso   1.000  H
  H395     1.0000 0.60570  0.25230  0.02730  Biso   1.000  H
  H396     1.0000 0.56940  0.20620  0.99180  Biso   1.000  H
  H397     1.0000 0.62140  0.27210  0.98090  Biso   1.000  H
  H398     1.0000 0.56630  0.48900  0.02800  Biso   1.000  H
  H399     1.0000 0.53820  0.49020  0.98500  Biso   1.000  H
  H400     1.0000 0.59870  0.48770  0.98700  Biso   1.000  H
  Fe17     1.0000 0.70400  0.16920  0.94830  Biso   1.000  Fe
  O97      1.0000 0.09090  0.40630  0.92550  Biso   1.000  O
  O98      1.0000 0.05950  0.32110  0.95858  Biso   1.000  O
  O99      1.0000 0.84040  0.18000  0.95883  Biso   1.000  O
  O100     1.0000 0.78450  0.20790  0.92442  Biso   1.000  O
  O101     1.0000 0.72160  0.25040  0.96720  Biso   1.000  O
  O102     1.0000 0.61720  0.13040  0.96840  Biso   1.000  O
  C353     1.0000 0.91880  0.44010  0.76650  Biso   1.000  C
  C354     1.0000 0.90220  0.44740  0.80510  Biso   1.000  C
  H401     1.0000 0.88890  0.47510  0.80960  Biso   1.000  H
  C355     1.0000 0.90510  0.41410  0.83720  Biso   1.000  C
  C356     1.0000 0.94110  0.36600  0.79190  Biso   1.000  C
  C357     1.0000 0.93720  0.39850  0.75970  Biso   1.000  C
  H402     1.0000 0.94690  0.39230  0.73310  Biso   1.000  H
  C358     1.0000 0.88520  0.41640  0.88000  Biso   1.000  C
  H403     1.0000 0.90050  0.39760  0.89860  Biso   1.000  H
  H404     1.0000 0.90070  0.45810  0.88800  Biso   1.000  H
  H405     1.0000 0.84160  0.39510  0.88120  Biso   1.000  H
  C359     1.0000 0.96530  0.32460  0.78010  Biso   1.000  C
  H406     1.0000 0.95880  0.31560  0.75110  Biso   1.000  H
  H407     1.0000 0.00810  0.34440  0.78600  Biso   1.000  H
  H408     1.0000 0.94450  0.28760  0.79570  Biso   1.000  H
  C360     1.0000 0.92430  0.37390  0.83089  Biso   1.000  C
  C361     1.0000 0.93070  0.34090  0.86560  Biso   1.000  C
  C362     1.0000 0.98560  0.35880  0.88280  Biso   1.000  C
  H409     1.0000 0.01980  0.39220  0.87150  Biso   1.000  H
  C363     1.0000 0.99290  0.33050  0.91560  Biso   1.000  C
  C364     1.0000 0.94270  0.28110  0.93100  Biso   1.000  C
  H410     1.0000 0.94700  0.25990  0.95310  Biso   1.000  H
  C365     1.0000 0.88720  0.26200  0.91540  Biso   1.000  C
  C366     1.0000 0.88140  0.29210  0.88260  Biso   1.000  C
  H411     1.0000 0.84300  0.27910  0.87150  Biso   1.000  H
  C367     1.0000 0.05260  0.35350  0.93470  Biso   1.000  C
  C368     1.0000 0.83250  0.21270  0.93440  Biso   1.000  C
  Co17     1.0000 0.70400  0.16700  0.95530  Biso   1.000  Co
  C369     1.0000 0.93080  0.46430  0.80540  Biso   1.000  C
  H412     1.0000 0.93830  0.50370  0.80980  Biso   1.000  H
  C370     1.0000 0.93190  0.43060  0.83800  Biso   1.000  C
  C371     1.0000 0.90850  0.34880  0.79260  Biso   1.000  C
  C372     1.0000 0.90620  0.38190  0.76040  Biso   1.000  C
  H413     1.0000 0.89610  0.36490  0.73400  Biso   1.000  H
  C373     1.0000 0.94460  0.46110  0.87970  Biso   1.000  C
  H414     1.0000 0.91830  0.43240  0.90000  Biso   1.000  H
  H415     1.0000 0.98630  0.47560  0.88720  Biso   1.000  H
  H416     1.0000 0.93740  0.49480  0.87850  Biso   1.000  H
  C374     1.0000 0.89540  0.28540  0.78670  Biso   1.000  C
  H417     1.0000 0.86000  0.25820  0.80240  Biso   1.000  H
  H418     1.0000 0.88820  0.27500  0.75790  Biso   1.000  H
  H419     1.0000 0.92960  0.28210  0.79600  Biso   1.000  H
  H420     1.0000 0.74770  0.35340  0.02730  Biso   1.000  H
  H421     1.0000 0.79380  0.36320  0.99180  Biso   1.000  H
  H422     1.0000 0.72790  0.34930  0.98090  Biso   1.000  H
  H423     1.0000 0.51100  0.07730  0.02800  Biso   1.000  H
  H424     1.0000 0.50980  0.04800  0.98500  Biso   1.000  H
  H425     1.0000 0.51230  0.11100  0.98700  Biso   1.000  H
  Fe18     1.0000 0.83080  0.53480  0.94830  Biso   1.000  Fe
  O103     1.0000 0.59370  0.68460  0.92550  Biso   1.000  O
  O104     1.0000 0.67890  0.73840  0.95858  Biso   1.000  O
  O105     1.0000 0.82000  0.66040  0.95883  Biso   1.000  O
  O106     1.0000 0.79210  0.57660  0.92442  Biso   1.000  O
  O107     1.0000 0.74960  0.47120  0.96720  Biso   1.000  O
  O108     1.0000 0.86960  0.48680  0.96840  Biso   1.000  O
  C375     1.0000 0.55990  0.47870  0.76650  Biso   1.000  C
  C376     1.0000 0.55260  0.45480  0.80510  Biso   1.000  C
  H426     1.0000 0.52490  0.41380  0.80960  Biso   1.000  H
  C377     1.0000 0.58590  0.49100  0.83720  Biso   1.000  C
  C378     1.0000 0.63400  0.57510  0.79190  Biso   1.000  C
  C379     1.0000 0.60150  0.53870  0.75970  Biso   1.000  C
  H427     1.0000 0.60770  0.55460  0.73310  Biso   1.000  H
  C380     1.0000 0.58360  0.46880  0.88000  Biso   1.000  C
  H428     1.0000 0.60240  0.50290  0.89860  Biso   1.000  H
  H429     1.0000 0.54190  0.44260  0.88800  Biso   1.000  H
  H430     1.0000 0.60490  0.44650  0.88120  Biso   1.000  H
  C381     1.0000 0.67540  0.64070  0.78010  Biso   1.000  C
  H431     1.0000 0.68440  0.64320  0.75110  Biso   1.000  H
  H432     1.0000 0.65560  0.66370  0.78600  Biso   1.000  H
  H433     1.0000 0.71240  0.65690  0.79570  Biso   1.000  H
  C382     1.0000 0.62610  0.55040  0.83089  Biso   1.000  C
  C383     1.0000 0.65910  0.58980  0.86560  Biso   1.000  C
  C384     1.0000 0.64120  0.62680  0.88280  Biso   1.000  C
  H434     1.0000 0.60780  0.62760  0.87150  Biso   1.000  H
  C385     1.0000 0.66950  0.66240  0.91560  Biso   1.000  C
  C386     1.0000 0.71890  0.66160  0.93100  Biso   1.000  C
  H435     1.0000 0.74010  0.68710  0.95310  Biso   1.000  H
  C387     1.0000 0.73800  0.62520  0.91540  Biso   1.000  C
  C388     1.0000 0.70790  0.58930  0.88260  Biso   1.000  C
  H436     1.0000 0.72090  0.56390  0.87150  Biso   1.000  H
  C389     1.0000 0.64650  0.69910  0.93470  Biso   1.000  C
  C390     1.0000 0.78730  0.61980  0.93440  Biso   1.000  C
  Co18     1.0000 0.83300  0.53700  0.95530  Biso   1.000  Co
  C391     1.0000 0.53570  0.46650  0.80540  Biso   1.000  C
  H437     1.0000 0.49630  0.43460  0.80980  Biso   1.000  H
  C392     1.0000 0.56940  0.50130  0.83800  Biso   1.000  C
  C393     1.0000 0.65120  0.55970  0.79260  Biso   1.000  C
  C394     1.0000 0.61810  0.52430  0.76040  Biso   1.000  C
  H438     1.0000 0.63510  0.53120  0.73400  Biso   1.000  H
  C395     1.0000 0.53890  0.48350  0.87970  Biso   1.000  C
  H439     1.0000 0.56760  0.48590  0.90000  Biso   1.000  H
  H440     1.0000 0.52440  0.51070  0.88720  Biso   1.000  H
  H441     1.0000 0.50520  0.44260  0.87850  Biso   1.000  H
  C396     1.0000 0.71460  0.61000  0.78670  Biso   1.000  C
  H442     1.0000 0.74180  0.60180  0.80240  Biso   1.000  H
  H443     1.0000 0.72500  0.61320  0.75790  Biso   1.000  H
  H444     1.0000 0.71790  0.64750  0.79600  Biso   1.000  H
  H445     1.0000 0.64660  0.39430  0.02730  Biso   1.000  H
  H446     1.0000 0.63680  0.43060  0.99180  Biso   1.000  H
  H447     1.0000 0.65070  0.37860  0.98090  Biso   1.000  H
  H448     1.0000 0.92270  0.43370  0.02800  Biso   1.000  H
  H449     1.0000 0.95200  0.46180  0.98500  Biso   1.000  H
  H450     1.0000 0.88900  0.40130  0.98700  Biso   1.000  H
  Fe19     1.0000 0.70400  0.53480  0.55170  Biso   1.000  Fe
  O109     1.0000 0.09090  0.68460  0.57450  Biso   1.000  O
  O110     1.0000 0.05950  0.73840  0.54142  Biso   1.000  O
  O111     1.0000 0.84040  0.66040  0.54117  Biso   1.000  O
  O112     1.0000 0.78450  0.57660  0.57558  Biso   1.000  O
  O113     1.0000 0.72160  0.47120  0.53280  Biso   1.000  O
  O114     1.0000 0.61720  0.48680  0.53160  Biso   1.000  O
  C397     1.0000 0.91880  0.47870  0.73350  Biso   1.000  C
  C398     1.0000 0.90220  0.45480  0.69490  Biso   1.000  C
  H451     1.0000 0.88890  0.41380  0.69040  Biso   1.000  H
  C399     1.0000 0.90510  0.49100  0.66280  Biso   1.000  C
  C400     1.0000 0.94110  0.57510  0.70810  Biso   1.000  C
  C401     1.0000 0.93720  0.53870  0.74030  Biso   1.000  C
  H452     1.0000 0.94690  0.55460  0.76690  Biso   1.000  H
  C402     1.0000 0.88520  0.46880  0.62000  Biso   1.000  C
  H453     1.0000 0.90050  0.50290  0.60140  Biso   1.000  H
  H454     1.0000 0.90070  0.44260  0.61200  Biso   1.000  H
  H455     1.0000 0.84160  0.44650  0.61880  Biso   1.000  H
  C403     1.0000 0.96530  0.64070  0.71990  Biso   1.000  C
  H456     1.0000 0.95880  0.64320  0.74890  Biso   1.000  H
  H457     1.0000 0.00810  0.66370  0.71400  Biso   1.000  H
  H458     1.0000 0.94450  0.65690  0.70430  Biso   1.000  H
  C404     1.0000 0.92430  0.55040  0.66911  Biso   1.000  C
  C405     1.0000 0.93070  0.58980  0.63440  Biso   1.000  C
  C406     1.0000 0.98560  0.62680  0.61720  Biso   1.000  C
  H459     1.0000 0.01980  0.62760  0.62850  Biso   1.000  H
  C407     1.0000 0.99290  0.66240  0.58440  Biso   1.000  C
  C408     1.0000 0.94270  0.66160  0.56900  Biso   1.000  C
  H460     1.0000 0.94700  0.68710  0.54690  Biso   1.000  H
  C409     1.0000 0.88720  0.62520  0.58460  Biso   1.000  C
  C410     1.0000 0.88140  0.58930  0.61740  Biso   1.000  C
  H461     1.0000 0.84300  0.56390  0.62850  Biso   1.000  H
  C411     1.0000 0.05260  0.69910  0.56530  Biso   1.000  C
  C412     1.0000 0.83250  0.61980  0.56560  Biso   1.000  C
  Co19     1.0000 0.70400  0.53700  0.54470  Biso   1.000  Co
  C413     1.0000 0.93080  0.46650  0.69460  Biso   1.000  C
  H462     1.0000 0.93830  0.43460  0.69020  Biso   1.000  H
  C414     1.0000 0.93190  0.50130  0.66200  Biso   1.000  C
  C415     1.0000 0.90850  0.55970  0.70740  Biso   1.000  C
  C416     1.0000 0.90620  0.52430  0.73960  Biso   1.000  C
  H463     1.0000 0.89610  0.53120  0.76600  Biso   1.000  H
  C417     1.0000 0.94460  0.48350  0.62030  Biso   1.000  C
  H464     1.0000 0.91830  0.48590  0.60000  Biso   1.000  H
  H465     1.0000 0.98630  0.51070  0.61280  Biso   1.000  H
  H466     1.0000 0.93740  0.44260  0.62150  Biso   1.000  H
  C418     1.0000 0.89540  0.61000  0.71330  Biso   1.000  C
  H467     1.0000 0.86000  0.60180  0.69760  Biso   1.000  H
  H468     1.0000 0.88820  0.61320  0.74210  Biso   1.000  H
  H469     1.0000 0.92960  0.64750  0.70400  Biso   1.000  H
  H470     1.0000 0.74770  0.39430  0.47270  Biso   1.000  H
  H471     1.0000 0.79380  0.43060  0.50820  Biso   1.000  H
  H472     1.0000 0.72790  0.37860  0.51910  Biso   1.000  H
  H473     1.0000 0.51100  0.43370  0.47200  Biso   1.000  H
  H474     1.0000 0.50980  0.46180  0.51500  Biso   1.000  H
  H475     1.0000 0.51230  0.40130  0.51300  Biso   1.000  H
  Fe20     1.0000 0.83080  0.29600  0.55170  Biso   1.000  Fe
  O115     1.0000 0.59370  0.90910  0.57450  Biso   1.000  O
  O116     1.0000 0.67890  0.94050  0.54142  Biso   1.000  O
  O117     1.0000 0.82000  0.15960  0.54117  Biso   1.000  O
  O118     1.0000 0.79210  0.21550  0.57558  Biso   1.000  O
  O119     1.0000 0.74960  0.27840  0.53280  Biso   1.000  O
  O120     1.0000 0.86960  0.38280  0.53160  Biso   1.000  O
  C419     1.0000 0.55990  0.08120  0.73350  Biso   1.000  C
  C420     1.0000 0.55260  0.09780  0.69490  Biso   1.000  C
  H476     1.0000 0.52490  0.11110  0.69040  Biso   1.000  H
  C421     1.0000 0.58590  0.09490  0.66280  Biso   1.000  C
  C422     1.0000 0.63400  0.05890  0.70810  Biso   1.000  C
  C423     1.0000 0.60150  0.06280  0.74030  Biso   1.000  C
  H477     1.0000 0.60770  0.05310  0.76690  Biso   1.000  H
  C424     1.0000 0.58360  0.11480  0.62000  Biso   1.000  C
  H478     1.0000 0.60240  0.09950  0.60140  Biso   1.000  H
  H479     1.0000 0.54190  0.09930  0.61200  Biso   1.000  H
  H480     1.0000 0.60490  0.15840  0.61880  Biso   1.000  H
  C425     1.0000 0.67540  0.03470  0.71990  Biso   1.000  C
  H481     1.0000 0.68440  0.04120  0.74890  Biso   1.000  H
  H482     1.0000 0.65560  0.99190  0.71400  Biso   1.000  H
  H483     1.0000 0.71240  0.05550  0.70430  Biso   1.000  H
  C426     1.0000 0.62610  0.07570  0.66911  Biso   1.000  C
  C427     1.0000 0.65910  0.06930  0.63440  Biso   1.000  C
  C428     1.0000 0.64120  0.01440  0.61720  Biso   1.000  C
  H484     1.0000 0.60780  0.98020  0.62850  Biso   1.000  H
  C429     1.0000 0.66950  0.00710  0.58440  Biso   1.000  C
  C430     1.0000 0.71890  0.05730  0.56900  Biso   1.000  C
  H485     1.0000 0.74010  0.05300  0.54690  Biso   1.000  H
  C431     1.0000 0.73800  0.11280  0.58460  Biso   1.000  C
  C432     1.0000 0.70790  0.11860  0.61740  Biso   1.000  C
  H486     1.0000 0.72090  0.15700  0.62850  Biso   1.000  H
  C433     1.0000 0.64650  0.94740  0.56530  Biso   1.000  C
  C434     1.0000 0.78730  0.16750  0.56560  Biso   1.000  C
  Co20     1.0000 0.83300  0.29600  0.54470  Biso   1.000  Co
  C435     1.0000 0.53570  0.06920  0.69460  Biso   1.000  C
  H487     1.0000 0.49630  0.06170  0.69020  Biso   1.000  H
  C436     1.0000 0.56940  0.06810  0.66200  Biso   1.000  C
  C437     1.0000 0.65120  0.09150  0.70740  Biso   1.000  C
  C438     1.0000 0.61810  0.09380  0.73960  Biso   1.000  C
  H488     1.0000 0.63510  0.10390  0.76600  Biso   1.000  H
  C439     1.0000 0.53890  0.05540  0.62030  Biso   1.000  C
  H489     1.0000 0.56760  0.08170  0.60000  Biso   1.000  H
  H490     1.0000 0.52440  0.01370  0.61280  Biso   1.000  H
  H491     1.0000 0.50520  0.06260  0.62150  Biso   1.000  H
  C440     1.0000 0.71460  0.10460  0.71330  Biso   1.000  C
  H492     1.0000 0.74180  0.14000  0.69760  Biso   1.000  H
  H493     1.0000 0.72500  0.11180  0.74210  Biso   1.000  H
  H494     1.0000 0.71790  0.07040  0.70400  Biso   1.000  H
  H495     1.0000 0.64660  0.25230  0.47270  Biso   1.000  H
  H496     1.0000 0.63680  0.20620  0.50820  Biso   1.000  H
  H497     1.0000 0.65070  0.27210  0.51910  Biso   1.000  H
  H498     1.0000 0.92270  0.48900  0.47200  Biso   1.000  H
  H499     1.0000 0.95200  0.49020  0.51500  Biso   1.000  H
  H500     1.0000 0.88900  0.48770  0.51300  Biso   1.000  H
  Fe21     1.0000 0.46520  0.16920  0.55170  Biso   1.000  Fe
  O121     1.0000 0.31540  0.40630  0.57450  Biso   1.000  O
  O122     1.0000 0.26160  0.32110  0.54142  Biso   1.000  O
  O123     1.0000 0.33960  0.18000  0.54117  Biso   1.000  O
  O124     1.0000 0.42340  0.20790  0.57558  Biso   1.000  O
  O125     1.0000 0.52880  0.25040  0.53280  Biso   1.000  O
  O126     1.0000 0.51320  0.13040  0.53160  Biso   1.000  O
  C441     1.0000 0.52130  0.44010  0.73350  Biso   1.000  C
  C442     1.0000 0.54520  0.44740  0.69490  Biso   1.000  C
  H501     1.0000 0.58620  0.47510  0.69040  Biso   1.000  H
  C443     1.0000 0.50900  0.41410  0.66280  Biso   1.000  C
  C444     1.0000 0.42490  0.36600  0.70810  Biso   1.000  C
  C445     1.0000 0.46130  0.39850  0.74030  Biso   1.000  C
  H502     1.0000 0.44540  0.39230  0.76690  Biso   1.000  H
  C446     1.0000 0.53120  0.41640  0.62000  Biso   1.000  C
  H503     1.0000 0.49710  0.39760  0.60140  Biso   1.000  H
  H504     1.0000 0.55740  0.45810  0.61200  Biso   1.000  H
  H505     1.0000 0.55350  0.39510  0.61880  Biso   1.000  H
  C447     1.0000 0.35930  0.32460  0.71990  Biso   1.000  C
  H506     1.0000 0.35680  0.31560  0.74890  Biso   1.000  H
  H507     1.0000 0.33630  0.34440  0.71400  Biso   1.000  H
  H508     1.0000 0.34310  0.28760  0.70430  Biso   1.000  H
  C448     1.0000 0.44960  0.37390  0.66911  Biso   1.000  C
  C449     1.0000 0.41020  0.34090  0.63440  Biso   1.000  C
  C450     1.0000 0.37320  0.35880  0.61720  Biso   1.000  C
  H509     1.0000 0.37240  0.39220  0.62850  Biso   1.000  H
  C451     1.0000 0.33760  0.33050  0.58440  Biso   1.000  C
  C452     1.0000 0.33840  0.28110  0.56900  Biso   1.000  C
  H510     1.0000 0.31290  0.25990  0.54690  Biso   1.000  H
  C453     1.0000 0.37480  0.26200  0.58460  Biso   1.000  C
  C454     1.0000 0.41070  0.29210  0.61740  Biso   1.000  C
  H511     1.0000 0.43610  0.27910  0.62850  Biso   1.000  H
  C455     1.0000 0.30090  0.35350  0.56530  Biso   1.000  C
  C456     1.0000 0.38020  0.21270  0.56560  Biso   1.000  C
  Co21     1.0000 0.46300  0.16700  0.54470  Biso   1.000  Co
  C457     1.0000 0.53350  0.46430  0.69460  Biso   1.000  C
  H512     1.0000 0.56540  0.50370  0.69020  Biso   1.000  H
  C458     1.0000 0.49870  0.43060  0.66200  Biso   1.000  C
  C459     1.0000 0.44030  0.34880  0.70740  Biso   1.000  C
  C460     1.0000 0.47570  0.38190  0.73960  Biso   1.000  C
  H513     1.0000 0.46880  0.36490  0.76600  Biso   1.000  H
  C461     1.0000 0.51650  0.46110  0.62030  Biso   1.000  C
  H514     1.0000 0.51410  0.43240  0.60000  Biso   1.000  H
  H515     1.0000 0.48930  0.47560  0.61280  Biso   1.000  H
  H516     1.0000 0.55740  0.49480  0.62150  Biso   1.000  H
  C462     1.0000 0.39000  0.28540  0.71330  Biso   1.000  C
  H517     1.0000 0.39820  0.25820  0.69760  Biso   1.000  H
  H518     1.0000 0.38680  0.27500  0.74210  Biso   1.000  H
  H519     1.0000 0.35250  0.28210  0.70400  Biso   1.000  H
  H520     1.0000 0.60570  0.35340  0.47270  Biso   1.000  H
  H521     1.0000 0.56940  0.36320  0.50820  Biso   1.000  H
  H522     1.0000 0.62140  0.34930  0.51910  Biso   1.000  H
  H523     1.0000 0.56630  0.07730  0.47200  Biso   1.000  H
  H524     1.0000 0.53820  0.04800  0.51500  Biso   1.000  H
  H525     1.0000 0.59870  0.11100  0.51300  Biso   1.000  H
  Fe22     1.0000 0.29600  0.46520  0.55170  Biso   1.000  Fe
  O127     1.0000 0.90910  0.31540  0.57450  Biso   1.000  O
  O128     1.0000 0.94050  0.26160  0.54142  Biso   1.000  O
  O129     1.0000 0.15960  0.33960  0.54117  Biso   1.000  O
  O130     1.0000 0.21550  0.42340  0.57558  Biso   1.000  O
  O131     1.0000 0.27840  0.52880  0.53280  Biso   1.000  O
  O132     1.0000 0.38280  0.51320  0.53160  Biso   1.000  O
  C463     1.0000 0.08120  0.52130  0.73350  Biso   1.000  C
  C464     1.0000 0.09780  0.54520  0.69490  Biso   1.000  C
  H526     1.0000 0.11110  0.58620  0.69040  Biso   1.000  H
  C465     1.0000 0.09490  0.50900  0.66280  Biso   1.000  C
  C466     1.0000 0.05890  0.42490  0.70810  Biso   1.000  C
  C467     1.0000 0.06280  0.46130  0.74030  Biso   1.000  C
  H527     1.0000 0.05310  0.44540  0.76690  Biso   1.000  H
  C468     1.0000 0.11480  0.53120  0.62000  Biso   1.000  C
  H528     1.0000 0.09950  0.49710  0.60140  Biso   1.000  H
  H529     1.0000 0.09930  0.55740  0.61200  Biso   1.000  H
  H530     1.0000 0.15840  0.55350  0.61880  Biso   1.000  H
  C469     1.0000 0.03470  0.35930  0.71990  Biso   1.000  C
  H531     1.0000 0.04120  0.35680  0.74890  Biso   1.000  H
  H532     1.0000 0.99190  0.33630  0.71400  Biso   1.000  H
  H533     1.0000 0.05550  0.34310  0.70430  Biso   1.000  H
  C470     1.0000 0.07570  0.44960  0.66911  Biso   1.000  C
  C471     1.0000 0.06930  0.41020  0.63440  Biso   1.000  C
  C472     1.0000 0.01440  0.37320  0.61720  Biso   1.000  C
  H534     1.0000 0.98020  0.37240  0.62850  Biso   1.000  H
  C473     1.0000 0.00710  0.33760  0.58440  Biso   1.000  C
  C474     1.0000 0.05730  0.33840  0.56900  Biso   1.000  C
  H535     1.0000 0.05300  0.31290  0.54690  Biso   1.000  H
  C475     1.0000 0.11280  0.37480  0.58460  Biso   1.000  C
  C476     1.0000 0.11860  0.41070  0.61740  Biso   1.000  C
  H536     1.0000 0.15700  0.43610  0.62850  Biso   1.000  H
  C477     1.0000 0.94740  0.30090  0.56530  Biso   1.000  C
  C478     1.0000 0.16750  0.38020  0.56560  Biso   1.000  C
  Co22     1.0000 0.29600  0.46300  0.54470  Biso   1.000  Co
  C479     1.0000 0.06920  0.53350  0.69460  Biso   1.000  C
  H537     1.0000 0.06170  0.56540  0.69020  Biso   1.000  H
  C480     1.0000 0.06810  0.49870  0.66200  Biso   1.000  C
  C481     1.0000 0.09150  0.44030  0.70740  Biso   1.000  C
  C482     1.0000 0.09380  0.47570  0.73960  Biso   1.000  C
  H538     1.0000 0.10390  0.46880  0.76600  Biso   1.000  H
  C483     1.0000 0.05540  0.51650  0.62030  Biso   1.000  C
  H539     1.0000 0.08170  0.51410  0.60000  Biso   1.000  H
  H540     1.0000 0.01370  0.48930  0.61280  Biso   1.000  H
  H541     1.0000 0.06260  0.55740  0.62150  Biso   1.000  H
  C484     1.0000 0.10460  0.39000  0.71330  Biso   1.000  C
  H542     1.0000 0.14000  0.39820  0.69760  Biso   1.000  H
  H543     1.0000 0.11180  0.38680  0.74210  Biso   1.000  H
  H544     1.0000 0.07040  0.35250  0.70400  Biso   1.000  H
  H545     1.0000 0.25230  0.60570  0.47270  Biso   1.000  H
  H546     1.0000 0.20620  0.56940  0.50820  Biso   1.000  H
  H547     1.0000 0.27210  0.62140  0.51910  Biso   1.000  H
  H548     1.0000 0.48900  0.56630  0.47200  Biso   1.000  H
  H549     1.0000 0.49020  0.53820  0.51500  Biso   1.000  H
  H550     1.0000 0.48770  0.59870  0.51300  Biso   1.000  H
  Fe23     1.0000 0.16920  0.70400  0.55170  Biso   1.000  Fe
  O133     1.0000 0.40630  0.09090  0.57450  Biso   1.000  O
  O134     1.0000 0.32110  0.05950  0.54142  Biso   1.000  O
  O135     1.0000 0.18000  0.84040  0.54117  Biso   1.000  O
  O136     1.0000 0.20790  0.78450  0.57558  Biso   1.000  O
  O137     1.0000 0.25040  0.72160  0.53280  Biso   1.000  O
  O138     1.0000 0.13040  0.61720  0.53160  Biso   1.000  O
  C485     1.0000 0.44010  0.91880  0.73350  Biso   1.000  C
  C486     1.0000 0.44740  0.90220  0.69490  Biso   1.000  C
  H551     1.0000 0.47510  0.88890  0.69040  Biso   1.000  H
  C487     1.0000 0.41410  0.90510  0.66280  Biso   1.000  C
  C488     1.0000 0.36600  0.94110  0.70810  Biso   1.000  C
  C489     1.0000 0.39850  0.93720  0.74030  Biso   1.000  C
  H552     1.0000 0.39230  0.94690  0.76690  Biso   1.000  H
  C490     1.0000 0.41640  0.88520  0.62000  Biso   1.000  C
  H553     1.0000 0.39760  0.90050  0.60140  Biso   1.000  H
  H554     1.0000 0.45810  0.90070  0.61200  Biso   1.000  H
  H555     1.0000 0.39510  0.84160  0.61880  Biso   1.000  H
  C491     1.0000 0.32460  0.96530  0.71990  Biso   1.000  C
  H556     1.0000 0.31560  0.95880  0.74890  Biso   1.000  H
  H557     1.0000 0.34440  0.00810  0.71400  Biso   1.000  H
  H558     1.0000 0.28760  0.94450  0.70430  Biso   1.000  H
  C492     1.0000 0.37390  0.92430  0.66911  Biso   1.000  C
  C493     1.0000 0.34090  0.93070  0.63440  Biso   1.000  C
  C494     1.0000 0.35880  0.98560  0.61720  Biso   1.000  C
  H559     1.0000 0.39220  0.01980  0.62850  Biso   1.000  H
  C495     1.0000 0.33050  0.99290  0.58440  Biso   1.000  C
  C496     1.0000 0.28110  0.94270  0.56900  Biso   1.000  C
  H560     1.0000 0.25990  0.94700  0.54690  Biso   1.000  H
  C497     1.0000 0.26200  0.88720  0.58460  Biso   1.000  C
  C498     1.0000 0.29210  0.88140  0.61740  Biso   1.000  C
  H561     1.0000 0.27910  0.84300  0.62850  Biso   1.000  H
  C499     1.0000 0.35350  0.05260  0.56530  Biso   1.000  C
  C500     1.0000 0.21270  0.83250  0.56560  Biso   1.000  C
  Co23     1.0000 0.16700  0.70400  0.54470  Biso   1.000  Co
  C501     1.0000 0.46430  0.93080  0.69460  Biso   1.000  C
  H562     1.0000 0.50370  0.93830  0.69020  Biso   1.000  H
  C502     1.0000 0.43060  0.93190  0.66200  Biso   1.000  C
  C503     1.0000 0.34880  0.90850  0.70740  Biso   1.000  C
  C504     1.0000 0.38190  0.90620  0.73960  Biso   1.000  C
  H563     1.0000 0.36490  0.89610  0.76600  Biso   1.000  H
  C505     1.0000 0.46110  0.94460  0.62030  Biso   1.000  C
  H564     1.0000 0.43240  0.91830  0.60000  Biso   1.000  H
  H565     1.0000 0.47560  0.98630  0.61280  Biso   1.000  H
  H566     1.0000 0.49480  0.93740  0.62150  Biso   1.000  H
  C506     1.0000 0.28540  0.89540  0.71330  Biso   1.000  C
  H567     1.0000 0.25820  0.86000  0.69760  Biso   1.000  H
  H568     1.0000 0.27500  0.88820  0.74210  Biso   1.000  H
  H569     1.0000 0.28210  0.92960  0.70400  Biso   1.000  H
  H570     1.0000 0.35340  0.74770  0.47270  Biso   1.000  H
  H571     1.0000 0.36320  0.79380  0.50820  Biso   1.000  H
  H572     1.0000 0.34930  0.72790  0.51910  Biso   1.000  H
  H573     1.0000 0.07730  0.51100  0.47200  Biso   1.000  H
  H574     1.0000 0.04800  0.50980  0.51500  Biso   1.000  H
  H575     1.0000 0.11100  0.51230  0.51300  Biso   1.000  H
  Fe24     1.0000 0.53480  0.83080  0.55170  Biso   1.000  Fe
  O139     1.0000 0.68460  0.59370  0.57450  Biso   1.000  O
  O140     1.0000 0.73840  0.67890  0.54142  Biso   1.000  O
  O141     1.0000 0.66040  0.82000  0.54117  Biso   1.000  O
  O142     1.0000 0.57660  0.79210  0.57558  Biso   1.000  O
  O143     1.0000 0.47120  0.74960  0.53280  Biso   1.000  O
  O144     1.0000 0.48680  0.86960  0.53160  Biso   1.000  O
  C507     1.0000 0.47870  0.55990  0.73350  Biso   1.000  C
  C508     1.0000 0.45480  0.55260  0.69490  Biso   1.000  C
  H576     1.0000 0.41380  0.52490  0.69040  Biso   1.000  H
  C509     1.0000 0.49100  0.58590  0.66280  Biso   1.000  C
  C510     1.0000 0.57510  0.63400  0.70810  Biso   1.000  C
  C511     1.0000 0.53870  0.60150  0.74030  Biso   1.000  C
  H577     1.0000 0.55460  0.60770  0.76690  Biso   1.000  H
  C512     1.0000 0.46880  0.58360  0.62000  Biso   1.000  C
  H578     1.0000 0.50290  0.60240  0.60140  Biso   1.000  H
  H579     1.0000 0.44260  0.54190  0.61200  Biso   1.000  H
  H580     1.0000 0.44650  0.60490  0.61880  Biso   1.000  H
  C513     1.0000 0.64070  0.67540  0.71990  Biso   1.000  C
  H581     1.0000 0.64320  0.68440  0.74890  Biso   1.000  H
  H582     1.0000 0.66370  0.65560  0.71400  Biso   1.000  H
  H583     1.0000 0.65690  0.71240  0.70430  Biso   1.000  H
  C514     1.0000 0.55040  0.62610  0.66911  Biso   1.000  C
  C515     1.0000 0.58980  0.65910  0.63440  Biso   1.000  C
  C516     1.0000 0.62680  0.64120  0.61720  Biso   1.000  C
  H584     1.0000 0.62760  0.60780  0.62850  Biso   1.000  H
  C517     1.0000 0.66240  0.66950  0.58440  Biso   1.000  C
  C518     1.0000 0.66160  0.71890  0.56900  Biso   1.000  C
  H585     1.0000 0.68710  0.74010  0.54690  Biso   1.000  H
  C519     1.0000 0.62520  0.73800  0.58460  Biso   1.000  C
  C520     1.0000 0.58930  0.70790  0.61740  Biso   1.000  C
  H586     1.0000 0.56390  0.72090  0.62850  Biso   1.000  H
  C521     1.0000 0.69910  0.64650  0.56530  Biso   1.000  C
  C522     1.0000 0.61980  0.78730  0.56560  Biso   1.000  C
  Co24     1.0000 0.53700  0.83300  0.54470  Biso   1.000  Co
  C523     1.0000 0.46650  0.53570  0.69460  Biso   1.000  C
  H587     1.0000 0.43460  0.49630  0.69020  Biso   1.000  H
  C524     1.0000 0.50130  0.56940  0.66200  Biso   1.000  C
  C525     1.0000 0.55970  0.65120  0.70740  Biso   1.000  C
  C526     1.0000 0.52430  0.61810  0.73960  Biso   1.000  C
  H588     1.0000 0.53120  0.63510  0.76600  Biso   1.000  H
  C527     1.0000 0.48350  0.53890  0.62030  Biso   1.000  C
  H589     1.0000 0.48590  0.56760  0.60000  Biso   1.000  H
  H590     1.0000 0.51070  0.52440  0.61280  Biso   1.000  H
  H591     1.0000 0.44260  0.50520  0.62150  Biso   1.000  H
  C528     1.0000 0.61000  0.71460  0.71330  Biso   1.000  C
  H592     1.0000 0.60180  0.74180  0.69760  Biso   1.000  H
  H593     1.0000 0.61320  0.72500  0.74210  Biso   1.000  H
  H594     1.0000 0.64750  0.71790  0.70400  Biso   1.000  H
  H595     1.0000 0.39430  0.64660  0.47270  Biso   1.000  H
  H596     1.0000 0.43060  0.63680  0.50820  Biso   1.000  H
  H597     1.0000 0.37860  0.65070  0.51910  Biso   1.000  H
  H598     1.0000 0.43370  0.92270  0.47200  Biso   1.000  H
  H599     1.0000 0.46180  0.95200  0.51500  Biso   1.000  H
  H600     1.0000 0.40130  0.88900  0.51300  Biso   1.000  H
  Fe25     1.0000 0.33600  0.21400  0.00000  Biso   1.000  Fe
  O145     1.0000 0.24500  0.15690  0.00000  Biso   1.000  O
  O146     1.0000 0.42120  0.26840  0.00000  Biso   1.000  O
  C529     1.0000 0.54420  0.26950  0.00000  Biso   1.000  C
  C530     1.0000 0.58920  0.24810  0.00000  Biso   1.000  C
  C531     1.0000 0.52480  0.40790  0.00000  Biso   1.000  C
  C532     1.0000 0.56000  0.47440  0.00000  Biso   1.000  C
  Co25     1.0000 0.33900  0.21700  0.00000  Biso   1.000  Co
  Fe26     1.0000 0.78600  0.12200  0.00000  Biso   1.000  Fe
  O147     1.0000 0.84310  0.08810  0.00000  Biso   1.000  O
  O148     1.0000 0.73160  0.15280  0.00000  Biso   1.000  O
  C533     1.0000 0.73050  0.27470  0.00000  Biso   1.000  C
  C534     1.0000 0.75190  0.34110  0.00000  Biso   1.000  C
  C535     1.0000 0.59210  0.11690  0.00000  Biso   1.000  C
  C536     1.0000 0.52560  0.08560  0.00000  Biso   1.000  C
  Co26     1.0000 0.78300  0.12200  0.00000  Biso   1.000  Co
  Fe27     1.0000 0.87800  0.66400  0.00000  Biso   1.000  Fe
  O149     1.0000 0.91190  0.75500  0.00000  Biso   1.000  O
  O150     1.0000 0.84720  0.57880  0.00000  Biso   1.000  O
  C537     1.0000 0.72530  0.45580  0.00000  Biso   1.000  C
  C538     1.0000 0.65890  0.41080  0.00000  Biso   1.000  C
  C539     1.0000 0.88310  0.47520  0.00000  Biso   1.000  C
  C540     1.0000 0.91440  0.44000  0.00000  Biso   1.000  C
  Co27     1.0000 0.87800  0.66100  0.00000  Biso   1.000  Co
  Fe28     1.0000 0.66400  0.78600  0.00000  Biso   1.000  Fe
  O151     1.0000 0.75500  0.84310  0.00000  Biso   1.000  O
  O152     1.0000 0.57880  0.73160  0.00000  Biso   1.000  O
  C541     1.0000 0.45580  0.73050  0.00000  Biso   1.000  C
  C542     1.0000 0.41080  0.75190  0.00000  Biso   1.000  C
  C543     1.0000 0.47520  0.59210  0.00000  Biso   1.000  C
  C544     1.0000 0.44000  0.52560  0.00000  Biso   1.000  C
  Co28     1.0000 0.66100  0.78300  0.00000  Biso   1.000  Co
  Fe29     1.0000 0.21400  0.87800  0.00000  Biso   1.000  Fe
  O153     1.0000 0.15690  0.91190  0.00000  Biso   1.000  O
  O154     1.0000 0.26840  0.84720  0.00000  Biso   1.000  O
  C545     1.0000 0.26950  0.72530  0.00000  Biso   1.000  C
  C546     1.0000 0.24810  0.65890  0.00000  Biso   1.000  C
  C547     1.0000 0.40790  0.88310  0.00000  Biso   1.000  C
  C548     1.0000 0.47440  0.91440  0.00000  Biso   1.000  C
  Co29     1.0000 0.21700  0.87800  0.00000  Biso   1.000  Co
  Fe30     1.0000 0.12200  0.33600  0.00000  Biso   1.000  Fe
  O155     1.0000 0.08810  0.24500  0.00000  Biso   1.000  O
  O156     1.0000 0.15280  0.42120  0.00000  Biso   1.000  O
  C549     1.0000 0.27470  0.54420  0.00000  Biso   1.000  C
  C550     1.0000 0.34110  0.58920  0.00000  Biso   1.000  C
  C551     1.0000 0.11690  0.52480  0.00000  Biso   1.000  C
  C552     1.0000 0.08560  0.56000  0.00000  Biso   1.000  C
  Co30     1.0000 0.12200  0.33900  0.00000  Biso   1.000  Co
  Fe31     1.0000 0.21400  0.33600  0.50000  Biso   1.000  Fe
  O157     1.0000 0.15690  0.24500  0.50000  Biso   1.000  O
  O158     1.0000 0.26840  0.42120  0.50000  Biso   1.000  O
  C553     1.0000 0.26950  0.54420  0.50000  Biso   1.000  C
  C554     1.0000 0.24810  0.58920  0.50000  Biso   1.000  C
  C555     1.0000 0.40790  0.52480  0.50000  Biso   1.000  C
  C556     1.0000 0.47440  0.56000  0.50000  Biso   1.000  C
  Co31     1.0000 0.21700  0.33900  0.50000  Biso   1.000  Co
  Fe32     1.0000 0.12200  0.78600  0.50000  Biso   1.000  Fe
  O159     1.0000 0.08810  0.84310  0.50000  Biso   1.000  O
  O160     1.0000 0.15280  0.73160  0.50000  Biso   1.000  O
  C557     1.0000 0.27470  0.73050  0.50000  Biso   1.000  C
  C558     1.0000 0.34110  0.75190  0.50000  Biso   1.000  C
  C559     1.0000 0.11690  0.59210  0.50000  Biso   1.000  C
  C560     1.0000 0.08560  0.52560  0.50000  Biso   1.000  C
  Co32     1.0000 0.12200  0.78300  0.50000  Biso   1.000  Co
  Fe33     1.0000 0.66400  0.87800  0.50000  Biso   1.000  Fe
  O161     1.0000 0.75500  0.91190  0.50000  Biso   1.000  O
  O162     1.0000 0.57880  0.84720  0.50000  Biso   1.000  O
  C561     1.0000 0.45580  0.72530  0.50000  Biso   1.000  C
  C562     1.0000 0.41080  0.65890  0.50000  Biso   1.000  C
  C563     1.0000 0.47520  0.88310  0.50000  Biso   1.000  C
  C564     1.0000 0.44000  0.91440  0.50000  Biso   1.000  C
  Co33     1.0000 0.66100  0.87800  0.50000  Biso   1.000  Co
  Fe34     1.0000 0.78600  0.66400  0.50000  Biso   1.000  Fe
  O163     1.0000 0.84310  0.75500  0.50000  Biso   1.000  O
  O164     1.0000 0.73160  0.57880  0.50000  Biso   1.000  O
  C565     1.0000 0.73050  0.45580  0.50000  Biso   1.000  C
  C566     1.0000 0.75190  0.41080  0.50000  Biso   1.000  C
  C567     1.0000 0.59210  0.47520  0.50000  Biso   1.000  C
  C568     1.0000 0.52560  0.44000  0.50000  Biso   1.000  C
  Co34     1.0000 0.78300  0.66100  0.50000  Biso   1.000  Co
  Fe35     1.0000 0.87800  0.21400  0.50000  Biso   1.000  Fe
  O165     1.0000 0.91190  0.15690  0.50000  Biso   1.000  O
  O166     1.0000 0.84720  0.26840  0.50000  Biso   1.000  O
  C569     1.0000 0.72530  0.26950  0.50000  Biso   1.000  C
  C570     1.0000 0.65890  0.24810  0.50000  Biso   1.000  C
  C571     1.0000 0.88310  0.40790  0.50000  Biso   1.000  C
  C572     1.0000 0.91440  0.47440  0.50000  Biso   1.000  C
  Co35     1.0000 0.87800  0.21700  0.50000  Biso   1.000  Co
  Fe36     1.0000 0.33600  0.12200  0.50000  Biso   1.000  Fe
  O167     1.0000 0.24500  0.08810  0.50000  Biso   1.000  O
  O168     1.0000 0.42120  0.15280  0.50000  Biso   1.000  O
  C573     1.0000 0.54420  0.27470  0.50000  Biso   1.000  C
  C574     1.0000 0.58920  0.34110  0.50000  Biso   1.000  C
  C575     1.0000 0.52480  0.11690  0.50000  Biso   1.000  C
  C576     1.0000 0.56000  0.08560  0.50000  Biso   1.000  C
  Co36     1.0000 0.33900  0.12200  0.50000  Biso   1.000  Co
