data_image0
_cell_length_a       32
_cell_length_b       32
_cell_length_c       33.04
_cell_angle_alpha    90
_cell_angle_beta     90
_cell_angle_gamma    120

_symmetry_space_group_name_H-M    "P 1"
_symmetry_int_tables_number       1

loop_
  _symmetry_equiv_pos_as_xyz
  'x, y, z'

loop_
  _atom_site_label
  _atom_site_occupancy
  _atom_site_fract_x
  _atom_site_fract_y
  _atom_site_fract_z
  _atom_site_thermal_displace_type
  _atom_site_B_iso_or_equiv
  _atom_site_type_symbol
  Fe1      1.0000 0.65720  0.85440  0.03440  Biso   1.000  Fe
  O1       1.0000 0.12249  0.27244  0.15324  Biso   1.000  O
  O2       1.0000 0.06699  0.26739  0.11018  Biso   1.000  O
  O3       1.0000 0.84922  0.14102  0.99585  Biso   1.000  O
  O4       1.0000 0.77991  0.08012  0.97149  Biso   1.000  O
  O5       1.0000 0.73173  0.92565  0.10956  Biso   1.000  O
  O6       1.0000 0.70526  0.92490  0.04683  Biso   1.000  O
  O7       1.0000 0.64493  0.88162  0.98053  Biso   1.000  O
  C1       1.0000 0.08140  0.25000  0.13640  Biso   1.000  C
  C2       1.0000 0.81360  0.09820  0.99710  Biso   1.000  C
  C3       1.0000 0.73370  0.94410  0.07590  Biso   1.000  C
  O8       1.0000 0.01410  0.05840  0.22470  Biso   1.000  O
  C4       1.0000 0.02980  0.12950  0.18960  Biso   1.000  C
  C5       1.0000 0.06270  0.17580  0.17660  Biso   1.000  C
  H1       1.0000 0.09570  0.19030  0.18430  Biso   1.000  H
  C6       1.0000 0.04740  0.20110  0.15230  Biso   1.000  C
  C7       1.0000 0.99920  0.18000  0.14100  Biso   1.000  C
  H2       1.0000 0.98880  0.19730  0.12440  Biso   1.000  H
  C8       1.0000 0.96630  0.13360  0.15410  Biso   1.000  C
  C9       1.0000 0.98160  0.10840  0.17830  Biso   1.000  C
  H3       1.0000 0.95910  0.07670  0.18720  Biso   1.000  H
  C10      1.0000 0.91440  0.10840  0.14030  Biso   1.000  C
  H4       1.0000 0.89330  0.09410  0.16420  Biso   1.000  H
  H5       1.0000 0.90730  0.13260  0.12860  Biso   1.000  H
  C11      1.0000 0.90210  0.06910  0.10950  Biso   1.000  C
  H6       1.0000 0.89940  0.04070  0.12390  Biso   1.000  H
  H7       1.0000 0.92960  0.08050  0.09050  Biso   1.000  H
  C12      1.0000 0.85680  0.05260  0.08490  Biso   1.000  C
  C13      1.0000 0.85600  0.08100  0.05350  Biso   1.000  C
  H8       1.0000 0.88320  0.11200  0.04880  Biso   1.000  H
  C14      1.0000 0.81550  0.06420  0.02890  Biso   1.000  C
  C15      1.0000 0.77570  0.01890  0.03580  Biso   1.000  C
  H9       1.0000 0.74800  0.00740  0.01890  Biso   1.000  H
  C16      1.0000 0.77620  0.99030  0.06720  Biso   1.000  C
  C17      1.0000 0.81690  0.00730  0.09160  Biso   1.000  C
  H10      1.0000 0.81730  0.98780  0.11310  Biso   1.000  H
  O9       1.0000 0.08895  0.12595  0.22950  Biso   1.000  O
  H11      1.0000 0.09670  0.10790  0.24180  Biso   1.000  H
  C18      1.0000 0.04980  0.10010  0.20970  Biso   1.000  C
  O10      1.0000 0.03900  0.05700  0.20110  Biso   1.000  O
  C19      1.0000 0.03730  0.12540  0.18020  Biso   1.000  C
  C20      1.0000 0.06500  0.17470  0.17300  Biso   1.000  C
  H12      1.0000 0.09470  0.19330  0.18690  Biso   1.000  H
  C21      1.0000 0.04930  0.19670  0.14540  Biso   1.000  C
  C22      1.0000 0.00580  0.16940  0.12510  Biso   1.000  C
  H13      1.0000 0.99510  0.18440  0.10620  Biso   1.000  H
  C23      1.0000 0.97810  0.12010  0.13230  Biso   1.000  C
  C24      1.0000 0.99390  0.09810  0.15980  Biso   1.000  C
  H14      1.0000 0.97500  0.06440  0.16480  Biso   1.000  H
  C25      1.0000 0.93260  0.09020  0.10830  Biso   1.000  C
  H15      1.0000 0.93760  0.10330  0.08040  Biso   1.000  H
  H16      1.0000 0.92670  0.05680  0.10640  Biso   1.000  H
  C26      1.0000 0.88820  0.08850  0.12570  Biso   1.000  C
  H17      1.0000 0.87910  0.06980  0.15120  Biso   1.000  H
  H18      1.0000 0.89560  0.12170  0.13210  Biso   1.000  H
  C27      1.0000 0.84650  0.06590  0.09640  Biso   1.000  C
  C28      1.0000 0.84800  0.09280  0.06290  Biso   1.000  C
  H19      1.0000 0.87310  0.12540  0.06040  Biso   1.000  H
  C29      1.0000 0.81270  0.07220  0.03320  Biso   1.000  C
  C30      1.0000 0.77590  0.02450  0.03690  Biso   1.000  C
  H20      1.0000 0.75180  0.01030  0.01660  Biso   1.000  H
  C31      1.0000 0.77450  0.99740  0.07040  Biso   1.000  C
  C32      1.0000 0.80980  0.01820  0.10010  Biso   1.000  C
  H21      1.0000 0.80880  0.99970  0.12300  Biso   1.000  H
  Co1      1.0000 0.65500  0.85500  0.03300  Biso   1.000  Co
  Fe2      1.0000 0.32387  0.18773  0.36773  Biso   1.000  Fe
  O11      1.0000 0.78916  0.60577  0.48657  Biso   1.000  O
  O12      1.0000 0.73366  0.60072  0.44351  Biso   1.000  O
  O13      1.0000 0.51589  0.47435  0.32918  Biso   1.000  O
  O14      1.0000 0.44658  0.41345  0.30482  Biso   1.000  O
  O15      1.0000 0.39840  0.25898  0.44289  Biso   1.000  O
  O16      1.0000 0.37193  0.25823  0.38016  Biso   1.000  O
  O17      1.0000 0.31160  0.21495  0.31386  Biso   1.000  O
  C33      1.0000 0.74807  0.58333  0.46973  Biso   1.000  C
  C34      1.0000 0.48027  0.43153  0.33043  Biso   1.000  C
  C35      1.0000 0.40037  0.27743  0.40923  Biso   1.000  C
  O18      1.0000 0.68077  0.39173  0.55803  Biso   1.000  O
  C36      1.0000 0.69647  0.46283  0.52293  Biso   1.000  C
  C37      1.0000 0.72937  0.50913  0.50993  Biso   1.000  C
  H22      1.0000 0.76237  0.52363  0.51763  Biso   1.000  H
  C38      1.0000 0.71407  0.53443  0.48563  Biso   1.000  C
  C39      1.0000 0.66587  0.51333  0.47433  Biso   1.000  C
  H23      1.0000 0.65547  0.53063  0.45773  Biso   1.000  H
  C40      1.0000 0.63297  0.46693  0.48743  Biso   1.000  C
  C41      1.0000 0.64827  0.44173  0.51163  Biso   1.000  C
  H24      1.0000 0.62577  0.41003  0.52053  Biso   1.000  H
  C42      1.0000 0.58107  0.44173  0.47363  Biso   1.000  C
  H25      1.0000 0.55997  0.42743  0.49753  Biso   1.000  H
  H26      1.0000 0.57397  0.46593  0.46193  Biso   1.000  H
  C43      1.0000 0.56877  0.40243  0.44283  Biso   1.000  C
  H27      1.0000 0.56607  0.37403  0.45723  Biso   1.000  H
  H28      1.0000 0.59627  0.41383  0.42383  Biso   1.000  H
  C44      1.0000 0.52347  0.38593  0.41823  Biso   1.000  C
  C45      1.0000 0.52267  0.41433  0.38683  Biso   1.000  C
  H29      1.0000 0.54987  0.44533  0.38213  Biso   1.000  H
  C46      1.0000 0.48217  0.39753  0.36223  Biso   1.000  C
  C47      1.0000 0.44237  0.35223  0.36913  Biso   1.000  C
  H30      1.0000 0.41467  0.34073  0.35223  Biso   1.000  H
  C48      1.0000 0.44287  0.32363  0.40053  Biso   1.000  C
  C49      1.0000 0.48357  0.34063  0.42493  Biso   1.000  C
  H31      1.0000 0.48397  0.32113  0.44643  Biso   1.000  H
  O19      1.0000 0.75562  0.45928  0.56283  Biso   1.000  O
  H32      1.0000 0.76337  0.44123  0.57513  Biso   1.000  H
  C50      1.0000 0.71647  0.43343  0.54303  Biso   1.000  C
  O20      1.0000 0.70567  0.39033  0.53443  Biso   1.000  O
  C51      1.0000 0.70397  0.45873  0.51353  Biso   1.000  C
  C52      1.0000 0.73167  0.50803  0.50633  Biso   1.000  C
  H33      1.0000 0.76137  0.52663  0.52023  Biso   1.000  H
  C53      1.0000 0.71597  0.53003  0.47873  Biso   1.000  C
  C54      1.0000 0.67247  0.50273  0.45843  Biso   1.000  C
  H34      1.0000 0.66177  0.51773  0.43953  Biso   1.000  H
  C55      1.0000 0.64477  0.45343  0.46563  Biso   1.000  C
  C56      1.0000 0.66057  0.43143  0.49313  Biso   1.000  C
  H35      1.0000 0.64167  0.39773  0.49813  Biso   1.000  H
  C57      1.0000 0.59927  0.42353  0.44163  Biso   1.000  C
  H36      1.0000 0.60427  0.43663  0.41373  Biso   1.000  H
  H37      1.0000 0.59337  0.39013  0.43973  Biso   1.000  H
  C58      1.0000 0.55487  0.42183  0.45903  Biso   1.000  C
  H38      1.0000 0.54577  0.40313  0.48453  Biso   1.000  H
  H39      1.0000 0.56227  0.45503  0.46543  Biso   1.000  H
  C59      1.0000 0.51317  0.39923  0.42973  Biso   1.000  C
  C60      1.0000 0.51467  0.42613  0.39623  Biso   1.000  C
  H40      1.0000 0.53977  0.45873  0.39373  Biso   1.000  H
  C61      1.0000 0.47937  0.40553  0.36653  Biso   1.000  C
  C62      1.0000 0.44257  0.35783  0.37023  Biso   1.000  C
  H41      1.0000 0.41847  0.34363  0.34993  Biso   1.000  H
  C63      1.0000 0.44117  0.33073  0.40373  Biso   1.000  C
  C64      1.0000 0.47647  0.35153  0.43343  Biso   1.000  C
  H42      1.0000 0.47547  0.33303  0.45633  Biso   1.000  H
  Co2      1.0000 0.32167  0.18833  0.36633  Biso   1.000  Co
  Fe3      1.0000 0.99053  0.52107  0.70107  Biso   1.000  Fe
  O21      1.0000 0.45582  0.93911  0.81991  Biso   1.000  O
  O22      1.0000 0.40032  0.93406  0.77685  Biso   1.000  O
  O23      1.0000 0.18255  0.80769  0.66252  Biso   1.000  O
  O24      1.0000 0.11324  0.74679  0.63816  Biso   1.000  O
  O25      1.0000 0.06506  0.59232  0.77623  Biso   1.000  O
  O26      1.0000 0.03859  0.59157  0.71350  Biso   1.000  O
  O27      1.0000 0.97826  0.54829  0.64720  Biso   1.000  O
  C65      1.0000 0.41473  0.91667  0.80307  Biso   1.000  C
  C66      1.0000 0.14693  0.76487  0.66377  Biso   1.000  C
  C67      1.0000 0.06703  0.61077  0.74257  Biso   1.000  C
  O28      1.0000 0.34743  0.72507  0.89137  Biso   1.000  O
  C68      1.0000 0.36313  0.79617  0.85627  Biso   1.000  C
  C69      1.0000 0.39603  0.84247  0.84327  Biso   1.000  C
  H43      1.0000 0.42903  0.85697  0.85097  Biso   1.000  H
  C70      1.0000 0.38073  0.86777  0.81897  Biso   1.000  C
  C71      1.0000 0.33253  0.84667  0.80767  Biso   1.000  C
  H44      1.0000 0.32213  0.86397  0.79107  Biso   1.000  H
  C72      1.0000 0.29963  0.80027  0.82077  Biso   1.000  C
  C73      1.0000 0.31493  0.77507  0.84497  Biso   1.000  C
  H45      1.0000 0.29243  0.74337  0.85387  Biso   1.000  H
  C74      1.0000 0.24773  0.77507  0.80697  Biso   1.000  C
  H46      1.0000 0.22663  0.76077  0.83087  Biso   1.000  H
  H47      1.0000 0.24063  0.79927  0.79527  Biso   1.000  H
  C75      1.0000 0.23543  0.73577  0.77617  Biso   1.000  C
  H48      1.0000 0.23273  0.70737  0.79057  Biso   1.000  H
  H49      1.0000 0.26293  0.74717  0.75717  Biso   1.000  H
  C76      1.0000 0.19013  0.71927  0.75157  Biso   1.000  C
  C77      1.0000 0.18933  0.74767  0.72017  Biso   1.000  C
  H50      1.0000 0.21653  0.77867  0.71547  Biso   1.000  H
  C78      1.0000 0.14883  0.73087  0.69557  Biso   1.000  C
  C79      1.0000 0.10903  0.68557  0.70247  Biso   1.000  C
  H51      1.0000 0.08133  0.67407  0.68557  Biso   1.000  H
  C80      1.0000 0.10953  0.65697  0.73387  Biso   1.000  C
  C81      1.0000 0.15023  0.67397  0.75827  Biso   1.000  C
  H52      1.0000 0.15063  0.65447  0.77977  Biso   1.000  H
  O29      1.0000 0.42228  0.79262  0.89617  Biso   1.000  O
  H53      1.0000 0.43003  0.77457  0.90847  Biso   1.000  H
  C82      1.0000 0.38313  0.76677  0.87637  Biso   1.000  C
  O30      1.0000 0.37233  0.72367  0.86777  Biso   1.000  O
  C83      1.0000 0.37063  0.79207  0.84687  Biso   1.000  C
  C84      1.0000 0.39833  0.84137  0.83967  Biso   1.000  C
  H54      1.0000 0.42803  0.85997  0.85357  Biso   1.000  H
  C85      1.0000 0.38263  0.86337  0.81207  Biso   1.000  C
  C86      1.0000 0.33913  0.83607  0.79177  Biso   1.000  C
  H55      1.0000 0.32843  0.85107  0.77287  Biso   1.000  H
  C87      1.0000 0.31143  0.78677  0.79897  Biso   1.000  C
  C88      1.0000 0.32723  0.76477  0.82647  Biso   1.000  C
  H56      1.0000 0.30833  0.73107  0.83147  Biso   1.000  H
  C89      1.0000 0.26593  0.75687  0.77497  Biso   1.000  C
  H57      1.0000 0.27093  0.76997  0.74707  Biso   1.000  H
  H58      1.0000 0.26003  0.72347  0.77307  Biso   1.000  H
  C90      1.0000 0.22153  0.75517  0.79237  Biso   1.000  C
  H59      1.0000 0.21243  0.73647  0.81787  Biso   1.000  H
  H60      1.0000 0.22893  0.78837  0.79877  Biso   1.000  H
  C91      1.0000 0.17983  0.73257  0.76307  Biso   1.000  C
  C92      1.0000 0.18133  0.75947  0.72957  Biso   1.000  C
  H61      1.0000 0.20643  0.79207  0.72707  Biso   1.000  H
  C93      1.0000 0.14603  0.73887  0.69987  Biso   1.000  C
  C94      1.0000 0.10923  0.69117  0.70357  Biso   1.000  C
  H62      1.0000 0.08513  0.67697  0.68327  Biso   1.000  H
  C95      1.0000 0.10783  0.66407  0.73707  Biso   1.000  C
  C96      1.0000 0.14313  0.68487  0.76677  Biso   1.000  C
  H63      1.0000 0.14213  0.66637  0.78967  Biso   1.000  H
  Co3      1.0000 0.98833  0.52167  0.69967  Biso   1.000  Co
  Fe4      1.0000 0.14560  0.80280  0.03440  Biso   1.000  Fe
  O31      1.0000 0.72756  0.85005  0.15324  Biso   1.000  O
  O32      1.0000 0.73261  0.79960  0.11018  Biso   1.000  O
  O33      1.0000 0.85898  0.70820  0.99585  Biso   1.000  O
  O34      1.0000 0.91988  0.69979  0.97149  Biso   1.000  O
  O35      1.0000 0.07435  0.80608  0.10956  Biso   1.000  O
  O36      1.0000 0.07510  0.78036  0.04683  Biso   1.000  O
  O37      1.0000 0.11838  0.76331  0.98053  Biso   1.000  O
  C97      1.0000 0.75000  0.83140  0.13640  Biso   1.000  C
  C98      1.0000 0.90180  0.71540  0.99710  Biso   1.000  C
  C99      1.0000 0.05590  0.78960  0.07590  Biso   1.000  C
  O38      1.0000 0.94160  0.95570  0.22470  Biso   1.000  O
  C100     1.0000 0.87050  0.90030  0.18960  Biso   1.000  C
  C101     1.0000 0.82420  0.88690  0.17660  Biso   1.000  C
  H64      1.0000 0.80970  0.90540  0.18430  Biso   1.000  H
  C102     1.0000 0.79890  0.84630  0.15230  Biso   1.000  C
  C103     1.0000 0.82000  0.81920  0.14100  Biso   1.000  C
  H65      1.0000 0.80270  0.79150  0.12440  Biso   1.000  H
  C104     1.0000 0.86640  0.83270  0.15410  Biso   1.000  C
  C105     1.0000 0.89160  0.87320  0.17830  Biso   1.000  C
  H66      1.0000 0.92330  0.88240  0.18720  Biso   1.000  H
  C106     1.0000 0.89160  0.80600  0.14030  Biso   1.000  C
  H67      1.0000 0.90590  0.79920  0.16420  Biso   1.000  H
  H68      1.0000 0.86740  0.77470  0.12860  Biso   1.000  H
  C107     1.0000 0.93090  0.83300  0.10950  Biso   1.000  C
  H69      1.0000 0.95930  0.85870  0.12390  Biso   1.000  H
  H70      1.0000 0.91950  0.84910  0.09050  Biso   1.000  H
  C108     1.0000 0.94740  0.80420  0.08490  Biso   1.000  C
  C109     1.0000 0.91900  0.77500  0.05350  Biso   1.000  C
  H71      1.0000 0.88800  0.77120  0.04880  Biso   1.000  H
  C110     1.0000 0.93580  0.75130  0.02890  Biso   1.000  C
  C111     1.0000 0.98110  0.75680  0.03580  Biso   1.000  C
  H72      1.0000 0.99260  0.74060  0.01890  Biso   1.000  H
  C112     1.0000 0.00970  0.78590  0.06720  Biso   1.000  C
  C113     1.0000 0.99270  0.80960  0.09160  Biso   1.000  C
  H73      1.0000 0.01220  0.82950  0.11310  Biso   1.000  H
  O39      1.0000 0.87405  0.96300  0.22950  Biso   1.000  O
  H74      1.0000 0.89210  0.98880  0.24180  Biso   1.000  H
  C114     1.0000 0.89990  0.94970  0.20970  Biso   1.000  C
  O40      1.0000 0.94300  0.98200  0.20110  Biso   1.000  O
  C115     1.0000 0.87460  0.91190  0.18020  Biso   1.000  C
  C116     1.0000 0.82530  0.89030  0.17300  Biso   1.000  C
  H75      1.0000 0.80670  0.90140  0.18690  Biso   1.000  H
  C117     1.0000 0.80330  0.85260  0.14540  Biso   1.000  C
  C118     1.0000 0.83060  0.83640  0.12510  Biso   1.000  C
  H76      1.0000 0.81560  0.81070  0.10620  Biso   1.000  H
  C119     1.0000 0.87990  0.85800  0.13230  Biso   1.000  C
  C120     1.0000 0.90190  0.89580  0.15980  Biso   1.000  C
  H77      1.0000 0.93560  0.91060  0.16480  Biso   1.000  H
  C121     1.0000 0.90980  0.84240  0.10830  Biso   1.000  C
  H78      1.0000 0.89670  0.83430  0.08040  Biso   1.000  H
  H79      1.0000 0.94320  0.86990  0.10640  Biso   1.000  H
  C122     1.0000 0.91150  0.79970  0.12570  Biso   1.000  C
  H80      1.0000 0.93020  0.80930  0.15120  Biso   1.000  H
  H81      1.0000 0.87830  0.77390  0.13210  Biso   1.000  H
  C123     1.0000 0.93410  0.78060  0.09640  Biso   1.000  C
  C124     1.0000 0.90720  0.75520  0.06290  Biso   1.000  C
  H82      1.0000 0.87460  0.74770  0.06040  Biso   1.000  H
  C125     1.0000 0.92780  0.74050  0.03320  Biso   1.000  C
  C126     1.0000 0.97550  0.75140  0.03690  Biso   1.000  C
  H83      1.0000 0.98970  0.74150  0.01660  Biso   1.000  H
  C127     1.0000 0.00260  0.77710  0.07040  Biso   1.000  C
  C128     1.0000 0.98180  0.79160  0.10010  Biso   1.000  C
  H84      1.0000 0.00030  0.80910  0.12300  Biso   1.000  H
  Co4      1.0000 0.14500  0.80000  0.03300  Biso   1.000  Co
  Fe5      1.0000 0.81227  0.13613  0.36773  Biso   1.000  Fe
  O41      1.0000 0.39423  0.18338  0.48657  Biso   1.000  O
  O42      1.0000 0.39928  0.13293  0.44351  Biso   1.000  O
  O43      1.0000 0.52565  0.04153  0.32918  Biso   1.000  O
  O44      1.0000 0.58655  0.03312  0.30482  Biso   1.000  O
  O45      1.0000 0.74102  0.13941  0.44289  Biso   1.000  O
  O46      1.0000 0.74177  0.11369  0.38016  Biso   1.000  O
  O47      1.0000 0.78505  0.09664  0.31386  Biso   1.000  O
  C129     1.0000 0.41667  0.16473  0.46973  Biso   1.000  C
  C130     1.0000 0.56847  0.04873  0.33043  Biso   1.000  C
  C131     1.0000 0.72257  0.12293  0.40923  Biso   1.000  C
  O48      1.0000 0.60827  0.28903  0.55803  Biso   1.000  O
  C132     1.0000 0.53717  0.23363  0.52293  Biso   1.000  C
  C133     1.0000 0.49087  0.22023  0.50993  Biso   1.000  C
  H85      1.0000 0.47637  0.23873  0.51763  Biso   1.000  H
  C134     1.0000 0.46557  0.17963  0.48563  Biso   1.000  C
  C135     1.0000 0.48667  0.15253  0.47433  Biso   1.000  C
  H86      1.0000 0.46937  0.12483  0.45773  Biso   1.000  H
  C136     1.0000 0.53307  0.16603  0.48743  Biso   1.000  C
  C137     1.0000 0.55827  0.20653  0.51163  Biso   1.000  C
  H87      1.0000 0.58997  0.21573  0.52053  Biso   1.000  H
  C138     1.0000 0.55827  0.13933  0.47363  Biso   1.000  C
  H88      1.0000 0.57257  0.13253  0.49753  Biso   1.000  H
  H89      1.0000 0.53407  0.10803  0.46193  Biso   1.000  H
  C139     1.0000 0.59757  0.16633  0.44283  Biso   1.000  C
  H90      1.0000 0.62597  0.19203  0.45723  Biso   1.000  H
  H91      1.0000 0.58617  0.18243  0.42383  Biso   1.000  H
  C140     1.0000 0.61407  0.13753  0.41823  Biso   1.000  C
  C141     1.0000 0.58567  0.10833  0.38683  Biso   1.000  C
  H92      1.0000 0.55467  0.10453  0.38213  Biso   1.000  H
  C142     1.0000 0.60247  0.08463  0.36223  Biso   1.000  C
  C143     1.0000 0.64777  0.09013  0.36913  Biso   1.000  C
  H93      1.0000 0.65927  0.07393  0.35223  Biso   1.000  H
  C144     1.0000 0.67637  0.11923  0.40053  Biso   1.000  C
  C145     1.0000 0.65937  0.14293  0.42493  Biso   1.000  C
  H94      1.0000 0.67887  0.16283  0.44643  Biso   1.000  H
  O49      1.0000 0.54072  0.29633  0.56283  Biso   1.000  O
  H95      1.0000 0.55877  0.32213  0.57513  Biso   1.000  H
  C146     1.0000 0.56657  0.28303  0.54303  Biso   1.000  C
  O50      1.0000 0.60967  0.31533  0.53443  Biso   1.000  O
  C147     1.0000 0.54127  0.24523  0.51353  Biso   1.000  C
  C148     1.0000 0.49197  0.22363  0.50633  Biso   1.000  C
  H96      1.0000 0.47337  0.23473  0.52023  Biso   1.000  H
  C149     1.0000 0.46997  0.18593  0.47873  Biso   1.000  C
  C150     1.0000 0.49727  0.16973  0.45843  Biso   1.000  C
  H97      1.0000 0.48227  0.14403  0.43953  Biso   1.000  H
  C151     1.0000 0.54657  0.19133  0.46563  Biso   1.000  C
  C152     1.0000 0.56857  0.22913  0.49313  Biso   1.000  C
  H98      1.0000 0.60227  0.24393  0.49813  Biso   1.000  H
  C153     1.0000 0.57647  0.17573  0.44163  Biso   1.000  C
  H99      1.0000 0.56337  0.16763  0.41373  Biso   1.000  H
  H100     1.0000 0.60987  0.20323  0.43973  Biso   1.000  H
  C154     1.0000 0.57817  0.13303  0.45903  Biso   1.000  C
  H101     1.0000 0.59687  0.14263  0.48453  Biso   1.000  H
  H102     1.0000 0.54497  0.10723  0.46543  Biso   1.000  H
  C155     1.0000 0.60077  0.11393  0.42973  Biso   1.000  C
  C156     1.0000 0.57387  0.08853  0.39623  Biso   1.000  C
  H103     1.0000 0.54127  0.08103  0.39373  Biso   1.000  H
  C157     1.0000 0.59447  0.07383  0.36653  Biso   1.000  C
  C158     1.0000 0.64217  0.08473  0.37023  Biso   1.000  C
  H104     1.0000 0.65637  0.07483  0.34993  Biso   1.000  H
  C159     1.0000 0.66927  0.11043  0.40373  Biso   1.000  C
  C160     1.0000 0.64847  0.12493  0.43343  Biso   1.000  C
  H105     1.0000 0.66697  0.14243  0.45633  Biso   1.000  H
  Co5      1.0000 0.81167  0.13333  0.36633  Biso   1.000  Co
  Fe6      1.0000 0.47893  0.46947  0.70107  Biso   1.000  Fe
  O51      1.0000 0.06089  0.51672  0.81991  Biso   1.000  O
  O52      1.0000 0.06594  0.46627  0.77685  Biso   1.000  O
  O53      1.0000 0.19231  0.37487  0.66252  Biso   1.000  O
  O54      1.0000 0.25321  0.36646  0.63816  Biso   1.000  O
  O55      1.0000 0.40768  0.47275  0.77623  Biso   1.000  O
  O56      1.0000 0.40843  0.44703  0.71350  Biso   1.000  O
  O57      1.0000 0.45171  0.42998  0.64720  Biso   1.000  O
  C161     1.0000 0.08333  0.49807  0.80307  Biso   1.000  C
  C162     1.0000 0.23513  0.38207  0.66377  Biso   1.000  C
  C163     1.0000 0.38923  0.45627  0.74257  Biso   1.000  C
  O58      1.0000 0.27493  0.62237  0.89137  Biso   1.000  O
  C164     1.0000 0.20383  0.56697  0.85627  Biso   1.000  C
  C165     1.0000 0.15753  0.55357  0.84327  Biso   1.000  C
  H106     1.0000 0.14303  0.57207  0.85097  Biso   1.000  H
  C166     1.0000 0.13223  0.51297  0.81897  Biso   1.000  C
  C167     1.0000 0.15333  0.48587  0.80767  Biso   1.000  C
  H107     1.0000 0.13603  0.45817  0.79107  Biso   1.000  H
  C168     1.0000 0.19973  0.49937  0.82077  Biso   1.000  C
  C169     1.0000 0.22493  0.53987  0.84497  Biso   1.000  C
  H108     1.0000 0.25663  0.54907  0.85387  Biso   1.000  H
  C170     1.0000 0.22493  0.47267  0.80697  Biso   1.000  C
  H109     1.0000 0.23923  0.46587  0.83087  Biso   1.000  H
  H110     1.0000 0.20073  0.44137  0.79527  Biso   1.000  H
  C171     1.0000 0.26423  0.49967  0.77617  Biso   1.000  C
  H111     1.0000 0.29263  0.52537  0.79057  Biso   1.000  H
  H112     1.0000 0.25283  0.51577  0.75717  Biso   1.000  H
  C172     1.0000 0.28073  0.47087  0.75157  Biso   1.000  C
  C173     1.0000 0.25233  0.44167  0.72017  Biso   1.000  C
  H113     1.0000 0.22133  0.43787  0.71547  Biso   1.000  H
  C174     1.0000 0.26913  0.41797  0.69557  Biso   1.000  C
  C175     1.0000 0.31443  0.42347  0.70247  Biso   1.000  C
  H114     1.0000 0.32593  0.40727  0.68557  Biso   1.000  H
  C176     1.0000 0.34303  0.45257  0.73387  Biso   1.000  C
  C177     1.0000 0.32603  0.47627  0.75827  Biso   1.000  C
  H115     1.0000 0.34553  0.49617  0.77977  Biso   1.000  H
  O59      1.0000 0.20738  0.62967  0.89617  Biso   1.000  O
  H116     1.0000 0.22543  0.65547  0.90847  Biso   1.000  H
  C178     1.0000 0.23323  0.61637  0.87637  Biso   1.000  C
  O60      1.0000 0.27633  0.64867  0.86777  Biso   1.000  O
  C179     1.0000 0.20793  0.57857  0.84687  Biso   1.000  C
  C180     1.0000 0.15863  0.55697  0.83967  Biso   1.000  C
  H117     1.0000 0.14003  0.56807  0.85357  Biso   1.000  H
  C181     1.0000 0.13663  0.51927  0.81207  Biso   1.000  C
  C182     1.0000 0.16393  0.50307  0.79177  Biso   1.000  C
  H118     1.0000 0.14893  0.47737  0.77287  Biso   1.000  H
  C183     1.0000 0.21323  0.52467  0.79897  Biso   1.000  C
  C184     1.0000 0.23523  0.56247  0.82647  Biso   1.000  C
  H119     1.0000 0.26893  0.57727  0.83147  Biso   1.000  H
  C185     1.0000 0.24313  0.50907  0.77497  Biso   1.000  C
  H120     1.0000 0.23003  0.50097  0.74707  Biso   1.000  H
  H121     1.0000 0.27653  0.53657  0.77307  Biso   1.000  H
  C186     1.0000 0.24483  0.46637  0.79237  Biso   1.000  C
  H122     1.0000 0.26353  0.47597  0.81787  Biso   1.000  H
  H123     1.0000 0.21163  0.44057  0.79877  Biso   1.000  H
  C187     1.0000 0.26743  0.44727  0.76307  Biso   1.000  C
  C188     1.0000 0.24053  0.42187  0.72957  Biso   1.000  C
  H124     1.0000 0.20793  0.41437  0.72707  Biso   1.000  H
  C189     1.0000 0.26113  0.40717  0.69987  Biso   1.000  C
  C190     1.0000 0.30883  0.41807  0.70357  Biso   1.000  C
  H125     1.0000 0.32303  0.40817  0.68327  Biso   1.000  H
  C191     1.0000 0.33593  0.44377  0.73707  Biso   1.000  C
  C192     1.0000 0.31513  0.45827  0.76677  Biso   1.000  C
  H126     1.0000 0.33363  0.47577  0.78967  Biso   1.000  H
  Co6      1.0000 0.47833  0.46667  0.69967  Biso   1.000  Co
  Fe7      1.0000 0.19720  0.34280  0.03440  Biso   1.000  Fe
  O61      1.0000 0.14995  0.87751  0.15324  Biso   1.000  O
  O62      1.0000 0.20040  0.93301  0.11018  Biso   1.000  O
  O63      1.0000 0.29180  0.15078  0.99585  Biso   1.000  O
  O64      1.0000 0.30021  0.22009  0.97149  Biso   1.000  O
  O65      1.0000 0.19392  0.26827  0.10956  Biso   1.000  O
  O66      1.0000 0.21964  0.29474  0.04683  Biso   1.000  O
  O67      1.0000 0.23669  0.35507  0.98053  Biso   1.000  O
  C193     1.0000 0.16860  0.91860  0.13640  Biso   1.000  C
  C194     1.0000 0.28460  0.18640  0.99710  Biso   1.000  C
  C195     1.0000 0.21040  0.26630  0.07590  Biso   1.000  C
  O68      1.0000 0.04430  0.98590  0.22470  Biso   1.000  O
  C196     1.0000 0.09970  0.97020  0.18960  Biso   1.000  C
  C197     1.0000 0.11310  0.93730  0.17660  Biso   1.000  C
  H127     1.0000 0.09460  0.90430  0.18430  Biso   1.000  H
  C198     1.0000 0.15370  0.95260  0.15230  Biso   1.000  C
  C199     1.0000 0.18080  0.00080  0.14100  Biso   1.000  C
  H128     1.0000 0.20850  0.01120  0.12440  Biso   1.000  H
  C200     1.0000 0.16730  0.03370  0.15410  Biso   1.000  C
  C201     1.0000 0.12680  0.01840  0.17830  Biso   1.000  C
  H129     1.0000 0.11760  0.04090  0.18720  Biso   1.000  H
  C202     1.0000 0.19400  0.08560  0.14030  Biso   1.000  C
  H130     1.0000 0.20080  0.10670  0.16420  Biso   1.000  H
  H131     1.0000 0.22530  0.09270  0.12860  Biso   1.000  H
  C203     1.0000 0.16700  0.09790  0.10950  Biso   1.000  C
  H132     1.0000 0.14130  0.10060  0.12390  Biso   1.000  H
  H133     1.0000 0.15090  0.07040  0.09050  Biso   1.000  H
  C204     1.0000 0.19580  0.14320  0.08490  Biso   1.000  C
  C205     1.0000 0.22500  0.14400  0.05350  Biso   1.000  C
  H134     1.0000 0.22880  0.11680  0.04880  Biso   1.000  H
  C206     1.0000 0.24870  0.18450  0.02890  Biso   1.000  C
  C207     1.0000 0.24320  0.22430  0.03580  Biso   1.000  C
  H135     1.0000 0.25940  0.25200  0.01890  Biso   1.000  H
  C208     1.0000 0.21410  0.22380  0.06720  Biso   1.000  C
  C209     1.0000 0.19040  0.18310  0.09160  Biso   1.000  C
  H136     1.0000 0.17050  0.18270  0.11310  Biso   1.000  H
  O69      1.0000 0.03700  0.91105  0.22950  Biso   1.000  O
  H137     1.0000 0.01120  0.90330  0.24180  Biso   1.000  H
  C210     1.0000 0.05030  0.95020  0.20970  Biso   1.000  C
  O70      1.0000 0.01800  0.96100  0.20110  Biso   1.000  O
  C211     1.0000 0.08810  0.96270  0.18020  Biso   1.000  C
  C212     1.0000 0.10970  0.93500  0.17300  Biso   1.000  C
  H138     1.0000 0.09860  0.90530  0.18690  Biso   1.000  H
  C213     1.0000 0.14740  0.95070  0.14540  Biso   1.000  C
  C214     1.0000 0.16360  0.99420  0.12510  Biso   1.000  C
  H139     1.0000 0.18930  0.00490  0.10620  Biso   1.000  H
  C215     1.0000 0.14200  0.02190  0.13230  Biso   1.000  C
  C216     1.0000 0.10420  0.00610  0.15980  Biso   1.000  C
  H140     1.0000 0.08940  0.02500  0.16480  Biso   1.000  H
  C217     1.0000 0.15760  0.06740  0.10830  Biso   1.000  C
  H141     1.0000 0.16570  0.06240  0.08040  Biso   1.000  H
  H142     1.0000 0.13010  0.07330  0.10640  Biso   1.000  H
  C218     1.0000 0.20030  0.11180  0.12570  Biso   1.000  C
  H143     1.0000 0.19070  0.12090  0.15120  Biso   1.000  H
  H144     1.0000 0.22610  0.10440  0.13210  Biso   1.000  H
  C219     1.0000 0.21940  0.15350  0.09640  Biso   1.000  C
  C220     1.0000 0.24480  0.15200  0.06290  Biso   1.000  C
  H145     1.0000 0.25230  0.12690  0.06040  Biso   1.000  H
  C221     1.0000 0.25950  0.18730  0.03320  Biso   1.000  C
  C222     1.0000 0.24860  0.22410  0.03690  Biso   1.000  C
  H146     1.0000 0.25850  0.24820  0.01660  Biso   1.000  H
  C223     1.0000 0.22290  0.22550  0.07040  Biso   1.000  C
  C224     1.0000 0.20840  0.19020  0.10010  Biso   1.000  C
  H147     1.0000 0.19090  0.19120  0.12300  Biso   1.000  H
  Co7      1.0000 0.20000  0.34500  0.03300  Biso   1.000  Co
  Fe8      1.0000 0.86387  0.67613  0.36773  Biso   1.000  Fe
  O71      1.0000 0.81662  0.21084  0.48657  Biso   1.000  O
  O72      1.0000 0.86707  0.26634  0.44351  Biso   1.000  O
  O73      1.0000 0.95847  0.48411  0.32918  Biso   1.000  O
  O74      1.0000 0.96688  0.55342  0.30482  Biso   1.000  O
  O75      1.0000 0.86059  0.60160  0.44289  Biso   1.000  O
  O76      1.0000 0.88631  0.62807  0.38016  Biso   1.000  O
  O77      1.0000 0.90336  0.68840  0.31386  Biso   1.000  O
  C225     1.0000 0.83527  0.25193  0.46973  Biso   1.000  C
  C226     1.0000 0.95127  0.51973  0.33043  Biso   1.000  C
  C227     1.0000 0.87707  0.59963  0.40923  Biso   1.000  C
  O78      1.0000 0.71097  0.31923  0.55803  Biso   1.000  O
  C228     1.0000 0.76637  0.30353  0.52293  Biso   1.000  C
  C229     1.0000 0.77977  0.27063  0.50993  Biso   1.000  C
  H148     1.0000 0.76127  0.23763  0.51763  Biso   1.000  H
  C230     1.0000 0.82037  0.28593  0.48563  Biso   1.000  C
  C231     1.0000 0.84747  0.33413  0.47433  Biso   1.000  C
  H149     1.0000 0.87517  0.34453  0.45773  Biso   1.000  H
  C232     1.0000 0.83397  0.36703  0.48743  Biso   1.000  C
  C233     1.0000 0.79347  0.35173  0.51163  Biso   1.000  C
  H150     1.0000 0.78427  0.37423  0.52053  Biso   1.000  H
  C234     1.0000 0.86067  0.41893  0.47363  Biso   1.000  C
  H151     1.0000 0.86747  0.44003  0.49753  Biso   1.000  H
  H152     1.0000 0.89197  0.42603  0.46193  Biso   1.000  H
  C235     1.0000 0.83367  0.43123  0.44283  Biso   1.000  C
  H153     1.0000 0.80797  0.43393  0.45723  Biso   1.000  H
  H154     1.0000 0.81757  0.40373  0.42383  Biso   1.000  H
  C236     1.0000 0.86247  0.47653  0.41823  Biso   1.000  C
  C237     1.0000 0.89167  0.47733  0.38683  Biso   1.000  C
  H155     1.0000 0.89547  0.45013  0.38213  Biso   1.000  H
  C238     1.0000 0.91537  0.51783  0.36223  Biso   1.000  C
  C239     1.0000 0.90987  0.55763  0.36913  Biso   1.000  C
  H156     1.0000 0.92607  0.58533  0.35223  Biso   1.000  H
  C240     1.0000 0.88077  0.55713  0.40053  Biso   1.000  C
  C241     1.0000 0.85707  0.51643  0.42493  Biso   1.000  C
  H157     1.0000 0.83717  0.51603  0.44643  Biso   1.000  H
  O79      1.0000 0.70367  0.24438  0.56283  Biso   1.000  O
  H158     1.0000 0.67787  0.23663  0.57513  Biso   1.000  H
  C242     1.0000 0.71697  0.28353  0.54303  Biso   1.000  C
  O80      1.0000 0.68467  0.29433  0.53443  Biso   1.000  O
  C243     1.0000 0.75477  0.29603  0.51353  Biso   1.000  C
  C244     1.0000 0.77637  0.26833  0.50633  Biso   1.000  C
  H159     1.0000 0.76527  0.23863  0.52023  Biso   1.000  H
  C245     1.0000 0.81407  0.28403  0.47873  Biso   1.000  C
  C246     1.0000 0.83027  0.32753  0.45843  Biso   1.000  C
  H160     1.0000 0.85597  0.33823  0.43953  Biso   1.000  H
  C247     1.0000 0.80867  0.35523  0.46563  Biso   1.000  C
  C248     1.0000 0.77087  0.33943  0.49313  Biso   1.000  C
  H161     1.0000 0.75607  0.35833  0.49813  Biso   1.000  H
  C249     1.0000 0.82427  0.40073  0.44163  Biso   1.000  C
  H162     1.0000 0.83237  0.39573  0.41373  Biso   1.000  H
  H163     1.0000 0.79677  0.40663  0.43973  Biso   1.000  H
  C250     1.0000 0.86697  0.44513  0.45903  Biso   1.000  C
  H164     1.0000 0.85737  0.45423  0.48453  Biso   1.000  H
  H165     1.0000 0.89277  0.43773  0.46543  Biso   1.000  H
  C251     1.0000 0.88607  0.48683  0.42973  Biso   1.000  C
  C252     1.0000 0.91147  0.48533  0.39623  Biso   1.000  C
  H166     1.0000 0.91897  0.46023  0.39373  Biso   1.000  H
  C253     1.0000 0.92617  0.52063  0.36653  Biso   1.000  C
  C254     1.0000 0.91527  0.55743  0.37023  Biso   1.000  C
  H167     1.0000 0.92517  0.58153  0.34993  Biso   1.000  H
  C255     1.0000 0.88957  0.55883  0.40373  Biso   1.000  C
  C256     1.0000 0.87507  0.52353  0.43343  Biso   1.000  C
  H168     1.0000 0.85757  0.52453  0.45633  Biso   1.000  H
  Co8      1.0000 0.86667  0.67833  0.36633  Biso   1.000  Co
  Fe9      1.0000 0.53053  0.00947  0.70107  Biso   1.000  Fe
  O81      1.0000 0.48328  0.54418  0.81991  Biso   1.000  O
  O82      1.0000 0.53373  0.59968  0.77685  Biso   1.000  O
  O83      1.0000 0.62513  0.81745  0.66252  Biso   1.000  O
  O84      1.0000 0.63354  0.88676  0.63816  Biso   1.000  O
  O85      1.0000 0.52725  0.93494  0.77623  Biso   1.000  O
  O86      1.0000 0.55297  0.96141  0.71350  Biso   1.000  O
  O87      1.0000 0.57002  0.02174  0.64720  Biso   1.000  O
  C257     1.0000 0.50193  0.58527  0.80307  Biso   1.000  C
  C258     1.0000 0.61793  0.85307  0.66377  Biso   1.000  C
  C259     1.0000 0.54373  0.93297  0.74257  Biso   1.000  C
  O88      1.0000 0.37763  0.65257  0.89137  Biso   1.000  O
  C260     1.0000 0.43303  0.63687  0.85627  Biso   1.000  C
  C261     1.0000 0.44643  0.60397  0.84327  Biso   1.000  C
  H169     1.0000 0.42793  0.57097  0.85097  Biso   1.000  H
  C262     1.0000 0.48703  0.61927  0.81897  Biso   1.000  C
  C263     1.0000 0.51413  0.66747  0.80767  Biso   1.000  C
  H170     1.0000 0.54183  0.67787  0.79107  Biso   1.000  H
  C264     1.0000 0.50063  0.70037  0.82077  Biso   1.000  C
  C265     1.0000 0.46013  0.68507  0.84497  Biso   1.000  C
  H171     1.0000 0.45093  0.70757  0.85387  Biso   1.000  H
  C266     1.0000 0.52733  0.75227  0.80697  Biso   1.000  C
  H172     1.0000 0.53413  0.77337  0.83087  Biso   1.000  H
  H173     1.0000 0.55863  0.75937  0.79527  Biso   1.000  H
  C267     1.0000 0.50033  0.76457  0.77617  Biso   1.000  C
  H174     1.0000 0.47463  0.76727  0.79057  Biso   1.000  H
  H175     1.0000 0.48423  0.73707  0.75717  Biso   1.000  H
  C268     1.0000 0.52913  0.80987  0.75157  Biso   1.000  C
  C269     1.0000 0.55833  0.81067  0.72017  Biso   1.000  C
  H176     1.0000 0.56213  0.78347  0.71547  Biso   1.000  H
  C270     1.0000 0.58203  0.85117  0.69557  Biso   1.000  C
  C271     1.0000 0.57653  0.89097  0.70247  Biso   1.000  C
  H177     1.0000 0.59273  0.91867  0.68557  Biso   1.000  H
  C272     1.0000 0.54743  0.89047  0.73387  Biso   1.000  C
  C273     1.0000 0.52373  0.84977  0.75827  Biso   1.000  C
  H178     1.0000 0.50383  0.84937  0.77977  Biso   1.000  H
  O89      1.0000 0.37033  0.57772  0.89617  Biso   1.000  O
  H179     1.0000 0.34453  0.56997  0.90847  Biso   1.000  H
  C274     1.0000 0.38363  0.61687  0.87637  Biso   1.000  C
  O90      1.0000 0.35133  0.62767  0.86777  Biso   1.000  O
  C275     1.0000 0.42143  0.62937  0.84687  Biso   1.000  C
  C276     1.0000 0.44303  0.60167  0.83967  Biso   1.000  C
  H180     1.0000 0.43193  0.57197  0.85357  Biso   1.000  H
  C277     1.0000 0.48073  0.61737  0.81207  Biso   1.000  C
  C278     1.0000 0.49693  0.66087  0.79177  Biso   1.000  C
  H181     1.0000 0.52263  0.67157  0.77287  Biso   1.000  H
  C279     1.0000 0.47533  0.68857  0.79897  Biso   1.000  C
  C280     1.0000 0.43753  0.67277  0.82647  Biso   1.000  C
  H182     1.0000 0.42273  0.69167  0.83147  Biso   1.000  H
  C281     1.0000 0.49093  0.73407  0.77497  Biso   1.000  C
  H183     1.0000 0.49903  0.72907  0.74707  Biso   1.000  H
  H184     1.0000 0.46343  0.73997  0.77307  Biso   1.000  H
  C282     1.0000 0.53363  0.77847  0.79237  Biso   1.000  C
  H185     1.0000 0.52403  0.78757  0.81787  Biso   1.000  H
  H186     1.0000 0.55943  0.77107  0.79877  Biso   1.000  H
  C283     1.0000 0.55273  0.82017  0.76307  Biso   1.000  C
  C284     1.0000 0.57813  0.81867  0.72957  Biso   1.000  C
  H187     1.0000 0.58563  0.79357  0.72707  Biso   1.000  H
  C285     1.0000 0.59283  0.85397  0.69987  Biso   1.000  C
  C286     1.0000 0.58193  0.89077  0.70357  Biso   1.000  C
  H188     1.0000 0.59183  0.91487  0.68327  Biso   1.000  H
  C287     1.0000 0.55623  0.89217  0.73707  Biso   1.000  C
  C288     1.0000 0.54173  0.85687  0.76677  Biso   1.000  C
  H189     1.0000 0.52423  0.85787  0.78967  Biso   1.000  H
  Co9      1.0000 0.53333  0.01167  0.69967  Biso   1.000  Co
  Fe10     1.0000 0.85440  0.65720  0.46560  Biso   1.000  Fe
  O91      1.0000 0.27244  0.12249  0.34676  Biso   1.000  O
  O92      1.0000 0.26739  0.06699  0.38982  Biso   1.000  O
  O93      1.0000 0.14102  0.84922  0.50415  Biso   1.000  O
  O94      1.0000 0.08012  0.77991  0.52851  Biso   1.000  O
  O95      1.0000 0.92565  0.73173  0.39044  Biso   1.000  O
  O96      1.0000 0.92490  0.70526  0.45317  Biso   1.000  O
  O97      1.0000 0.88162  0.64493  0.51947  Biso   1.000  O
  C289     1.0000 0.25000  0.08140  0.36360  Biso   1.000  C
  C290     1.0000 0.09820  0.81360  0.50290  Biso   1.000  C
  C291     1.0000 0.94410  0.73370  0.42410  Biso   1.000  C
  O98      1.0000 0.05840  0.01410  0.27530  Biso   1.000  O
  C292     1.0000 0.12950  0.02980  0.31040  Biso   1.000  C
  C293     1.0000 0.17580  0.06270  0.32340  Biso   1.000  C
  H190     1.0000 0.19030  0.09570  0.31570  Biso   1.000  H
  C294     1.0000 0.20110  0.04740  0.34770  Biso   1.000  C
  C295     1.0000 0.18000  0.99920  0.35900  Biso   1.000  C
  H191     1.0000 0.19730  0.98880  0.37560  Biso   1.000  H
  C296     1.0000 0.13360  0.96630  0.34590  Biso   1.000  C
  C297     1.0000 0.10840  0.98160  0.32170  Biso   1.000  C
  H192     1.0000 0.07670  0.95910  0.31280  Biso   1.000  H
  C298     1.0000 0.10840  0.91440  0.35970  Biso   1.000  C
  H193     1.0000 0.09410  0.89330  0.33580  Biso   1.000  H
  H194     1.0000 0.13260  0.90730  0.37140  Biso   1.000  H
  C299     1.0000 0.06910  0.90210  0.39050  Biso   1.000  C
  H195     1.0000 0.04070  0.89940  0.37610  Biso   1.000  H
  H196     1.0000 0.08050  0.92960  0.40950  Biso   1.000  H
  C300     1.0000 0.05260  0.85680  0.41510  Biso   1.000  C
  C301     1.0000 0.08100  0.85600  0.44650  Biso   1.000  C
  H197     1.0000 0.11200  0.88320  0.45120  Biso   1.000  H
  C302     1.0000 0.06420  0.81550  0.47110  Biso   1.000  C
  C303     1.0000 0.01890  0.77570  0.46420  Biso   1.000  C
  H198     1.0000 0.00740  0.74800  0.48110  Biso   1.000  H
  C304     1.0000 0.99030  0.77620  0.43280  Biso   1.000  C
  C305     1.0000 0.00730  0.81690  0.40840  Biso   1.000  C
  H199     1.0000 0.98780  0.81730  0.38690  Biso   1.000  H
  O99      1.0000 0.12595  0.08895  0.27050  Biso   1.000  O
  H200     1.0000 0.10790  0.09670  0.25820  Biso   1.000  H
  C306     1.0000 0.10010  0.04980  0.29030  Biso   1.000  C
  O100     1.0000 0.05700  0.03900  0.29890  Biso   1.000  O
  C307     1.0000 0.12540  0.03730  0.31980  Biso   1.000  C
  C308     1.0000 0.17470  0.06500  0.32700  Biso   1.000  C
  H201     1.0000 0.19330  0.09470  0.31310  Biso   1.000  H
  C309     1.0000 0.19670  0.04930  0.35460  Biso   1.000  C
  C310     1.0000 0.16940  0.00580  0.37490  Biso   1.000  C
  H202     1.0000 0.18440  0.99510  0.39380  Biso   1.000  H
  C311     1.0000 0.12010  0.97810  0.36770  Biso   1.000  C
  C312     1.0000 0.09810  0.99390  0.34020  Biso   1.000  C
  H203     1.0000 0.06440  0.97500  0.33520  Biso   1.000  H
  C313     1.0000 0.09020  0.93260  0.39170  Biso   1.000  C
  H204     1.0000 0.10330  0.93760  0.41960  Biso   1.000  H
  H205     1.0000 0.05680  0.92670  0.39360  Biso   1.000  H
  C314     1.0000 0.08850  0.88820  0.37430  Biso   1.000  C
  H206     1.0000 0.06980  0.87910  0.34880  Biso   1.000  H
  H207     1.0000 0.12170  0.89560  0.36790  Biso   1.000  H
  C315     1.0000 0.06590  0.84650  0.40360  Biso   1.000  C
  C316     1.0000 0.09280  0.84800  0.43710  Biso   1.000  C
  H208     1.0000 0.12540  0.87310  0.43960  Biso   1.000  H
  C317     1.0000 0.07220  0.81270  0.46680  Biso   1.000  C
  C318     1.0000 0.02450  0.77590  0.46310  Biso   1.000  C
  H209     1.0000 0.01030  0.75180  0.48340  Biso   1.000  H
  C319     1.0000 0.99740  0.77450  0.42960  Biso   1.000  C
  C320     1.0000 0.01820  0.80980  0.39990  Biso   1.000  C
  H210     1.0000 0.99970  0.80880  0.37700  Biso   1.000  H
  Co10     1.0000 0.85500  0.65500  0.46700  Biso   1.000  Co
  Fe11     1.0000 0.52107  0.99053  0.79893  Biso   1.000  Fe
  O101     1.0000 0.93911  0.45582  0.68009  Biso   1.000  O
  O102     1.0000 0.93406  0.40032  0.72315  Biso   1.000  O
  O103     1.0000 0.80769  0.18255  0.83748  Biso   1.000  O
  O104     1.0000 0.74679  0.11324  0.86184  Biso   1.000  O
  O105     1.0000 0.59232  0.06506  0.72377  Biso   1.000  O
  O106     1.0000 0.59157  0.03859  0.78650  Biso   1.000  O
  O107     1.0000 0.54829  0.97826  0.85280  Biso   1.000  O
  C321     1.0000 0.91667  0.41473  0.69693  Biso   1.000  C
  C322     1.0000 0.76487  0.14693  0.83623  Biso   1.000  C
  C323     1.0000 0.61077  0.06703  0.75743  Biso   1.000  C
  O108     1.0000 0.72507  0.34743  0.60863  Biso   1.000  O
  C324     1.0000 0.79617  0.36313  0.64373  Biso   1.000  C
  C325     1.0000 0.84247  0.39603  0.65673  Biso   1.000  C
  H211     1.0000 0.85697  0.42903  0.64903  Biso   1.000  H
  C326     1.0000 0.86777  0.38073  0.68103  Biso   1.000  C
  C327     1.0000 0.84667  0.33253  0.69233  Biso   1.000  C
  H212     1.0000 0.86397  0.32213  0.70893  Biso   1.000  H
  C328     1.0000 0.80027  0.29963  0.67923  Biso   1.000  C
  C329     1.0000 0.77507  0.31493  0.65503  Biso   1.000  C
  H213     1.0000 0.74337  0.29243  0.64613  Biso   1.000  H
  C330     1.0000 0.77507  0.24773  0.69303  Biso   1.000  C
  H214     1.0000 0.76077  0.22663  0.66913  Biso   1.000  H
  H215     1.0000 0.79927  0.24063  0.70473  Biso   1.000  H
  C331     1.0000 0.73577  0.23543  0.72383  Biso   1.000  C
  H216     1.0000 0.70737  0.23273  0.70943  Biso   1.000  H
  H217     1.0000 0.74717  0.26293  0.74283  Biso   1.000  H
  C332     1.0000 0.71927  0.19013  0.74843  Biso   1.000  C
  C333     1.0000 0.74767  0.18933  0.77983  Biso   1.000  C
  H218     1.0000 0.77867  0.21653  0.78453  Biso   1.000  H
  C334     1.0000 0.73087  0.14883  0.80443  Biso   1.000  C
  C335     1.0000 0.68557  0.10903  0.79753  Biso   1.000  C
  H219     1.0000 0.67407  0.08133  0.81443  Biso   1.000  H
  C336     1.0000 0.65697  0.10953  0.76613  Biso   1.000  C
  C337     1.0000 0.67397  0.15023  0.74173  Biso   1.000  C
  H220     1.0000 0.65447  0.15063  0.72023  Biso   1.000  H
  O109     1.0000 0.79262  0.42228  0.60383  Biso   1.000  O
  H221     1.0000 0.77457  0.43003  0.59153  Biso   1.000  H
  C338     1.0000 0.76677  0.38313  0.62363  Biso   1.000  C
  O110     1.0000 0.72367  0.37233  0.63223  Biso   1.000  O
  C339     1.0000 0.79207  0.37063  0.65313  Biso   1.000  C
  C340     1.0000 0.84137  0.39833  0.66033  Biso   1.000  C
  H222     1.0000 0.85997  0.42803  0.64643  Biso   1.000  H
  C341     1.0000 0.86337  0.38263  0.68793  Biso   1.000  C
  C342     1.0000 0.83607  0.33913  0.70823  Biso   1.000  C
  H223     1.0000 0.85107  0.32843  0.72713  Biso   1.000  H
  C343     1.0000 0.78677  0.31143  0.70103  Biso   1.000  C
  C344     1.0000 0.76477  0.32723  0.67353  Biso   1.000  C
  H224     1.0000 0.73107  0.30833  0.66853  Biso   1.000  H
  C345     1.0000 0.75687  0.26593  0.72503  Biso   1.000  C
  H225     1.0000 0.76997  0.27093  0.75293  Biso   1.000  H
  H226     1.0000 0.72347  0.26003  0.72693  Biso   1.000  H
  C346     1.0000 0.75517  0.22153  0.70763  Biso   1.000  C
  H227     1.0000 0.73647  0.21243  0.68213  Biso   1.000  H
  H228     1.0000 0.78837  0.22893  0.70123  Biso   1.000  H
  C347     1.0000 0.73257  0.17983  0.73693  Biso   1.000  C
  C348     1.0000 0.75947  0.18133  0.77043  Biso   1.000  C
  H229     1.0000 0.79207  0.20643  0.77293  Biso   1.000  H
  C349     1.0000 0.73887  0.14603  0.80013  Biso   1.000  C
  C350     1.0000 0.69117  0.10923  0.79643  Biso   1.000  C
  H230     1.0000 0.67697  0.08513  0.81673  Biso   1.000  H
  C351     1.0000 0.66407  0.10783  0.76293  Biso   1.000  C
  C352     1.0000 0.68487  0.14313  0.73323  Biso   1.000  C
  H231     1.0000 0.66637  0.14213  0.71033  Biso   1.000  H
  Co11     1.0000 0.52167  0.98833  0.80033  Biso   1.000  Co
  Fe12     1.0000 0.18773  0.32387  0.13227  Biso   1.000  Fe
  O111     1.0000 0.60577  0.78916  0.01343  Biso   1.000  O
  O112     1.0000 0.60072  0.73366  0.05649  Biso   1.000  O
  O113     1.0000 0.47435  0.51589  0.17082  Biso   1.000  O
  O114     1.0000 0.41345  0.44658  0.19518  Biso   1.000  O
  O115     1.0000 0.25898  0.39840  0.05711  Biso   1.000  O
  O116     1.0000 0.25823  0.37193  0.11984  Biso   1.000  O
  O117     1.0000 0.21495  0.31160  0.18614  Biso   1.000  O
  C353     1.0000 0.58333  0.74807  0.03027  Biso   1.000  C
  C354     1.0000 0.43153  0.48027  0.16957  Biso   1.000  C
  C355     1.0000 0.27743  0.40037  0.09077  Biso   1.000  C
  O118     1.0000 0.39173  0.68077  0.94197  Biso   1.000  O
  C356     1.0000 0.46283  0.69647  0.97707  Biso   1.000  C
  C357     1.0000 0.50913  0.72937  0.99007  Biso   1.000  C
  H232     1.0000 0.52363  0.76237  0.98237  Biso   1.000  H
  C358     1.0000 0.53443  0.71407  0.01437  Biso   1.000  C
  C359     1.0000 0.51333  0.66587  0.02567  Biso   1.000  C
  H233     1.0000 0.53063  0.65547  0.04227  Biso   1.000  H
  C360     1.0000 0.46693  0.63297  0.01257  Biso   1.000  C
  C361     1.0000 0.44173  0.64827  0.98837  Biso   1.000  C
  H234     1.0000 0.41003  0.62577  0.97947  Biso   1.000  H
  C362     1.0000 0.44173  0.58107  0.02637  Biso   1.000  C
  H235     1.0000 0.42743  0.55997  0.00247  Biso   1.000  H
  H236     1.0000 0.46593  0.57397  0.03807  Biso   1.000  H
  C363     1.0000 0.40243  0.56877  0.05717  Biso   1.000  C
  H237     1.0000 0.37403  0.56607  0.04277  Biso   1.000  H
  H238     1.0000 0.41383  0.59627  0.07617  Biso   1.000  H
  C364     1.0000 0.38593  0.52347  0.08177  Biso   1.000  C
  C365     1.0000 0.41433  0.52267  0.11317  Biso   1.000  C
  H239     1.0000 0.44533  0.54987  0.11787  Biso   1.000  H
  C366     1.0000 0.39753  0.48217  0.13777  Biso   1.000  C
  C367     1.0000 0.35223  0.44237  0.13087  Biso   1.000  C
  H240     1.0000 0.34073  0.41467  0.14777  Biso   1.000  H
  C368     1.0000 0.32363  0.44287  0.09947  Biso   1.000  C
  C369     1.0000 0.34063  0.48357  0.07507  Biso   1.000  C
  H241     1.0000 0.32113  0.48397  0.05357  Biso   1.000  H
  O119     1.0000 0.45928  0.75562  0.93717  Biso   1.000  O
  H242     1.0000 0.44123  0.76337  0.92487  Biso   1.000  H
  C370     1.0000 0.43343  0.71647  0.95697  Biso   1.000  C
  O120     1.0000 0.39033  0.70567  0.96557  Biso   1.000  O
  C371     1.0000 0.45873  0.70397  0.98647  Biso   1.000  C
  C372     1.0000 0.50803  0.73167  0.99367  Biso   1.000  C
  H243     1.0000 0.52663  0.76137  0.97977  Biso   1.000  H
  C373     1.0000 0.53003  0.71597  0.02127  Biso   1.000  C
  C374     1.0000 0.50273  0.67247  0.04157  Biso   1.000  C
  H244     1.0000 0.51773  0.66177  0.06047  Biso   1.000  H
  C375     1.0000 0.45343  0.64477  0.03437  Biso   1.000  C
  C376     1.0000 0.43143  0.66057  0.00687  Biso   1.000  C
  H245     1.0000 0.39773  0.64167  0.00187  Biso   1.000  H
  C377     1.0000 0.42353  0.59927  0.05837  Biso   1.000  C
  H246     1.0000 0.43663  0.60427  0.08627  Biso   1.000  H
  H247     1.0000 0.39013  0.59337  0.06027  Biso   1.000  H
  C378     1.0000 0.42183  0.55487  0.04097  Biso   1.000  C
  H248     1.0000 0.40313  0.54577  0.01547  Biso   1.000  H
  H249     1.0000 0.45503  0.56227  0.03457  Biso   1.000  H
  C379     1.0000 0.39923  0.51317  0.07027  Biso   1.000  C
  C380     1.0000 0.42613  0.51467  0.10377  Biso   1.000  C
  H250     1.0000 0.45873  0.53977  0.10627  Biso   1.000  H
  C381     1.0000 0.40553  0.47937  0.13347  Biso   1.000  C
  C382     1.0000 0.35783  0.44257  0.12977  Biso   1.000  C
  H251     1.0000 0.34363  0.41847  0.15007  Biso   1.000  H
  C383     1.0000 0.33073  0.44117  0.09627  Biso   1.000  C
  C384     1.0000 0.35153  0.47647  0.06657  Biso   1.000  C
  H252     1.0000 0.33303  0.47547  0.04367  Biso   1.000  H
  Co12     1.0000 0.18833  0.32167  0.13367  Biso   1.000  Co
  Fe13     1.0000 0.80280  0.14560  0.46560  Biso   1.000  Fe
  O121     1.0000 0.85005  0.72756  0.34676  Biso   1.000  O
  O122     1.0000 0.79960  0.73261  0.38982  Biso   1.000  O
  O123     1.0000 0.70820  0.85898  0.50415  Biso   1.000  O
  O124     1.0000 0.69979  0.91988  0.52851  Biso   1.000  O
  O125     1.0000 0.80608  0.07435  0.39044  Biso   1.000  O
  O126     1.0000 0.78036  0.07510  0.45317  Biso   1.000  O
  O127     1.0000 0.76331  0.11838  0.51947  Biso   1.000  O
  C385     1.0000 0.83140  0.75000  0.36360  Biso   1.000  C
  C386     1.0000 0.71540  0.90180  0.50290  Biso   1.000  C
  C387     1.0000 0.78960  0.05590  0.42410  Biso   1.000  C
  O128     1.0000 0.95570  0.94160  0.27530  Biso   1.000  O
  C388     1.0000 0.90030  0.87050  0.31040  Biso   1.000  C
  C389     1.0000 0.88690  0.82420  0.32340  Biso   1.000  C
  H253     1.0000 0.90540  0.80970  0.31570  Biso   1.000  H
  C390     1.0000 0.84630  0.79890  0.34770  Biso   1.000  C
  C391     1.0000 0.81920  0.82000  0.35900  Biso   1.000  C
  H254     1.0000 0.79150  0.80270  0.37560  Biso   1.000  H
  C392     1.0000 0.83270  0.86640  0.34590  Biso   1.000  C
  C393     1.0000 0.87320  0.89160  0.32170  Biso   1.000  C
  H255     1.0000 0.88240  0.92330  0.31280  Biso   1.000  H
  C394     1.0000 0.80600  0.89160  0.35970  Biso   1.000  C
  H256     1.0000 0.79920  0.90590  0.33580  Biso   1.000  H
  H257     1.0000 0.77470  0.86740  0.37140  Biso   1.000  H
  C395     1.0000 0.83300  0.93090  0.39050  Biso   1.000  C
  H258     1.0000 0.85870  0.95930  0.37610  Biso   1.000  H
  H259     1.0000 0.84910  0.91950  0.40950  Biso   1.000  H
  C396     1.0000 0.80420  0.94740  0.41510  Biso   1.000  C
  C397     1.0000 0.77500  0.91900  0.44650  Biso   1.000  C
  H260     1.0000 0.77120  0.88800  0.45120  Biso   1.000  H
  C398     1.0000 0.75130  0.93580  0.47110  Biso   1.000  C
  C399     1.0000 0.75680  0.98110  0.46420  Biso   1.000  C
  H261     1.0000 0.74060  0.99260  0.48110  Biso   1.000  H
  C400     1.0000 0.78590  0.00970  0.43280  Biso   1.000  C
  C401     1.0000 0.80960  0.99270  0.40840  Biso   1.000  C
  H262     1.0000 0.82950  0.01220  0.38690  Biso   1.000  H
  O129     1.0000 0.96300  0.87405  0.27050  Biso   1.000  O
  H263     1.0000 0.98880  0.89210  0.25820  Biso   1.000  H
  C402     1.0000 0.94970  0.89990  0.29030  Biso   1.000  C
  O130     1.0000 0.98200  0.94300  0.29890  Biso   1.000  O
  C403     1.0000 0.91190  0.87460  0.31980  Biso   1.000  C
  C404     1.0000 0.89030  0.82530  0.32700  Biso   1.000  C
  H264     1.0000 0.90140  0.80670  0.31310  Biso   1.000  H
  C405     1.0000 0.85260  0.80330  0.35460  Biso   1.000  C
  C406     1.0000 0.83640  0.83060  0.37490  Biso   1.000  C
  H265     1.0000 0.81070  0.81560  0.39380  Biso   1.000  H
  C407     1.0000 0.85800  0.87990  0.36770  Biso   1.000  C
  C408     1.0000 0.89580  0.90190  0.34020  Biso   1.000  C
  H266     1.0000 0.91060  0.93560  0.33520  Biso   1.000  H
  C409     1.0000 0.84240  0.90980  0.39170  Biso   1.000  C
  H267     1.0000 0.83430  0.89670  0.41960  Biso   1.000  H
  H268     1.0000 0.86990  0.94320  0.39360  Biso   1.000  H
  C410     1.0000 0.79970  0.91150  0.37430  Biso   1.000  C
  H269     1.0000 0.80930  0.93020  0.34880  Biso   1.000  H
  H270     1.0000 0.77390  0.87830  0.36790  Biso   1.000  H
  C411     1.0000 0.78060  0.93410  0.40360  Biso   1.000  C
  C412     1.0000 0.75520  0.90720  0.43710  Biso   1.000  C
  H271     1.0000 0.74770  0.87460  0.43960  Biso   1.000  H
  C413     1.0000 0.74050  0.92780  0.46680  Biso   1.000  C
  C414     1.0000 0.75140  0.97550  0.46310  Biso   1.000  C
  H272     1.0000 0.74150  0.98970  0.48340  Biso   1.000  H
  C415     1.0000 0.77710  0.00260  0.42960  Biso   1.000  C
  C416     1.0000 0.79160  0.98180  0.39990  Biso   1.000  C
  H273     1.0000 0.80910  0.00030  0.37700  Biso   1.000  H
  Co13     1.0000 0.80000  0.14500  0.46700  Biso   1.000  Co
  Fe14     1.0000 0.46947  0.47893  0.79893  Biso   1.000  Fe
  O131     1.0000 0.51672  0.06089  0.68009  Biso   1.000  O
  O132     1.0000 0.46627  0.06594  0.72315  Biso   1.000  O
  O133     1.0000 0.37487  0.19231  0.83748  Biso   1.000  O
  O134     1.0000 0.36646  0.25321  0.86184  Biso   1.000  O
  O135     1.0000 0.47275  0.40768  0.72377  Biso   1.000  O
  O136     1.0000 0.44703  0.40843  0.78650  Biso   1.000  O
  O137     1.0000 0.42998  0.45171  0.85280  Biso   1.000  O
  C417     1.0000 0.49807  0.08333  0.69693  Biso   1.000  C
  C418     1.0000 0.38207  0.23513  0.83623  Biso   1.000  C
  C419     1.0000 0.45627  0.38923  0.75743  Biso   1.000  C
  O138     1.0000 0.62237  0.27493  0.60863  Biso   1.000  O
  C420     1.0000 0.56697  0.20383  0.64373  Biso   1.000  C
  C421     1.0000 0.55357  0.15753  0.65673  Biso   1.000  C
  H274     1.0000 0.57207  0.14303  0.64903  Biso   1.000  H
  C422     1.0000 0.51297  0.13223  0.68103  Biso   1.000  C
  C423     1.0000 0.48587  0.15333  0.69233  Biso   1.000  C
  H275     1.0000 0.45817  0.13603  0.70893  Biso   1.000  H
  C424     1.0000 0.49937  0.19973  0.67923  Biso   1.000  C
  C425     1.0000 0.53987  0.22493  0.65503  Biso   1.000  C
  H276     1.0000 0.54907  0.25663  0.64613  Biso   1.000  H
  C426     1.0000 0.47267  0.22493  0.69303  Biso   1.000  C
  H277     1.0000 0.46587  0.23923  0.66913  Biso   1.000  H
  H278     1.0000 0.44137  0.20073  0.70473  Biso   1.000  H
  C427     1.0000 0.49967  0.26423  0.72383  Biso   1.000  C
  H279     1.0000 0.52537  0.29263  0.70943  Biso   1.000  H
  H280     1.0000 0.51577  0.25283  0.74283  Biso   1.000  H
  C428     1.0000 0.47087  0.28073  0.74843  Biso   1.000  C
  C429     1.0000 0.44167  0.25233  0.77983  Biso   1.000  C
  H281     1.0000 0.43787  0.22133  0.78453  Biso   1.000  H
  C430     1.0000 0.41797  0.26913  0.80443  Biso   1.000  C
  C431     1.0000 0.42347  0.31443  0.79753  Biso   1.000  C
  H282     1.0000 0.40727  0.32593  0.81443  Biso   1.000  H
  C432     1.0000 0.45257  0.34303  0.76613  Biso   1.000  C
  C433     1.0000 0.47627  0.32603  0.74173  Biso   1.000  C
  H283     1.0000 0.49617  0.34553  0.72023  Biso   1.000  H
  O139     1.0000 0.62967  0.20738  0.60383  Biso   1.000  O
  H284     1.0000 0.65547  0.22543  0.59153  Biso   1.000  H
  C434     1.0000 0.61637  0.23323  0.62363  Biso   1.000  C
  O140     1.0000 0.64867  0.27633  0.63223  Biso   1.000  O
  C435     1.0000 0.57857  0.20793  0.65313  Biso   1.000  C
  C436     1.0000 0.55697  0.15863  0.66033  Biso   1.000  C
  H285     1.0000 0.56807  0.14003  0.64643  Biso   1.000  H
  C437     1.0000 0.51927  0.13663  0.68793  Biso   1.000  C
  C438     1.0000 0.50307  0.16393  0.70823  Biso   1.000  C
  H286     1.0000 0.47737  0.14893  0.72713  Biso   1.000  H
  C439     1.0000 0.52467  0.21323  0.70103  Biso   1.000  C
  C440     1.0000 0.56247  0.23523  0.67353  Biso   1.000  C
  H287     1.0000 0.57727  0.26893  0.66853  Biso   1.000  H
  C441     1.0000 0.50907  0.24313  0.72503  Biso   1.000  C
  H288     1.0000 0.50097  0.23003  0.75293  Biso   1.000  H
  H289     1.0000 0.53657  0.27653  0.72693  Biso   1.000  H
  C442     1.0000 0.46637  0.24483  0.70763  Biso   1.000  C
  H290     1.0000 0.47597  0.26353  0.68213  Biso   1.000  H
  H291     1.0000 0.44057  0.21163  0.70123  Biso   1.000  H
  C443     1.0000 0.44727  0.26743  0.73693  Biso   1.000  C
  C444     1.0000 0.42187  0.24053  0.77043  Biso   1.000  C
  H292     1.0000 0.41437  0.20793  0.77293  Biso   1.000  H
  C445     1.0000 0.40717  0.26113  0.80013  Biso   1.000  C
  C446     1.0000 0.41807  0.30883  0.79643  Biso   1.000  C
  H293     1.0000 0.40817  0.32303  0.81673  Biso   1.000  H
  C447     1.0000 0.44377  0.33593  0.76293  Biso   1.000  C
  C448     1.0000 0.45827  0.31513  0.73323  Biso   1.000  C
  H294     1.0000 0.47577  0.33363  0.71033  Biso   1.000  H
  Co14     1.0000 0.46667  0.47833  0.80033  Biso   1.000  Co
  Fe15     1.0000 0.13613  0.81227  0.13227  Biso   1.000  Fe
  O141     1.0000 0.18338  0.39423  0.01343  Biso   1.000  O
  O142     1.0000 0.13293  0.39928  0.05649  Biso   1.000  O
  O143     1.0000 0.04153  0.52565  0.17082  Biso   1.000  O
  O144     1.0000 0.03312  0.58655  0.19518  Biso   1.000  O
  O145     1.0000 0.13941  0.74102  0.05711  Biso   1.000  O
  O146     1.0000 0.11369  0.74177  0.11984  Biso   1.000  O
  O147     1.0000 0.09664  0.78505  0.18614  Biso   1.000  O
  C449     1.0000 0.16473  0.41667  0.03027  Biso   1.000  C
  C450     1.0000 0.04873  0.56847  0.16957  Biso   1.000  C
  C451     1.0000 0.12293  0.72257  0.09077  Biso   1.000  C
  O148     1.0000 0.28903  0.60827  0.94197  Biso   1.000  O
  C452     1.0000 0.23363  0.53717  0.97707  Biso   1.000  C
  C453     1.0000 0.22023  0.49087  0.99007  Biso   1.000  C
  H295     1.0000 0.23873  0.47637  0.98237  Biso   1.000  H
  C454     1.0000 0.17963  0.46557  0.01437  Biso   1.000  C
  C455     1.0000 0.15253  0.48667  0.02567  Biso   1.000  C
  H296     1.0000 0.12483  0.46937  0.04227  Biso   1.000  H
  C456     1.0000 0.16603  0.53307  0.01257  Biso   1.000  C
  C457     1.0000 0.20653  0.55827  0.98837  Biso   1.000  C
  H297     1.0000 0.21573  0.58997  0.97947  Biso   1.000  H
  C458     1.0000 0.13933  0.55827  0.02637  Biso   1.000  C
  H298     1.0000 0.13253  0.57257  0.00247  Biso   1.000  H
  H299     1.0000 0.10803  0.53407  0.03807  Biso   1.000  H
  C459     1.0000 0.16633  0.59757  0.05717  Biso   1.000  C
  H300     1.0000 0.19203  0.62597  0.04277  Biso   1.000  H
  H301     1.0000 0.18243  0.58617  0.07617  Biso   1.000  H
  C460     1.0000 0.13753  0.61407  0.08177  Biso   1.000  C
  C461     1.0000 0.10833  0.58567  0.11317  Biso   1.000  C
  H302     1.0000 0.10453  0.55467  0.11787  Biso   1.000  H
  C462     1.0000 0.08463  0.60247  0.13777  Biso   1.000  C
  C463     1.0000 0.09013  0.64777  0.13087  Biso   1.000  C
  H303     1.0000 0.07393  0.65927  0.14777  Biso   1.000  H
  C464     1.0000 0.11923  0.67637  0.09947  Biso   1.000  C
  C465     1.0000 0.14293  0.65937  0.07507  Biso   1.000  C
  H304     1.0000 0.16283  0.67887  0.05357  Biso   1.000  H
  O149     1.0000 0.29633  0.54072  0.93717  Biso   1.000  O
  H305     1.0000 0.32213  0.55877  0.92487  Biso   1.000  H
  C466     1.0000 0.28303  0.56657  0.95697  Biso   1.000  C
  O150     1.0000 0.31533  0.60967  0.96557  Biso   1.000  O
  C467     1.0000 0.24523  0.54127  0.98647  Biso   1.000  C
  C468     1.0000 0.22363  0.49197  0.99367  Biso   1.000  C
  H306     1.0000 0.23473  0.47337  0.97977  Biso   1.000  H
  C469     1.0000 0.18593  0.46997  0.02127  Biso   1.000  C
  C470     1.0000 0.16973  0.49727  0.04157  Biso   1.000  C
  H307     1.0000 0.14403  0.48227  0.06047  Biso   1.000  H
  C471     1.0000 0.19133  0.54657  0.03437  Biso   1.000  C
  C472     1.0000 0.22913  0.56857  0.00687  Biso   1.000  C
  H308     1.0000 0.24393  0.60227  0.00187  Biso   1.000  H
  C473     1.0000 0.17573  0.57647  0.05837  Biso   1.000  C
  H309     1.0000 0.16763  0.56337  0.08627  Biso   1.000  H
  H310     1.0000 0.20323  0.60987  0.06027  Biso   1.000  H
  C474     1.0000 0.13303  0.57817  0.04097  Biso   1.000  C
  H311     1.0000 0.14263  0.59687  0.01547  Biso   1.000  H
  H312     1.0000 0.10723  0.54497  0.03457  Biso   1.000  H
  C475     1.0000 0.11393  0.60077  0.07027  Biso   1.000  C
  C476     1.0000 0.08853  0.57387  0.10377  Biso   1.000  C
  H313     1.0000 0.08103  0.54127  0.10627  Biso   1.000  H
  C477     1.0000 0.07383  0.59447  0.13347  Biso   1.000  C
  C478     1.0000 0.08473  0.64217  0.12977  Biso   1.000  C
  H314     1.0000 0.07483  0.65637  0.15007  Biso   1.000  H
  C479     1.0000 0.11043  0.66927  0.09627  Biso   1.000  C
  C480     1.0000 0.12493  0.64847  0.06657  Biso   1.000  C
  H315     1.0000 0.14243  0.66697  0.04367  Biso   1.000  H
  Co15     1.0000 0.13333  0.81167  0.13367  Biso   1.000  Co
  Fe16     1.0000 0.34280  0.19720  0.46560  Biso   1.000  Fe
  O151     1.0000 0.87751  0.14995  0.34676  Biso   1.000  O
  O152     1.0000 0.93301  0.20040  0.38982  Biso   1.000  O
  O153     1.0000 0.15078  0.29180  0.50415  Biso   1.000  O
  O154     1.0000 0.22009  0.30021  0.52851  Biso   1.000  O
  O155     1.0000 0.26827  0.19392  0.39044  Biso   1.000  O
  O156     1.0000 0.29474  0.21964  0.45317  Biso   1.000  O
  O157     1.0000 0.35507  0.23669  0.51947  Biso   1.000  O
  C481     1.0000 0.91860  0.16860  0.36360  Biso   1.000  C
  C482     1.0000 0.18640  0.28460  0.50290  Biso   1.000  C
  C483     1.0000 0.26630  0.21040  0.42410  Biso   1.000  C
  O158     1.0000 0.98590  0.04430  0.27530  Biso   1.000  O
  C484     1.0000 0.97020  0.09970  0.31040  Biso   1.000  C
  C485     1.0000 0.93730  0.11310  0.32340  Biso   1.000  C
  H316     1.0000 0.90430  0.09460  0.31570  Biso   1.000  H
  C486     1.0000 0.95260  0.15370  0.34770  Biso   1.000  C
  C487     1.0000 0.00080  0.18080  0.35900  Biso   1.000  C
  H317     1.0000 0.01120  0.20850  0.37560  Biso   1.000  H
  C488     1.0000 0.03370  0.16730  0.34590  Biso   1.000  C
  C489     1.0000 0.01840  0.12680  0.32170  Biso   1.000  C
  H318     1.0000 0.04090  0.11760  0.31280  Biso   1.000  H
  C490     1.0000 0.08560  0.19400  0.35970  Biso   1.000  C
  H319     1.0000 0.10670  0.20080  0.33580  Biso   1.000  H
  H320     1.0000 0.09270  0.22530  0.37140  Biso   1.000  H
  C491     1.0000 0.09790  0.16700  0.39050  Biso   1.000  C
  H321     1.0000 0.10060  0.14130  0.37610  Biso   1.000  H
  H322     1.0000 0.07040  0.15090  0.40950  Biso   1.000  H
  C492     1.0000 0.14320  0.19580  0.41510  Biso   1.000  C
  C493     1.0000 0.14400  0.22500  0.44650  Biso   1.000  C
  H323     1.0000 0.11680  0.22880  0.45120  Biso   1.000  H
  C494     1.0000 0.18450  0.24870  0.47110  Biso   1.000  C
  C495     1.0000 0.22430  0.24320  0.46420  Biso   1.000  C
  H324     1.0000 0.25200  0.25940  0.48110  Biso   1.000  H
  C496     1.0000 0.22380  0.21410  0.43280  Biso   1.000  C
  C497     1.0000 0.18310  0.19040  0.40840  Biso   1.000  C
  H325     1.0000 0.18270  0.17050  0.38690  Biso   1.000  H
  O159     1.0000 0.91105  0.03700  0.27050  Biso   1.000  O
  H326     1.0000 0.90330  0.01120  0.25820  Biso   1.000  H
  C498     1.0000 0.95020  0.05030  0.29030  Biso   1.000  C
  O160     1.0000 0.96100  0.01800  0.29890  Biso   1.000  O
  C499     1.0000 0.96270  0.08810  0.31980  Biso   1.000  C
  C500     1.0000 0.93500  0.10970  0.32700  Biso   1.000  C
  H327     1.0000 0.90530  0.09860  0.31310  Biso   1.000  H
  C501     1.0000 0.95070  0.14740  0.35460  Biso   1.000  C
  C502     1.0000 0.99420  0.16360  0.37490  Biso   1.000  C
  H328     1.0000 0.00490  0.18930  0.39380  Biso   1.000  H
  C503     1.0000 0.02190  0.14200  0.36770  Biso   1.000  C
  C504     1.0000 0.00610  0.10420  0.34020  Biso   1.000  C
  H329     1.0000 0.02500  0.08940  0.33520  Biso   1.000  H
  C505     1.0000 0.06740  0.15760  0.39170  Biso   1.000  C
  H330     1.0000 0.06240  0.16570  0.41960  Biso   1.000  H
  H331     1.0000 0.07330  0.13010  0.39360  Biso   1.000  H
  C506     1.0000 0.11180  0.20030  0.37430  Biso   1.000  C
  H332     1.0000 0.12090  0.19070  0.34880  Biso   1.000  H
  H333     1.0000 0.10440  0.22610  0.36790  Biso   1.000  H
  C507     1.0000 0.15350  0.21940  0.40360  Biso   1.000  C
  C508     1.0000 0.15200  0.24480  0.43710  Biso   1.000  C
  H334     1.0000 0.12690  0.25230  0.43960  Biso   1.000  H
  C509     1.0000 0.18730  0.25950  0.46680  Biso   1.000  C
  C510     1.0000 0.22410  0.24860  0.46310  Biso   1.000  C
  H335     1.0000 0.24820  0.25850  0.48340  Biso   1.000  H
  C511     1.0000 0.22550  0.22290  0.42960  Biso   1.000  C
  C512     1.0000 0.19020  0.20840  0.39990  Biso   1.000  C
  H336     1.0000 0.19120  0.19090  0.37700  Biso   1.000  H
  Co16     1.0000 0.34500  0.20000  0.46700  Biso   1.000  Co
  Fe17     1.0000 0.00947  0.53053  0.79893  Biso   1.000  Fe
  O161     1.0000 0.54418  0.48328  0.68009  Biso   1.000  O
  O162     1.0000 0.59968  0.53373  0.72315  Biso   1.000  O
  O163     1.0000 0.81745  0.62513  0.83748  Biso   1.000  O
  O164     1.0000 0.88676  0.63354  0.86184  Biso   1.000  O
  O165     1.0000 0.93494  0.52725  0.72377  Biso   1.000  O
  O166     1.0000 0.96141  0.55297  0.78650  Biso   1.000  O
  O167     1.0000 0.02174  0.57002  0.85280  Biso   1.000  O
  C513     1.0000 0.58527  0.50193  0.69693  Biso   1.000  C
  C514     1.0000 0.85307  0.61793  0.83623  Biso   1.000  C
  C515     1.0000 0.93297  0.54373  0.75743  Biso   1.000  C
  O168     1.0000 0.65257  0.37763  0.60863  Biso   1.000  O
  C516     1.0000 0.63687  0.43303  0.64373  Biso   1.000  C
  C517     1.0000 0.60397  0.44643  0.65673  Biso   1.000  C
  H337     1.0000 0.57097  0.42793  0.64903  Biso   1.000  H
  C518     1.0000 0.61927  0.48703  0.68103  Biso   1.000  C
  C519     1.0000 0.66747  0.51413  0.69233  Biso   1.000  C
  H338     1.0000 0.67787  0.54183  0.70893  Biso   1.000  H
  C520     1.0000 0.70037  0.50063  0.67923  Biso   1.000  C
  C521     1.0000 0.68507  0.46013  0.65503  Biso   1.000  C
  H339     1.0000 0.70757  0.45093  0.64613  Biso   1.000  H
  C522     1.0000 0.75227  0.52733  0.69303  Biso   1.000  C
  H340     1.0000 0.77337  0.53413  0.66913  Biso   1.000  H
  H341     1.0000 0.75937  0.55863  0.70473  Biso   1.000  H
  C523     1.0000 0.76457  0.50033  0.72383  Biso   1.000  C
  H342     1.0000 0.76727  0.47463  0.70943  Biso   1.000  H
  H343     1.0000 0.73707  0.48423  0.74283  Biso   1.000  H
  C524     1.0000 0.80987  0.52913  0.74843  Biso   1.000  C
  C525     1.0000 0.81067  0.55833  0.77983  Biso   1.000  C
  H344     1.0000 0.78347  0.56213  0.78453  Biso   1.000  H
  C526     1.0000 0.85117  0.58203  0.80443  Biso   1.000  C
  C527     1.0000 0.89097  0.57653  0.79753  Biso   1.000  C
  H345     1.0000 0.91867  0.59273  0.81443  Biso   1.000  H
  C528     1.0000 0.89047  0.54743  0.76613  Biso   1.000  C
  C529     1.0000 0.84977  0.52373  0.74173  Biso   1.000  C
  H346     1.0000 0.84937  0.50383  0.72023  Biso   1.000  H
  O169     1.0000 0.57772  0.37033  0.60383  Biso   1.000  O
  H347     1.0000 0.56997  0.34453  0.59153  Biso   1.000  H
  C530     1.0000 0.61687  0.38363  0.62363  Biso   1.000  C
  O170     1.0000 0.62767  0.35133  0.63223  Biso   1.000  O
  C531     1.0000 0.62937  0.42143  0.65313  Biso   1.000  C
  C532     1.0000 0.60167  0.44303  0.66033  Biso   1.000  C
  H348     1.0000 0.57197  0.43193  0.64643  Biso   1.000  H
  C533     1.0000 0.61737  0.48073  0.68793  Biso   1.000  C
  C534     1.0000 0.66087  0.49693  0.70823  Biso   1.000  C
  H349     1.0000 0.67157  0.52263  0.72713  Biso   1.000  H
  C535     1.0000 0.68857  0.47533  0.70103  Biso   1.000  C
  C536     1.0000 0.67277  0.43753  0.67353  Biso   1.000  C
  H350     1.0000 0.69167  0.42273  0.66853  Biso   1.000  H
  C537     1.0000 0.73407  0.49093  0.72503  Biso   1.000  C
  H351     1.0000 0.72907  0.49903  0.75293  Biso   1.000  H
  H352     1.0000 0.73997  0.46343  0.72693  Biso   1.000  H
  C538     1.0000 0.77847  0.53363  0.70763  Biso   1.000  C
  H353     1.0000 0.78757  0.52403  0.68213  Biso   1.000  H
  H354     1.0000 0.77107  0.55943  0.70123  Biso   1.000  H
  C539     1.0000 0.82017  0.55273  0.73693  Biso   1.000  C
  C540     1.0000 0.81867  0.57813  0.77043  Biso   1.000  C
  H355     1.0000 0.79357  0.58563  0.77293  Biso   1.000  H
  C541     1.0000 0.85397  0.59283  0.80013  Biso   1.000  C
  C542     1.0000 0.89077  0.58193  0.79643  Biso   1.000  C
  H356     1.0000 0.91487  0.59183  0.81673  Biso   1.000  H
  C543     1.0000 0.89217  0.55623  0.76293  Biso   1.000  C
  C544     1.0000 0.85687  0.54173  0.73323  Biso   1.000  C
  H357     1.0000 0.85787  0.52423  0.71033  Biso   1.000  H
  Co17     1.0000 0.01167  0.53333  0.80033  Biso   1.000  Co
  Fe18     1.0000 0.67613  0.86387  0.13227  Biso   1.000  Fe
  O171     1.0000 0.21084  0.81662  0.01343  Biso   1.000  O
  O172     1.0000 0.26634  0.86707  0.05649  Biso   1.000  O
  O173     1.0000 0.48411  0.95847  0.17082  Biso   1.000  O
  O174     1.0000 0.55342  0.96688  0.19518  Biso   1.000  O
  O175     1.0000 0.60160  0.86059  0.05711  Biso   1.000  O
  O176     1.0000 0.62807  0.88631  0.11984  Biso   1.000  O
  O177     1.0000 0.68840  0.90336  0.18614  Biso   1.000  O
  C545     1.0000 0.25193  0.83527  0.03027  Biso   1.000  C
  C546     1.0000 0.51973  0.95127  0.16957  Biso   1.000  C
  C547     1.0000 0.59963  0.87707  0.09077  Biso   1.000  C
  O178     1.0000 0.31923  0.71097  0.94197  Biso   1.000  O
  C548     1.0000 0.30353  0.76637  0.97707  Biso   1.000  C
  C549     1.0000 0.27063  0.77977  0.99007  Biso   1.000  C
  H358     1.0000 0.23763  0.76127  0.98237  Biso   1.000  H
  C550     1.0000 0.28593  0.82037  0.01437  Biso   1.000  C
  C551     1.0000 0.33413  0.84747  0.02567  Biso   1.000  C
  H359     1.0000 0.34453  0.87517  0.04227  Biso   1.000  H
  C552     1.0000 0.36703  0.83397  0.01257  Biso   1.000  C
  C553     1.0000 0.35173  0.79347  0.98837  Biso   1.000  C
  H360     1.0000 0.37423  0.78427  0.97947  Biso   1.000  H
  C554     1.0000 0.41893  0.86067  0.02637  Biso   1.000  C
  H361     1.0000 0.44003  0.86747  0.00247  Biso   1.000  H
  H362     1.0000 0.42603  0.89197  0.03807  Biso   1.000  H
  C555     1.0000 0.43123  0.83367  0.05717  Biso   1.000  C
  H363     1.0000 0.43393  0.80797  0.04277  Biso   1.000  H
  H364     1.0000 0.40373  0.81757  0.07617  Biso   1.000  H
  C556     1.0000 0.47653  0.86247  0.08177  Biso   1.000  C
  C557     1.0000 0.47733  0.89167  0.11317  Biso   1.000  C
  H365     1.0000 0.45013  0.89547  0.11787  Biso   1.000  H
  C558     1.0000 0.51783  0.91537  0.13777  Biso   1.000  C
  C559     1.0000 0.55763  0.90987  0.13087  Biso   1.000  C
  H366     1.0000 0.58533  0.92607  0.14777  Biso   1.000  H
  C560     1.0000 0.55713  0.88077  0.09947  Biso   1.000  C
  C561     1.0000 0.51643  0.85707  0.07507  Biso   1.000  C
  H367     1.0000 0.51603  0.83717  0.05357  Biso   1.000  H
  O179     1.0000 0.24438  0.70367  0.93717  Biso   1.000  O
  H368     1.0000 0.23663  0.67787  0.92487  Biso   1.000  H
  C562     1.0000 0.28353  0.71697  0.95697  Biso   1.000  C
  O180     1.0000 0.29433  0.68467  0.96557  Biso   1.000  O
  C563     1.0000 0.29603  0.75477  0.98647  Biso   1.000  C
  C564     1.0000 0.26833  0.77637  0.99367  Biso   1.000  C
  H369     1.0000 0.23863  0.76527  0.97977  Biso   1.000  H
  C565     1.0000 0.28403  0.81407  0.02127  Biso   1.000  C
  C566     1.0000 0.32753  0.83027  0.04157  Biso   1.000  C
  H370     1.0000 0.33823  0.85597  0.06047  Biso   1.000  H
  C567     1.0000 0.35523  0.80867  0.03437  Biso   1.000  C
  C568     1.0000 0.33943  0.77087  0.00687  Biso   1.000  C
  H371     1.0000 0.35833  0.75607  0.00187  Biso   1.000  H
  C569     1.0000 0.40073  0.82427  0.05837  Biso   1.000  C
  H372     1.0000 0.39573  0.83237  0.08627  Biso   1.000  H
  H373     1.0000 0.40663  0.79677  0.06027  Biso   1.000  H
  C570     1.0000 0.44513  0.86697  0.04097  Biso   1.000  C
  H374     1.0000 0.45423  0.85737  0.01547  Biso   1.000  H
  H375     1.0000 0.43773  0.89277  0.03457  Biso   1.000  H
  C571     1.0000 0.48683  0.88607  0.07027  Biso   1.000  C
  C572     1.0000 0.48533  0.91147  0.10377  Biso   1.000  C
  H376     1.0000 0.46023  0.91897  0.10627  Biso   1.000  H
  C573     1.0000 0.52063  0.92617  0.13347  Biso   1.000  C
  C574     1.0000 0.55743  0.91527  0.12977  Biso   1.000  C
  H377     1.0000 0.58153  0.92517  0.15007  Biso   1.000  H
  C575     1.0000 0.55883  0.88957  0.09627  Biso   1.000  C
  C576     1.0000 0.52353  0.87507  0.06657  Biso   1.000  C
  H378     1.0000 0.52453  0.85757  0.04367  Biso   1.000  H
  Co18     1.0000 0.67833  0.86667  0.13367  Biso   1.000  Co
  Fe19     1.0000 0.34280  0.14560  0.96560  Biso   1.000  Fe
  O181     1.0000 0.87751  0.72756  0.84676  Biso   1.000  O
  O182     1.0000 0.93301  0.73261  0.88982  Biso   1.000  O
  O183     1.0000 0.15078  0.85898  0.00415  Biso   1.000  O
  O184     1.0000 0.22009  0.91988  0.02851  Biso   1.000  O
  O185     1.0000 0.26827  0.07435  0.89044  Biso   1.000  O
  O186     1.0000 0.29474  0.07510  0.95317  Biso   1.000  O
  O187     1.0000 0.35507  0.11838  0.01947  Biso   1.000  O
  C577     1.0000 0.91860  0.75000  0.86360  Biso   1.000  C
  C578     1.0000 0.18640  0.90180  0.00290  Biso   1.000  C
  C579     1.0000 0.26630  0.05590  0.92410  Biso   1.000  C
  O188     1.0000 0.98590  0.94160  0.77530  Biso   1.000  O
  C580     1.0000 0.97020  0.87050  0.81040  Biso   1.000  C
  C581     1.0000 0.93730  0.82420  0.82340  Biso   1.000  C
  H379     1.0000 0.90430  0.80970  0.81570  Biso   1.000  H
  C582     1.0000 0.95260  0.79890  0.84770  Biso   1.000  C
  C583     1.0000 0.00080  0.82000  0.85900  Biso   1.000  C
  H380     1.0000 0.01120  0.80270  0.87560  Biso   1.000  H
  C584     1.0000 0.03370  0.86640  0.84590  Biso   1.000  C
  C585     1.0000 0.01840  0.89160  0.82170  Biso   1.000  C
  H381     1.0000 0.04090  0.92330  0.81280  Biso   1.000  H
  C586     1.0000 0.08560  0.89160  0.85970  Biso   1.000  C
  H382     1.0000 0.10670  0.90590  0.83580  Biso   1.000  H
  H383     1.0000 0.09270  0.86740  0.87140  Biso   1.000  H
  C587     1.0000 0.09790  0.93090  0.89050  Biso   1.000  C
  H384     1.0000 0.10060  0.95930  0.87610  Biso   1.000  H
  H385     1.0000 0.07040  0.91950  0.90950  Biso   1.000  H
  C588     1.0000 0.14320  0.94740  0.91510  Biso   1.000  C
  C589     1.0000 0.14400  0.91900  0.94650  Biso   1.000  C
  H386     1.0000 0.11680  0.88800  0.95120  Biso   1.000  H
  C590     1.0000 0.18450  0.93580  0.97110  Biso   1.000  C
  C591     1.0000 0.22430  0.98110  0.96420  Biso   1.000  C
  H387     1.0000 0.25200  0.99260  0.98110  Biso   1.000  H
  C592     1.0000 0.22380  0.00970  0.93280  Biso   1.000  C
  C593     1.0000 0.18310  0.99270  0.90840  Biso   1.000  C
  H388     1.0000 0.18270  0.01220  0.88690  Biso   1.000  H
  O189     1.0000 0.91105  0.87405  0.77050  Biso   1.000  O
  H389     1.0000 0.90330  0.89210  0.75820  Biso   1.000  H
  C594     1.0000 0.95020  0.89990  0.79030  Biso   1.000  C
  O190     1.0000 0.96100  0.94300  0.79890  Biso   1.000  O
  C595     1.0000 0.96270  0.87460  0.81980  Biso   1.000  C
  C596     1.0000 0.93500  0.82530  0.82700  Biso   1.000  C
  H390     1.0000 0.90530  0.80670  0.81310  Biso   1.000  H
  C597     1.0000 0.95070  0.80330  0.85460  Biso   1.000  C
  C598     1.0000 0.99420  0.83060  0.87490  Biso   1.000  C
  H391     1.0000 0.00490  0.81560  0.89380  Biso   1.000  H
  C599     1.0000 0.02190  0.87990  0.86770  Biso   1.000  C
  C600     1.0000 0.00610  0.90190  0.84020  Biso   1.000  C
  H392     1.0000 0.02500  0.93560  0.83520  Biso   1.000  H
  C601     1.0000 0.06740  0.90980  0.89170  Biso   1.000  C
  H393     1.0000 0.06240  0.89670  0.91960  Biso   1.000  H
  H394     1.0000 0.07330  0.94320  0.89360  Biso   1.000  H
  C602     1.0000 0.11180  0.91150  0.87430  Biso   1.000  C
  H395     1.0000 0.12090  0.93020  0.84880  Biso   1.000  H
  H396     1.0000 0.10440  0.87830  0.86790  Biso   1.000  H
  C603     1.0000 0.15350  0.93410  0.90360  Biso   1.000  C
  C604     1.0000 0.15200  0.90720  0.93710  Biso   1.000  C
  H397     1.0000 0.12690  0.87460  0.93960  Biso   1.000  H
  C605     1.0000 0.18730  0.92780  0.96680  Biso   1.000  C
  C606     1.0000 0.22410  0.97550  0.96310  Biso   1.000  C
  H398     1.0000 0.24820  0.98970  0.98340  Biso   1.000  H
  C607     1.0000 0.22550  0.00260  0.92960  Biso   1.000  C
  C608     1.0000 0.19020  0.98180  0.89990  Biso   1.000  C
  H399     1.0000 0.19120  0.00030  0.87700  Biso   1.000  H
  Co19     1.0000 0.34500  0.14500  0.96700  Biso   1.000  Co
  Fe20     1.0000 0.00947  0.47893  0.29893  Biso   1.000  Fe
  O191     1.0000 0.54418  0.06089  0.18009  Biso   1.000  O
  O192     1.0000 0.59968  0.06594  0.22315  Biso   1.000  O
  O193     1.0000 0.81745  0.19231  0.33748  Biso   1.000  O
  O194     1.0000 0.88676  0.25321  0.36184  Biso   1.000  O
  O195     1.0000 0.93494  0.40768  0.22377  Biso   1.000  O
  O196     1.0000 0.96141  0.40843  0.28650  Biso   1.000  O
  O197     1.0000 0.02174  0.45171  0.35280  Biso   1.000  O
  C609     1.0000 0.58527  0.08333  0.19693  Biso   1.000  C
  C610     1.0000 0.85307  0.23513  0.33623  Biso   1.000  C
  C611     1.0000 0.93297  0.38923  0.25743  Biso   1.000  C
  O198     1.0000 0.65257  0.27493  0.10863  Biso   1.000  O
  C612     1.0000 0.63687  0.20383  0.14373  Biso   1.000  C
  C613     1.0000 0.60397  0.15753  0.15673  Biso   1.000  C
  H400     1.0000 0.57097  0.14303  0.14903  Biso   1.000  H
  C614     1.0000 0.61927  0.13223  0.18103  Biso   1.000  C
  C615     1.0000 0.66747  0.15333  0.19233  Biso   1.000  C
  H401     1.0000 0.67787  0.13603  0.20893  Biso   1.000  H
  C616     1.0000 0.70037  0.19973  0.17923  Biso   1.000  C
  C617     1.0000 0.68507  0.22493  0.15503  Biso   1.000  C
  H402     1.0000 0.70757  0.25663  0.14613  Biso   1.000  H
  C618     1.0000 0.75227  0.22493  0.19303  Biso   1.000  C
  H403     1.0000 0.77337  0.23923  0.16913  Biso   1.000  H
  H404     1.0000 0.75937  0.20073  0.20473  Biso   1.000  H
  C619     1.0000 0.76457  0.26423  0.22383  Biso   1.000  C
  H405     1.0000 0.76727  0.29263  0.20943  Biso   1.000  H
  H406     1.0000 0.73707  0.25283  0.24283  Biso   1.000  H
  C620     1.0000 0.80987  0.28073  0.24843  Biso   1.000  C
  C621     1.0000 0.81067  0.25233  0.27983  Biso   1.000  C
  H407     1.0000 0.78347  0.22133  0.28453  Biso   1.000  H
  C622     1.0000 0.85117  0.26913  0.30443  Biso   1.000  C
  C623     1.0000 0.89097  0.31443  0.29753  Biso   1.000  C
  H408     1.0000 0.91867  0.32593  0.31443  Biso   1.000  H
  C624     1.0000 0.89047  0.34303  0.26613  Biso   1.000  C
  C625     1.0000 0.84977  0.32603  0.24173  Biso   1.000  C
  H409     1.0000 0.84937  0.34553  0.22023  Biso   1.000  H
  O199     1.0000 0.57772  0.20738  0.10383  Biso   1.000  O
  H410     1.0000 0.56997  0.22543  0.09153  Biso   1.000  H
  C626     1.0000 0.61687  0.23323  0.12363  Biso   1.000  C
  O200     1.0000 0.62767  0.27633  0.13223  Biso   1.000  O
  C627     1.0000 0.62937  0.20793  0.15313  Biso   1.000  C
  C628     1.0000 0.60167  0.15863  0.16033  Biso   1.000  C
  H411     1.0000 0.57197  0.14003  0.14643  Biso   1.000  H
  C629     1.0000 0.61737  0.13663  0.18793  Biso   1.000  C
  C630     1.0000 0.66087  0.16393  0.20823  Biso   1.000  C
  H412     1.0000 0.67157  0.14893  0.22713  Biso   1.000  H
  C631     1.0000 0.68857  0.21323  0.20103  Biso   1.000  C
  C632     1.0000 0.67277  0.23523  0.17353  Biso   1.000  C
  H413     1.0000 0.69167  0.26893  0.16853  Biso   1.000  H
  C633     1.0000 0.73407  0.24313  0.22503  Biso   1.000  C
  H414     1.0000 0.72907  0.23003  0.25293  Biso   1.000  H
  H415     1.0000 0.73997  0.27653  0.22693  Biso   1.000  H
  C634     1.0000 0.77847  0.24483  0.20763  Biso   1.000  C
  H416     1.0000 0.78757  0.26353  0.18213  Biso   1.000  H
  H417     1.0000 0.77107  0.21163  0.20123  Biso   1.000  H
  C635     1.0000 0.82017  0.26743  0.23693  Biso   1.000  C
  C636     1.0000 0.81867  0.24053  0.27043  Biso   1.000  C
  H418     1.0000 0.79357  0.20793  0.27293  Biso   1.000  H
  C637     1.0000 0.85397  0.26113  0.30013  Biso   1.000  C
  C638     1.0000 0.89077  0.30883  0.29643  Biso   1.000  C
  H419     1.0000 0.91487  0.32303  0.31673  Biso   1.000  H
  C639     1.0000 0.89217  0.33593  0.26293  Biso   1.000  C
  C640     1.0000 0.85687  0.31513  0.23323  Biso   1.000  C
  H420     1.0000 0.85787  0.33363  0.21033  Biso   1.000  H
  Co20     1.0000 0.01167  0.47833  0.30033  Biso   1.000  Co
  Fe21     1.0000 0.67613  0.81227  0.63227  Biso   1.000  Fe
  O201     1.0000 0.21084  0.39423  0.51343  Biso   1.000  O
  O202     1.0000 0.26634  0.39928  0.55649  Biso   1.000  O
  O203     1.0000 0.48411  0.52565  0.67082  Biso   1.000  O
  O204     1.0000 0.55342  0.58655  0.69518  Biso   1.000  O
  O205     1.0000 0.60160  0.74102  0.55711  Biso   1.000  O
  O206     1.0000 0.62807  0.74177  0.61984  Biso   1.000  O
  O207     1.0000 0.68840  0.78505  0.68614  Biso   1.000  O
  C641     1.0000 0.25193  0.41667  0.53027  Biso   1.000  C
  C642     1.0000 0.51973  0.56847  0.66957  Biso   1.000  C
  C643     1.0000 0.59963  0.72257  0.59077  Biso   1.000  C
  O208     1.0000 0.31923  0.60827  0.44197  Biso   1.000  O
  C644     1.0000 0.30353  0.53717  0.47707  Biso   1.000  C
  C645     1.0000 0.27063  0.49087  0.49007  Biso   1.000  C
  H421     1.0000 0.23763  0.47637  0.48237  Biso   1.000  H
  C646     1.0000 0.28593  0.46557  0.51437  Biso   1.000  C
  C647     1.0000 0.33413  0.48667  0.52567  Biso   1.000  C
  H422     1.0000 0.34453  0.46937  0.54227  Biso   1.000  H
  C648     1.0000 0.36703  0.53307  0.51257  Biso   1.000  C
  C649     1.0000 0.35173  0.55827  0.48837  Biso   1.000  C
  H423     1.0000 0.37423  0.58997  0.47947  Biso   1.000  H
  C650     1.0000 0.41893  0.55827  0.52637  Biso   1.000  C
  H424     1.0000 0.44003  0.57257  0.50247  Biso   1.000  H
  H425     1.0000 0.42603  0.53407  0.53807  Biso   1.000  H
  C651     1.0000 0.43123  0.59757  0.55717  Biso   1.000  C
  H426     1.0000 0.43393  0.62597  0.54277  Biso   1.000  H
  H427     1.0000 0.40373  0.58617  0.57617  Biso   1.000  H
  C652     1.0000 0.47653  0.61407  0.58177  Biso   1.000  C
  C653     1.0000 0.47733  0.58567  0.61317  Biso   1.000  C
  H428     1.0000 0.45013  0.55467  0.61787  Biso   1.000  H
  C654     1.0000 0.51783  0.60247  0.63777  Biso   1.000  C
  C655     1.0000 0.55763  0.64777  0.63087  Biso   1.000  C
  H429     1.0000 0.58533  0.65927  0.64777  Biso   1.000  H
  C656     1.0000 0.55713  0.67637  0.59947  Biso   1.000  C
  C657     1.0000 0.51643  0.65937  0.57507  Biso   1.000  C
  H430     1.0000 0.51603  0.67887  0.55357  Biso   1.000  H
  O209     1.0000 0.24438  0.54072  0.43717  Biso   1.000  O
  H431     1.0000 0.23663  0.55877  0.42487  Biso   1.000  H
  C658     1.0000 0.28353  0.56657  0.45697  Biso   1.000  C
  O210     1.0000 0.29433  0.60967  0.46557  Biso   1.000  O
  C659     1.0000 0.29603  0.54127  0.48647  Biso   1.000  C
  C660     1.0000 0.26833  0.49197  0.49367  Biso   1.000  C
  H432     1.0000 0.23863  0.47337  0.47977  Biso   1.000  H
  C661     1.0000 0.28403  0.46997  0.52127  Biso   1.000  C
  C662     1.0000 0.32753  0.49727  0.54157  Biso   1.000  C
  H433     1.0000 0.33823  0.48227  0.56047  Biso   1.000  H
  C663     1.0000 0.35523  0.54657  0.53437  Biso   1.000  C
  C664     1.0000 0.33943  0.56857  0.50687  Biso   1.000  C
  H434     1.0000 0.35833  0.60227  0.50187  Biso   1.000  H
  C665     1.0000 0.40073  0.57647  0.55837  Biso   1.000  C
  H435     1.0000 0.39573  0.56337  0.58627  Biso   1.000  H
  H436     1.0000 0.40663  0.60987  0.56027  Biso   1.000  H
  C666     1.0000 0.44513  0.57817  0.54097  Biso   1.000  C
  H437     1.0000 0.45423  0.59687  0.51547  Biso   1.000  H
  H438     1.0000 0.43773  0.54497  0.53457  Biso   1.000  H
  C667     1.0000 0.48683  0.60077  0.57027  Biso   1.000  C
  C668     1.0000 0.48533  0.57387  0.60377  Biso   1.000  C
  H439     1.0000 0.46023  0.54127  0.60627  Biso   1.000  H
  C669     1.0000 0.52063  0.59447  0.63347  Biso   1.000  C
  C670     1.0000 0.55743  0.64217  0.62977  Biso   1.000  C
  H440     1.0000 0.58153  0.65637  0.65007  Biso   1.000  H
  C671     1.0000 0.55883  0.66927  0.59627  Biso   1.000  C
  C672     1.0000 0.52353  0.64847  0.56657  Biso   1.000  C
  H441     1.0000 0.52453  0.66697  0.54367  Biso   1.000  H
  Co21     1.0000 0.67833  0.81167  0.63367  Biso   1.000  Co
  Fe22     1.0000 0.85440  0.19720  0.96560  Biso   1.000  Fe
  O211     1.0000 0.27244  0.14995  0.84676  Biso   1.000  O
  O212     1.0000 0.26739  0.20040  0.88982  Biso   1.000  O
  O213     1.0000 0.14102  0.29180  0.00415  Biso   1.000  O
  O214     1.0000 0.08012  0.30021  0.02851  Biso   1.000  O
  O215     1.0000 0.92565  0.19392  0.89044  Biso   1.000  O
  O216     1.0000 0.92490  0.21964  0.95317  Biso   1.000  O
  O217     1.0000 0.88162  0.23669  0.01947  Biso   1.000  O
  C673     1.0000 0.25000  0.16860  0.86360  Biso   1.000  C
  C674     1.0000 0.09820  0.28460  0.00290  Biso   1.000  C
  C675     1.0000 0.94410  0.21040  0.92410  Biso   1.000  C
  O218     1.0000 0.05840  0.04430  0.77530  Biso   1.000  O
  C676     1.0000 0.12950  0.09970  0.81040  Biso   1.000  C
  C677     1.0000 0.17580  0.11310  0.82340  Biso   1.000  C
  H442     1.0000 0.19030  0.09460  0.81570  Biso   1.000  H
  C678     1.0000 0.20110  0.15370  0.84770  Biso   1.000  C
  C679     1.0000 0.18000  0.18080  0.85900  Biso   1.000  C
  H443     1.0000 0.19730  0.20850  0.87560  Biso   1.000  H
  C680     1.0000 0.13360  0.16730  0.84590  Biso   1.000  C
  C681     1.0000 0.10840  0.12680  0.82170  Biso   1.000  C
  H444     1.0000 0.07670  0.11760  0.81280  Biso   1.000  H
  C682     1.0000 0.10840  0.19400  0.85970  Biso   1.000  C
  H445     1.0000 0.09410  0.20080  0.83580  Biso   1.000  H
  H446     1.0000 0.13260  0.22530  0.87140  Biso   1.000  H
  C683     1.0000 0.06910  0.16700  0.89050  Biso   1.000  C
  H447     1.0000 0.04070  0.14130  0.87610  Biso   1.000  H
  H448     1.0000 0.08050  0.15090  0.90950  Biso   1.000  H
  C684     1.0000 0.05260  0.19580  0.91510  Biso   1.000  C
  C685     1.0000 0.08100  0.22500  0.94650  Biso   1.000  C
  H449     1.0000 0.11200  0.22880  0.95120  Biso   1.000  H
  C686     1.0000 0.06420  0.24870  0.97110  Biso   1.000  C
  C687     1.0000 0.01890  0.24320  0.96420  Biso   1.000  C
  H450     1.0000 0.00740  0.25940  0.98110  Biso   1.000  H
  C688     1.0000 0.99030  0.21410  0.93280  Biso   1.000  C
  C689     1.0000 0.00730  0.19040  0.90840  Biso   1.000  C
  H451     1.0000 0.98780  0.17050  0.88690  Biso   1.000  H
  O219     1.0000 0.12595  0.03700  0.77050  Biso   1.000  O
  H452     1.0000 0.10790  0.01120  0.75820  Biso   1.000  H
  C690     1.0000 0.10010  0.05030  0.79030  Biso   1.000  C
  O220     1.0000 0.05700  0.01800  0.79890  Biso   1.000  O
  C691     1.0000 0.12540  0.08810  0.81980  Biso   1.000  C
  C692     1.0000 0.17470  0.10970  0.82700  Biso   1.000  C
  H453     1.0000 0.19330  0.09860  0.81310  Biso   1.000  H
  C693     1.0000 0.19670  0.14740  0.85460  Biso   1.000  C
  C694     1.0000 0.16940  0.16360  0.87490  Biso   1.000  C
  H454     1.0000 0.18440  0.18930  0.89380  Biso   1.000  H
  C695     1.0000 0.12010  0.14200  0.86770  Biso   1.000  C
  C696     1.0000 0.09810  0.10420  0.84020  Biso   1.000  C
  H455     1.0000 0.06440  0.08940  0.83520  Biso   1.000  H
  C697     1.0000 0.09020  0.15760  0.89170  Biso   1.000  C
  H456     1.0000 0.10330  0.16570  0.91960  Biso   1.000  H
  H457     1.0000 0.05680  0.13010  0.89360  Biso   1.000  H
  C698     1.0000 0.08850  0.20030  0.87430  Biso   1.000  C
  H458     1.0000 0.06980  0.19070  0.84880  Biso   1.000  H
  H459     1.0000 0.12170  0.22610  0.86790  Biso   1.000  H
  C699     1.0000 0.06590  0.21940  0.90360  Biso   1.000  C
  C700     1.0000 0.09280  0.24480  0.93710  Biso   1.000  C
  H460     1.0000 0.12540  0.25230  0.93960  Biso   1.000  H
  C701     1.0000 0.07220  0.25950  0.96680  Biso   1.000  C
  C702     1.0000 0.02450  0.24860  0.96310  Biso   1.000  C
  H461     1.0000 0.01030  0.25850  0.98340  Biso   1.000  H
  C703     1.0000 0.99740  0.22290  0.92960  Biso   1.000  C
  C704     1.0000 0.01820  0.20840  0.89990  Biso   1.000  C
  H462     1.0000 0.99970  0.19090  0.87700  Biso   1.000  H
  Co22     1.0000 0.85500  0.20000  0.96700  Biso   1.000  Co
  Fe23     1.0000 0.52107  0.53053  0.29893  Biso   1.000  Fe
  O221     1.0000 0.93911  0.48328  0.18009  Biso   1.000  O
  O222     1.0000 0.93406  0.53373  0.22315  Biso   1.000  O
  O223     1.0000 0.80769  0.62513  0.33748  Biso   1.000  O
  O224     1.0000 0.74679  0.63354  0.36184  Biso   1.000  O
  O225     1.0000 0.59232  0.52725  0.22377  Biso   1.000  O
  O226     1.0000 0.59157  0.55297  0.28650  Biso   1.000  O
  O227     1.0000 0.54829  0.57002  0.35280  Biso   1.000  O
  C705     1.0000 0.91667  0.50193  0.19693  Biso   1.000  C
  C706     1.0000 0.76487  0.61793  0.33623  Biso   1.000  C
  C707     1.0000 0.61077  0.54373  0.25743  Biso   1.000  C
  O228     1.0000 0.72507  0.37763  0.10863  Biso   1.000  O
  C708     1.0000 0.79617  0.43303  0.14373  Biso   1.000  C
  C709     1.0000 0.84247  0.44643  0.15673  Biso   1.000  C
  H463     1.0000 0.85697  0.42793  0.14903  Biso   1.000  H
  C710     1.0000 0.86777  0.48703  0.18103  Biso   1.000  C
  C711     1.0000 0.84667  0.51413  0.19233  Biso   1.000  C
  H464     1.0000 0.86397  0.54183  0.20893  Biso   1.000  H
  C712     1.0000 0.80027  0.50063  0.17923  Biso   1.000  C
  C713     1.0000 0.77507  0.46013  0.15503  Biso   1.000  C
  H465     1.0000 0.74337  0.45093  0.14613  Biso   1.000  H
  C714     1.0000 0.77507  0.52733  0.19303  Biso   1.000  C
  H466     1.0000 0.76077  0.53413  0.16913  Biso   1.000  H
  H467     1.0000 0.79927  0.55863  0.20473  Biso   1.000  H
  C715     1.0000 0.73577  0.50033  0.22383  Biso   1.000  C
  H468     1.0000 0.70737  0.47463  0.20943  Biso   1.000  H
  H469     1.0000 0.74717  0.48423  0.24283  Biso   1.000  H
  C716     1.0000 0.71927  0.52913  0.24843  Biso   1.000  C
  C717     1.0000 0.74767  0.55833  0.27983  Biso   1.000  C
  H470     1.0000 0.77867  0.56213  0.28453  Biso   1.000  H
  C718     1.0000 0.73087  0.58203  0.30443  Biso   1.000  C
  C719     1.0000 0.68557  0.57653  0.29753  Biso   1.000  C
  H471     1.0000 0.67407  0.59273  0.31443  Biso   1.000  H
  C720     1.0000 0.65697  0.54743  0.26613  Biso   1.000  C
  C721     1.0000 0.67397  0.52373  0.24173  Biso   1.000  C
  H472     1.0000 0.65447  0.50383  0.22023  Biso   1.000  H
  O229     1.0000 0.79262  0.37033  0.10383  Biso   1.000  O
  H473     1.0000 0.77457  0.34453  0.09153  Biso   1.000  H
  C722     1.0000 0.76677  0.38363  0.12363  Biso   1.000  C
  O230     1.0000 0.72367  0.35133  0.13223  Biso   1.000  O
  C723     1.0000 0.79207  0.42143  0.15313  Biso   1.000  C
  C724     1.0000 0.84137  0.44303  0.16033  Biso   1.000  C
  H474     1.0000 0.85997  0.43193  0.14643  Biso   1.000  H
  C725     1.0000 0.86337  0.48073  0.18793  Biso   1.000  C
  C726     1.0000 0.83607  0.49693  0.20823  Biso   1.000  C
  H475     1.0000 0.85107  0.52263  0.22713  Biso   1.000  H
  C727     1.0000 0.78677  0.47533  0.20103  Biso   1.000  C
  C728     1.0000 0.76477  0.43753  0.17353  Biso   1.000  C
  H476     1.0000 0.73107  0.42273  0.16853  Biso   1.000  H
  C729     1.0000 0.75687  0.49093  0.22503  Biso   1.000  C
  H477     1.0000 0.76997  0.49903  0.25293  Biso   1.000  H
  H478     1.0000 0.72347  0.46343  0.22693  Biso   1.000  H
  C730     1.0000 0.75517  0.53363  0.20763  Biso   1.000  C
  H479     1.0000 0.73647  0.52403  0.18213  Biso   1.000  H
  H480     1.0000 0.78837  0.55943  0.20123  Biso   1.000  H
  C731     1.0000 0.73257  0.55273  0.23693  Biso   1.000  C
  C732     1.0000 0.75947  0.57813  0.27043  Biso   1.000  C
  H481     1.0000 0.79207  0.58563  0.27293  Biso   1.000  H
  C733     1.0000 0.73887  0.59283  0.30013  Biso   1.000  C
  C734     1.0000 0.69117  0.58193  0.29643  Biso   1.000  C
  H482     1.0000 0.67697  0.59183  0.31673  Biso   1.000  H
  C735     1.0000 0.66407  0.55623  0.26293  Biso   1.000  C
  C736     1.0000 0.68487  0.54173  0.23323  Biso   1.000  C
  H483     1.0000 0.66637  0.52423  0.21033  Biso   1.000  H
  Co23     1.0000 0.52167  0.53333  0.30033  Biso   1.000  Co
  Fe24     1.0000 0.18773  0.86387  0.63227  Biso   1.000  Fe
  O231     1.0000 0.60577  0.81662  0.51343  Biso   1.000  O
  O232     1.0000 0.60072  0.86707  0.55649  Biso   1.000  O
  O233     1.0000 0.47435  0.95847  0.67082  Biso   1.000  O
  O234     1.0000 0.41345  0.96688  0.69518  Biso   1.000  O
  O235     1.0000 0.25898  0.86059  0.55711  Biso   1.000  O
  O236     1.0000 0.25823  0.88631  0.61984  Biso   1.000  O
  O237     1.0000 0.21495  0.90336  0.68614  Biso   1.000  O
  C737     1.0000 0.58333  0.83527  0.53027  Biso   1.000  C
  C738     1.0000 0.43153  0.95127  0.66957  Biso   1.000  C
  C739     1.0000 0.27743  0.87707  0.59077  Biso   1.000  C
  O238     1.0000 0.39173  0.71097  0.44197  Biso   1.000  O
  C740     1.0000 0.46283  0.76637  0.47707  Biso   1.000  C
  C741     1.0000 0.50913  0.77977  0.49007  Biso   1.000  C
  H484     1.0000 0.52363  0.76127  0.48237  Biso   1.000  H
  C742     1.0000 0.53443  0.82037  0.51437  Biso   1.000  C
  C743     1.0000 0.51333  0.84747  0.52567  Biso   1.000  C
  H485     1.0000 0.53063  0.87517  0.54227  Biso   1.000  H
  C744     1.0000 0.46693  0.83397  0.51257  Biso   1.000  C
  C745     1.0000 0.44173  0.79347  0.48837  Biso   1.000  C
  H486     1.0000 0.41003  0.78427  0.47947  Biso   1.000  H
  C746     1.0000 0.44173  0.86067  0.52637  Biso   1.000  C
  H487     1.0000 0.42743  0.86747  0.50247  Biso   1.000  H
  H488     1.0000 0.46593  0.89197  0.53807  Biso   1.000  H
  C747     1.0000 0.40243  0.83367  0.55717  Biso   1.000  C
  H489     1.0000 0.37403  0.80797  0.54277  Biso   1.000  H
  H490     1.0000 0.41383  0.81757  0.57617  Biso   1.000  H
  C748     1.0000 0.38593  0.86247  0.58177  Biso   1.000  C
  C749     1.0000 0.41433  0.89167  0.61317  Biso   1.000  C
  H491     1.0000 0.44533  0.89547  0.61787  Biso   1.000  H
  C750     1.0000 0.39753  0.91537  0.63777  Biso   1.000  C
  C751     1.0000 0.35223  0.90987  0.63087  Biso   1.000  C
  H492     1.0000 0.34073  0.92607  0.64777  Biso   1.000  H
  C752     1.0000 0.32363  0.88077  0.59947  Biso   1.000  C
  C753     1.0000 0.34063  0.85707  0.57507  Biso   1.000  C
  H493     1.0000 0.32113  0.83717  0.55357  Biso   1.000  H
  O239     1.0000 0.45928  0.70367  0.43717  Biso   1.000  O
  H494     1.0000 0.44123  0.67787  0.42487  Biso   1.000  H
  C754     1.0000 0.43343  0.71697  0.45697  Biso   1.000  C
  O240     1.0000 0.39033  0.68467  0.46557  Biso   1.000  O
  C755     1.0000 0.45873  0.75477  0.48647  Biso   1.000  C
  C756     1.0000 0.50803  0.77637  0.49367  Biso   1.000  C
  H495     1.0000 0.52663  0.76527  0.47977  Biso   1.000  H
  C757     1.0000 0.53003  0.81407  0.52127  Biso   1.000  C
  C758     1.0000 0.50273  0.83027  0.54157  Biso   1.000  C
  H496     1.0000 0.51773  0.85597  0.56047  Biso   1.000  H
  C759     1.0000 0.45343  0.80867  0.53437  Biso   1.000  C
  C760     1.0000 0.43143  0.77087  0.50687  Biso   1.000  C
  H497     1.0000 0.39773  0.75607  0.50187  Biso   1.000  H
  C761     1.0000 0.42353  0.82427  0.55837  Biso   1.000  C
  H498     1.0000 0.43663  0.83237  0.58627  Biso   1.000  H
  H499     1.0000 0.39013  0.79677  0.56027  Biso   1.000  H
  C762     1.0000 0.42183  0.86697  0.54097  Biso   1.000  C
  H500     1.0000 0.40313  0.85737  0.51547  Biso   1.000  H
  H501     1.0000 0.45503  0.89277  0.53457  Biso   1.000  H
  C763     1.0000 0.39923  0.88607  0.57027  Biso   1.000  C
  C764     1.0000 0.42613  0.91147  0.60377  Biso   1.000  C
  H502     1.0000 0.45873  0.91897  0.60627  Biso   1.000  H
  C765     1.0000 0.40553  0.92617  0.63347  Biso   1.000  C
  C766     1.0000 0.35783  0.91527  0.62977  Biso   1.000  C
  H503     1.0000 0.34363  0.92517  0.65007  Biso   1.000  H
  C767     1.0000 0.33073  0.88957  0.59627  Biso   1.000  C
  C768     1.0000 0.35153  0.87507  0.56657  Biso   1.000  C
  H504     1.0000 0.33303  0.85757  0.54367  Biso   1.000  H
  Co24     1.0000 0.18833  0.86667  0.63367  Biso   1.000  Co
  Fe25     1.0000 0.80280  0.65720  0.96560  Biso   1.000  Fe
  O241     1.0000 0.85005  0.12249  0.84676  Biso   1.000  O
  O242     1.0000 0.79960  0.06699  0.88982  Biso   1.000  O
  O243     1.0000 0.70820  0.84922  0.00415  Biso   1.000  O
  O244     1.0000 0.69979  0.77991  0.02851  Biso   1.000  O
  O245     1.0000 0.80608  0.73173  0.89044  Biso   1.000  O
  O246     1.0000 0.78036  0.70526  0.95317  Biso   1.000  O
  O247     1.0000 0.76331  0.64493  0.01947  Biso   1.000  O
  C769     1.0000 0.83140  0.08140  0.86360  Biso   1.000  C
  C770     1.0000 0.71540  0.81360  0.00290  Biso   1.000  C
  C771     1.0000 0.78960  0.73370  0.92410  Biso   1.000  C
  O248     1.0000 0.95570  0.01410  0.77530  Biso   1.000  O
  C772     1.0000 0.90030  0.02980  0.81040  Biso   1.000  C
  C773     1.0000 0.88690  0.06270  0.82340  Biso   1.000  C
  H505     1.0000 0.90540  0.09570  0.81570  Biso   1.000  H
  C774     1.0000 0.84630  0.04740  0.84770  Biso   1.000  C
  C775     1.0000 0.81920  0.99920  0.85900  Biso   1.000  C
  H506     1.0000 0.79150  0.98880  0.87560  Biso   1.000  H
  C776     1.0000 0.83270  0.96630  0.84590  Biso   1.000  C
  C777     1.0000 0.87320  0.98160  0.82170  Biso   1.000  C
  H507     1.0000 0.88240  0.95910  0.81280  Biso   1.000  H
  C778     1.0000 0.80600  0.91440  0.85970  Biso   1.000  C
  H508     1.0000 0.79920  0.89330  0.83580  Biso   1.000  H
  H509     1.0000 0.77470  0.90730  0.87140  Biso   1.000  H
  C779     1.0000 0.83300  0.90210  0.89050  Biso   1.000  C
  H510     1.0000 0.85870  0.89940  0.87610  Biso   1.000  H
  H511     1.0000 0.84910  0.92960  0.90950  Biso   1.000  H
  C780     1.0000 0.80420  0.85680  0.91510  Biso   1.000  C
  C781     1.0000 0.77500  0.85600  0.94650  Biso   1.000  C
  H512     1.0000 0.77120  0.88320  0.95120  Biso   1.000  H
  C782     1.0000 0.75130  0.81550  0.97110  Biso   1.000  C
  C783     1.0000 0.75680  0.77570  0.96420  Biso   1.000  C
  H513     1.0000 0.74060  0.74800  0.98110  Biso   1.000  H
  C784     1.0000 0.78590  0.77620  0.93280  Biso   1.000  C
  C785     1.0000 0.80960  0.81690  0.90840  Biso   1.000  C
  H514     1.0000 0.82950  0.81730  0.88690  Biso   1.000  H
  O249     1.0000 0.96300  0.08895  0.77050  Biso   1.000  O
  H515     1.0000 0.98880  0.09670  0.75820  Biso   1.000  H
  C786     1.0000 0.94970  0.04980  0.79030  Biso   1.000  C
  O250     1.0000 0.98200  0.03900  0.79890  Biso   1.000  O
  C787     1.0000 0.91190  0.03730  0.81980  Biso   1.000  C
  C788     1.0000 0.89030  0.06500  0.82700  Biso   1.000  C
  H516     1.0000 0.90140  0.09470  0.81310  Biso   1.000  H
  C789     1.0000 0.85260  0.04930  0.85460  Biso   1.000  C
  C790     1.0000 0.83640  0.00580  0.87490  Biso   1.000  C
  H517     1.0000 0.81070  0.99510  0.89380  Biso   1.000  H
  C791     1.0000 0.85800  0.97810  0.86770  Biso   1.000  C
  C792     1.0000 0.89580  0.99390  0.84020  Biso   1.000  C
  H518     1.0000 0.91060  0.97500  0.83520  Biso   1.000  H
  C793     1.0000 0.84240  0.93260  0.89170  Biso   1.000  C
  H519     1.0000 0.83430  0.93760  0.91960  Biso   1.000  H
  H520     1.0000 0.86990  0.92670  0.89360  Biso   1.000  H
  C794     1.0000 0.79970  0.88820  0.87430  Biso   1.000  C
  H521     1.0000 0.80930  0.87910  0.84880  Biso   1.000  H
  H522     1.0000 0.77390  0.89560  0.86790  Biso   1.000  H
  C795     1.0000 0.78060  0.84650  0.90360  Biso   1.000  C
  C796     1.0000 0.75520  0.84800  0.93710  Biso   1.000  C
  H523     1.0000 0.74770  0.87310  0.93960  Biso   1.000  H
  C797     1.0000 0.74050  0.81270  0.96680  Biso   1.000  C
  C798     1.0000 0.75140  0.77590  0.96310  Biso   1.000  C
  H524     1.0000 0.74150  0.75180  0.98340  Biso   1.000  H
  C799     1.0000 0.77710  0.77450  0.92960  Biso   1.000  C
  C800     1.0000 0.79160  0.80980  0.89990  Biso   1.000  C
  H525     1.0000 0.80910  0.80880  0.87700  Biso   1.000  H
  Co25     1.0000 0.80000  0.65500  0.96700  Biso   1.000  Co
  Fe26     1.0000 0.46947  0.99053  0.29893  Biso   1.000  Fe
  O251     1.0000 0.51672  0.45582  0.18009  Biso   1.000  O
  O252     1.0000 0.46627  0.40032  0.22315  Biso   1.000  O
  O253     1.0000 0.37487  0.18255  0.33748  Biso   1.000  O
  O254     1.0000 0.36646  0.11324  0.36184  Biso   1.000  O
  O255     1.0000 0.47275  0.06506  0.22377  Biso   1.000  O
  O256     1.0000 0.44703  0.03859  0.28650  Biso   1.000  O
  O257     1.0000 0.42998  0.97826  0.35280  Biso   1.000  O
  C801     1.0000 0.49807  0.41473  0.19693  Biso   1.000  C
  C802     1.0000 0.38207  0.14693  0.33623  Biso   1.000  C
  C803     1.0000 0.45627  0.06703  0.25743  Biso   1.000  C
  O258     1.0000 0.62237  0.34743  0.10863  Biso   1.000  O
  C804     1.0000 0.56697  0.36313  0.14373  Biso   1.000  C
  C805     1.0000 0.55357  0.39603  0.15673  Biso   1.000  C
  H526     1.0000 0.57207  0.42903  0.14903  Biso   1.000  H
  C806     1.0000 0.51297  0.38073  0.18103  Biso   1.000  C
  C807     1.0000 0.48587  0.33253  0.19233  Biso   1.000  C
  H527     1.0000 0.45817  0.32213  0.20893  Biso   1.000  H
  C808     1.0000 0.49937  0.29963  0.17923  Biso   1.000  C
  C809     1.0000 0.53987  0.31493  0.15503  Biso   1.000  C
  H528     1.0000 0.54907  0.29243  0.14613  Biso   1.000  H
  C810     1.0000 0.47267  0.24773  0.19303  Biso   1.000  C
  H529     1.0000 0.46587  0.22663  0.16913  Biso   1.000  H
  H530     1.0000 0.44137  0.24063  0.20473  Biso   1.000  H
  C811     1.0000 0.49967  0.23543  0.22383  Biso   1.000  C
  H531     1.0000 0.52537  0.23273  0.20943  Biso   1.000  H
  H532     1.0000 0.51577  0.26293  0.24283  Biso   1.000  H
  C812     1.0000 0.47087  0.19013  0.24843  Biso   1.000  C
  C813     1.0000 0.44167  0.18933  0.27983  Biso   1.000  C
  H533     1.0000 0.43787  0.21653  0.28453  Biso   1.000  H
  C814     1.0000 0.41797  0.14883  0.30443  Biso   1.000  C
  C815     1.0000 0.42347  0.10903  0.29753  Biso   1.000  C
  H534     1.0000 0.40727  0.08133  0.31443  Biso   1.000  H
  C816     1.0000 0.45257  0.10953  0.26613  Biso   1.000  C
  C817     1.0000 0.47627  0.15023  0.24173  Biso   1.000  C
  H535     1.0000 0.49617  0.15063  0.22023  Biso   1.000  H
  O259     1.0000 0.62967  0.42228  0.10383  Biso   1.000  O
  H536     1.0000 0.65547  0.43003  0.09153  Biso   1.000  H
  C818     1.0000 0.61637  0.38313  0.12363  Biso   1.000  C
  O260     1.0000 0.64867  0.37233  0.13223  Biso   1.000  O
  C819     1.0000 0.57857  0.37063  0.15313  Biso   1.000  C
  C820     1.0000 0.55697  0.39833  0.16033  Biso   1.000  C
  H537     1.0000 0.56807  0.42803  0.14643  Biso   1.000  H
  C821     1.0000 0.51927  0.38263  0.18793  Biso   1.000  C
  C822     1.0000 0.50307  0.33913  0.20823  Biso   1.000  C
  H538     1.0000 0.47737  0.32843  0.22713  Biso   1.000  H
  C823     1.0000 0.52467  0.31143  0.20103  Biso   1.000  C
  C824     1.0000 0.56247  0.32723  0.17353  Biso   1.000  C
  H539     1.0000 0.57727  0.30833  0.16853  Biso   1.000  H
  C825     1.0000 0.50907  0.26593  0.22503  Biso   1.000  C
  H540     1.0000 0.50097  0.27093  0.25293  Biso   1.000  H
  H541     1.0000 0.53657  0.26003  0.22693  Biso   1.000  H
  C826     1.0000 0.46637  0.22153  0.20763  Biso   1.000  C
  H542     1.0000 0.47597  0.21243  0.18213  Biso   1.000  H
  H543     1.0000 0.44057  0.22893  0.20123  Biso   1.000  H
  C827     1.0000 0.44727  0.17983  0.23693  Biso   1.000  C
  C828     1.0000 0.42187  0.18133  0.27043  Biso   1.000  C
  H544     1.0000 0.41437  0.20643  0.27293  Biso   1.000  H
  C829     1.0000 0.40717  0.14603  0.30013  Biso   1.000  C
  C830     1.0000 0.41807  0.10923  0.29643  Biso   1.000  C
  H545     1.0000 0.40817  0.08513  0.31673  Biso   1.000  H
  C831     1.0000 0.44377  0.10783  0.26293  Biso   1.000  C
  C832     1.0000 0.45827  0.14313  0.23323  Biso   1.000  C
  H546     1.0000 0.47577  0.14213  0.21033  Biso   1.000  H
  Co26     1.0000 0.46667  0.98833  0.30033  Biso   1.000  Co
  Fe27     1.0000 0.13613  0.32387  0.63227  Biso   1.000  Fe
  O261     1.0000 0.18338  0.78916  0.51343  Biso   1.000  O
  O262     1.0000 0.13293  0.73366  0.55649  Biso   1.000  O
  O263     1.0000 0.04153  0.51589  0.67082  Biso   1.000  O
  O264     1.0000 0.03312  0.44658  0.69518  Biso   1.000  O
  O265     1.0000 0.13941  0.39840  0.55711  Biso   1.000  O
  O266     1.0000 0.11369  0.37193  0.61984  Biso   1.000  O
  O267     1.0000 0.09664  0.31160  0.68614  Biso   1.000  O
  C833     1.0000 0.16473  0.74807  0.53027  Biso   1.000  C
  C834     1.0000 0.04873  0.48027  0.66957  Biso   1.000  C
  C835     1.0000 0.12293  0.40037  0.59077  Biso   1.000  C
  O268     1.0000 0.28903  0.68077  0.44197  Biso   1.000  O
  C836     1.0000 0.23363  0.69647  0.47707  Biso   1.000  C
  C837     1.0000 0.22023  0.72937  0.49007  Biso   1.000  C
  H547     1.0000 0.23873  0.76237  0.48237  Biso   1.000  H
  C838     1.0000 0.17963  0.71407  0.51437  Biso   1.000  C
  C839     1.0000 0.15253  0.66587  0.52567  Biso   1.000  C
  H548     1.0000 0.12483  0.65547  0.54227  Biso   1.000  H
  C840     1.0000 0.16603  0.63297  0.51257  Biso   1.000  C
  C841     1.0000 0.20653  0.64827  0.48837  Biso   1.000  C
  H549     1.0000 0.21573  0.62577  0.47947  Biso   1.000  H
  C842     1.0000 0.13933  0.58107  0.52637  Biso   1.000  C
  H550     1.0000 0.13253  0.55997  0.50247  Biso   1.000  H
  H551     1.0000 0.10803  0.57397  0.53807  Biso   1.000  H
  C843     1.0000 0.16633  0.56877  0.55717  Biso   1.000  C
  H552     1.0000 0.19203  0.56607  0.54277  Biso   1.000  H
  H553     1.0000 0.18243  0.59627  0.57617  Biso   1.000  H
  C844     1.0000 0.13753  0.52347  0.58177  Biso   1.000  C
  C845     1.0000 0.10833  0.52267  0.61317  Biso   1.000  C
  H554     1.0000 0.10453  0.54987  0.61787  Biso   1.000  H
  C846     1.0000 0.08463  0.48217  0.63777  Biso   1.000  C
  C847     1.0000 0.09013  0.44237  0.63087  Biso   1.000  C
  H555     1.0000 0.07393  0.41467  0.64777  Biso   1.000  H
  C848     1.0000 0.11923  0.44287  0.59947  Biso   1.000  C
  C849     1.0000 0.14293  0.48357  0.57507  Biso   1.000  C
  H556     1.0000 0.16283  0.48397  0.55357  Biso   1.000  H
  O269     1.0000 0.29633  0.75562  0.43717  Biso   1.000  O
  H557     1.0000 0.32213  0.76337  0.42487  Biso   1.000  H
  C850     1.0000 0.28303  0.71647  0.45697  Biso   1.000  C
  O270     1.0000 0.31533  0.70567  0.46557  Biso   1.000  O
  C851     1.0000 0.24523  0.70397  0.48647  Biso   1.000  C
  C852     1.0000 0.22363  0.73167  0.49367  Biso   1.000  C
  H558     1.0000 0.23473  0.76137  0.47977  Biso   1.000  H
  C853     1.0000 0.18593  0.71597  0.52127  Biso   1.000  C
  C854     1.0000 0.16973  0.67247  0.54157  Biso   1.000  C
  H559     1.0000 0.14403  0.66177  0.56047  Biso   1.000  H
  C855     1.0000 0.19133  0.64477  0.53437  Biso   1.000  C
  C856     1.0000 0.22913  0.66057  0.50687  Biso   1.000  C
  H560     1.0000 0.24393  0.64167  0.50187  Biso   1.000  H
  C857     1.0000 0.17573  0.59927  0.55837  Biso   1.000  C
  H561     1.0000 0.16763  0.60427  0.58627  Biso   1.000  H
  H562     1.0000 0.20323  0.59337  0.56027  Biso   1.000  H
  C858     1.0000 0.13303  0.55487  0.54097  Biso   1.000  C
  H563     1.0000 0.14263  0.54577  0.51547  Biso   1.000  H
  H564     1.0000 0.10723  0.56227  0.53457  Biso   1.000  H
  C859     1.0000 0.11393  0.51317  0.57027  Biso   1.000  C
  C860     1.0000 0.08853  0.51467  0.60377  Biso   1.000  C
  H565     1.0000 0.08103  0.53977  0.60627  Biso   1.000  H
  C861     1.0000 0.07383  0.47937  0.63347  Biso   1.000  C
  C862     1.0000 0.08473  0.44257  0.62977  Biso   1.000  C
  H566     1.0000 0.07483  0.41847  0.65007  Biso   1.000  H
  C863     1.0000 0.11043  0.44117  0.59627  Biso   1.000  C
  C864     1.0000 0.12493  0.47647  0.56657  Biso   1.000  C
  H567     1.0000 0.14243  0.47547  0.54367  Biso   1.000  H
  Co27     1.0000 0.13333  0.32167  0.63367  Biso   1.000  Co
  Fe28     1.0000 0.14560  0.34280  0.53440  Biso   1.000  Fe
  O271     1.0000 0.72756  0.87751  0.65324  Biso   1.000  O
  O272     1.0000 0.73261  0.93301  0.61018  Biso   1.000  O
  O273     1.0000 0.85898  0.15078  0.49585  Biso   1.000  O
  O274     1.0000 0.91988  0.22009  0.47149  Biso   1.000  O
  O275     1.0000 0.07435  0.26827  0.60956  Biso   1.000  O
  O276     1.0000 0.07510  0.29474  0.54683  Biso   1.000  O
  O277     1.0000 0.11838  0.35507  0.48053  Biso   1.000  O
  C865     1.0000 0.75000  0.91860  0.63640  Biso   1.000  C
  C866     1.0000 0.90180  0.18640  0.49710  Biso   1.000  C
  C867     1.0000 0.05590  0.26630  0.57590  Biso   1.000  C
  O278     1.0000 0.94160  0.98590  0.72470  Biso   1.000  O
  C868     1.0000 0.87050  0.97020  0.68960  Biso   1.000  C
  C869     1.0000 0.82420  0.93730  0.67660  Biso   1.000  C
  H568     1.0000 0.80970  0.90430  0.68430  Biso   1.000  H
  C870     1.0000 0.79890  0.95260  0.65230  Biso   1.000  C
  C871     1.0000 0.82000  0.00080  0.64100  Biso   1.000  C
  H569     1.0000 0.80270  0.01120  0.62440  Biso   1.000  H
  C872     1.0000 0.86640  0.03370  0.65410  Biso   1.000  C
  C873     1.0000 0.89160  0.01840  0.67830  Biso   1.000  C
  H570     1.0000 0.92330  0.04090  0.68720  Biso   1.000  H
  C874     1.0000 0.89160  0.08560  0.64030  Biso   1.000  C
  H571     1.0000 0.90590  0.10670  0.66420  Biso   1.000  H
  H572     1.0000 0.86740  0.09270  0.62860  Biso   1.000  H
  C875     1.0000 0.93090  0.09790  0.60950  Biso   1.000  C
  H573     1.0000 0.95930  0.10060  0.62390  Biso   1.000  H
  H574     1.0000 0.91950  0.07040  0.59050  Biso   1.000  H
  C876     1.0000 0.94740  0.14320  0.58490  Biso   1.000  C
  C877     1.0000 0.91900  0.14400  0.55350  Biso   1.000  C
  H575     1.0000 0.88800  0.11680  0.54880  Biso   1.000  H
  C878     1.0000 0.93580  0.18450  0.52890  Biso   1.000  C
  C879     1.0000 0.98110  0.22430  0.53580  Biso   1.000  C
  H576     1.0000 0.99260  0.25200  0.51890  Biso   1.000  H
  C880     1.0000 0.00970  0.22380  0.56720  Biso   1.000  C
  C881     1.0000 0.99270  0.18310  0.59160  Biso   1.000  C
  H577     1.0000 0.01220  0.18270  0.61310  Biso   1.000  H
  O279     1.0000 0.87405  0.91105  0.72950  Biso   1.000  O
  H578     1.0000 0.89210  0.90330  0.74180  Biso   1.000  H
  C882     1.0000 0.89990  0.95020  0.70970  Biso   1.000  C
  O280     1.0000 0.94300  0.96100  0.70110  Biso   1.000  O
  C883     1.0000 0.87460  0.96270  0.68020  Biso   1.000  C
  C884     1.0000 0.82530  0.93500  0.67300  Biso   1.000  C
  H579     1.0000 0.80670  0.90530  0.68690  Biso   1.000  H
  C885     1.0000 0.80330  0.95070  0.64540  Biso   1.000  C
  C886     1.0000 0.83060  0.99420  0.62510  Biso   1.000  C
  H580     1.0000 0.81560  0.00490  0.60620  Biso   1.000  H
  C887     1.0000 0.87990  0.02190  0.63230  Biso   1.000  C
  C888     1.0000 0.90190  0.00610  0.65980  Biso   1.000  C
  H581     1.0000 0.93560  0.02500  0.66480  Biso   1.000  H
  C889     1.0000 0.90980  0.06740  0.60830  Biso   1.000  C
  H582     1.0000 0.89670  0.06240  0.58040  Biso   1.000  H
  H583     1.0000 0.94320  0.07330  0.60640  Biso   1.000  H
  C890     1.0000 0.91150  0.11180  0.62570  Biso   1.000  C
  H584     1.0000 0.93020  0.12090  0.65120  Biso   1.000  H
  H585     1.0000 0.87830  0.10440  0.63210  Biso   1.000  H
  C891     1.0000 0.93410  0.15350  0.59640  Biso   1.000  C
  C892     1.0000 0.90720  0.15200  0.56290  Biso   1.000  C
  H586     1.0000 0.87460  0.12690  0.56040  Biso   1.000  H
  C893     1.0000 0.92780  0.18730  0.53320  Biso   1.000  C
  C894     1.0000 0.97550  0.22410  0.53690  Biso   1.000  C
  H587     1.0000 0.98970  0.24820  0.51660  Biso   1.000  H
  C895     1.0000 0.00260  0.22550  0.57040  Biso   1.000  C
  C896     1.0000 0.98180  0.19020  0.60010  Biso   1.000  C
  H588     1.0000 0.00030  0.19120  0.62300  Biso   1.000  H
  Co28     1.0000 0.14500  0.34500  0.53300  Biso   1.000  Co
  Fe29     1.0000 0.81227  0.67613  0.86773  Biso   1.000  Fe
  O281     1.0000 0.39423  0.21084  0.98657  Biso   1.000  O
  O282     1.0000 0.39928  0.26634  0.94351  Biso   1.000  O
  O283     1.0000 0.52565  0.48411  0.82918  Biso   1.000  O
  O284     1.0000 0.58655  0.55342  0.80482  Biso   1.000  O
  O285     1.0000 0.74102  0.60160  0.94289  Biso   1.000  O
  O286     1.0000 0.74177  0.62807  0.88016  Biso   1.000  O
  O287     1.0000 0.78505  0.68840  0.81386  Biso   1.000  O
  C897     1.0000 0.41667  0.25193  0.96973  Biso   1.000  C
  C898     1.0000 0.56847  0.51973  0.83043  Biso   1.000  C
  C899     1.0000 0.72257  0.59963  0.90923  Biso   1.000  C
  O288     1.0000 0.60827  0.31923  0.05803  Biso   1.000  O
  C900     1.0000 0.53717  0.30353  0.02293  Biso   1.000  C
  C901     1.0000 0.49087  0.27063  0.00993  Biso   1.000  C
  H589     1.0000 0.47637  0.23763  0.01763  Biso   1.000  H
  C902     1.0000 0.46557  0.28593  0.98563  Biso   1.000  C
  C903     1.0000 0.48667  0.33413  0.97433  Biso   1.000  C
  H590     1.0000 0.46937  0.34453  0.95773  Biso   1.000  H
  C904     1.0000 0.53307  0.36703  0.98743  Biso   1.000  C
  C905     1.0000 0.55827  0.35173  0.01163  Biso   1.000  C
  H591     1.0000 0.58997  0.37423  0.02053  Biso   1.000  H
  C906     1.0000 0.55827  0.41893  0.97363  Biso   1.000  C
  H592     1.0000 0.57257  0.44003  0.99753  Biso   1.000  H
  H593     1.0000 0.53407  0.42603  0.96193  Biso   1.000  H
  C907     1.0000 0.59757  0.43123  0.94283  Biso   1.000  C
  H594     1.0000 0.62597  0.43393  0.95723  Biso   1.000  H
  H595     1.0000 0.58617  0.40373  0.92383  Biso   1.000  H
  C908     1.0000 0.61407  0.47653  0.91823  Biso   1.000  C
  C909     1.0000 0.58567  0.47733  0.88683  Biso   1.000  C
  H596     1.0000 0.55467  0.45013  0.88213  Biso   1.000  H
  C910     1.0000 0.60247  0.51783  0.86223  Biso   1.000  C
  C911     1.0000 0.64777  0.55763  0.86913  Biso   1.000  C
  H597     1.0000 0.65927  0.58533  0.85223  Biso   1.000  H
  C912     1.0000 0.67637  0.55713  0.90053  Biso   1.000  C
  C913     1.0000 0.65937  0.51643  0.92493  Biso   1.000  C
  H598     1.0000 0.67887  0.51603  0.94643  Biso   1.000  H
  O289     1.0000 0.54072  0.24438  0.06283  Biso   1.000  O
  H599     1.0000 0.55877  0.23663  0.07513  Biso   1.000  H
  C914     1.0000 0.56657  0.28353  0.04303  Biso   1.000  C
  O290     1.0000 0.60967  0.29433  0.03443  Biso   1.000  O
  C915     1.0000 0.54127  0.29603  0.01353  Biso   1.000  C
  C916     1.0000 0.49197  0.26833  0.00633  Biso   1.000  C
  H600     1.0000 0.47337  0.23863  0.02023  Biso   1.000  H
  C917     1.0000 0.46997  0.28403  0.97873  Biso   1.000  C
  C918     1.0000 0.49727  0.32753  0.95843  Biso   1.000  C
  H601     1.0000 0.48227  0.33823  0.93953  Biso   1.000  H
  C919     1.0000 0.54657  0.35523  0.96563  Biso   1.000  C
  C920     1.0000 0.56857  0.33943  0.99313  Biso   1.000  C
  H602     1.0000 0.60227  0.35833  0.99813  Biso   1.000  H
  C921     1.0000 0.57647  0.40073  0.94163  Biso   1.000  C
  H603     1.0000 0.56337  0.39573  0.91373  Biso   1.000  H
  H604     1.0000 0.60987  0.40663  0.93973  Biso   1.000  H
  C922     1.0000 0.57817  0.44513  0.95903  Biso   1.000  C
  H605     1.0000 0.59687  0.45423  0.98453  Biso   1.000  H
  H606     1.0000 0.54497  0.43773  0.96543  Biso   1.000  H
  C923     1.0000 0.60077  0.48683  0.92973  Biso   1.000  C
  C924     1.0000 0.57387  0.48533  0.89623  Biso   1.000  C
  H607     1.0000 0.54127  0.46023  0.89373  Biso   1.000  H
  C925     1.0000 0.59447  0.52063  0.86653  Biso   1.000  C
  C926     1.0000 0.64217  0.55743  0.87023  Biso   1.000  C
  H608     1.0000 0.65637  0.58153  0.84993  Biso   1.000  H
  C927     1.0000 0.66927  0.55883  0.90373  Biso   1.000  C
  C928     1.0000 0.64847  0.52353  0.93343  Biso   1.000  C
  H609     1.0000 0.66697  0.52453  0.95633  Biso   1.000  H
  Co29     1.0000 0.81167  0.67833  0.86633  Biso   1.000  Co
  Fe30     1.0000 0.47893  0.00947  0.20107  Biso   1.000  Fe
  O291     1.0000 0.06089  0.54418  0.31991  Biso   1.000  O
  O292     1.0000 0.06594  0.59968  0.27685  Biso   1.000  O
  O293     1.0000 0.19231  0.81745  0.16252  Biso   1.000  O
  O294     1.0000 0.25321  0.88676  0.13816  Biso   1.000  O
  O295     1.0000 0.40768  0.93494  0.27623  Biso   1.000  O
  O296     1.0000 0.40843  0.96141  0.21350  Biso   1.000  O
  O297     1.0000 0.45171  0.02174  0.14720  Biso   1.000  O
  C929     1.0000 0.08333  0.58527  0.30307  Biso   1.000  C
  C930     1.0000 0.23513  0.85307  0.16377  Biso   1.000  C
  C931     1.0000 0.38923  0.93297  0.24257  Biso   1.000  C
  O298     1.0000 0.27493  0.65257  0.39137  Biso   1.000  O
  C932     1.0000 0.20383  0.63687  0.35627  Biso   1.000  C
  C933     1.0000 0.15753  0.60397  0.34327  Biso   1.000  C
  H610     1.0000 0.14303  0.57097  0.35097  Biso   1.000  H
  C934     1.0000 0.13223  0.61927  0.31897  Biso   1.000  C
  C935     1.0000 0.15333  0.66747  0.30767  Biso   1.000  C
  H611     1.0000 0.13603  0.67787  0.29107  Biso   1.000  H
  C936     1.0000 0.19973  0.70037  0.32077  Biso   1.000  C
  C937     1.0000 0.22493  0.68507  0.34497  Biso   1.000  C
  H612     1.0000 0.25663  0.70757  0.35387  Biso   1.000  H
  C938     1.0000 0.22493  0.75227  0.30697  Biso   1.000  C
  H613     1.0000 0.23923  0.77337  0.33087  Biso   1.000  H
  H614     1.0000 0.20073  0.75937  0.29527  Biso   1.000  H
  C939     1.0000 0.26423  0.76457  0.27617  Biso   1.000  C
  H615     1.0000 0.29263  0.76727  0.29057  Biso   1.000  H
  H616     1.0000 0.25283  0.73707  0.25717  Biso   1.000  H
  C940     1.0000 0.28073  0.80987  0.25157  Biso   1.000  C
  C941     1.0000 0.25233  0.81067  0.22017  Biso   1.000  C
  H617     1.0000 0.22133  0.78347  0.21547  Biso   1.000  H
  C942     1.0000 0.26913  0.85117  0.19557  Biso   1.000  C
  C943     1.0000 0.31443  0.89097  0.20247  Biso   1.000  C
  H618     1.0000 0.32593  0.91867  0.18557  Biso   1.000  H
  C944     1.0000 0.34303  0.89047  0.23387  Biso   1.000  C
  C945     1.0000 0.32603  0.84977  0.25827  Biso   1.000  C
  H619     1.0000 0.34553  0.84937  0.27977  Biso   1.000  H
  O299     1.0000 0.20738  0.57772  0.39617  Biso   1.000  O
  H620     1.0000 0.22543  0.56997  0.40847  Biso   1.000  H
  C946     1.0000 0.23323  0.61687  0.37637  Biso   1.000  C
  O300     1.0000 0.27633  0.62767  0.36777  Biso   1.000  O
  C947     1.0000 0.20793  0.62937  0.34687  Biso   1.000  C
  C948     1.0000 0.15863  0.60167  0.33967  Biso   1.000  C
  H621     1.0000 0.14003  0.57197  0.35357  Biso   1.000  H
  C949     1.0000 0.13663  0.61737  0.31207  Biso   1.000  C
  C950     1.0000 0.16393  0.66087  0.29177  Biso   1.000  C
  H622     1.0000 0.14893  0.67157  0.27287  Biso   1.000  H
  C951     1.0000 0.21323  0.68857  0.29897  Biso   1.000  C
  C952     1.0000 0.23523  0.67277  0.32647  Biso   1.000  C
  H623     1.0000 0.26893  0.69167  0.33147  Biso   1.000  H
  C953     1.0000 0.24313  0.73407  0.27497  Biso   1.000  C
  H624     1.0000 0.23003  0.72907  0.24707  Biso   1.000  H
  H625     1.0000 0.27653  0.73997  0.27307  Biso   1.000  H
  C954     1.0000 0.24483  0.77847  0.29237  Biso   1.000  C
  H626     1.0000 0.26353  0.78757  0.31787  Biso   1.000  H
  H627     1.0000 0.21163  0.77107  0.29877  Biso   1.000  H
  C955     1.0000 0.26743  0.82017  0.26307  Biso   1.000  C
  C956     1.0000 0.24053  0.81867  0.22957  Biso   1.000  C
  H628     1.0000 0.20793  0.79357  0.22707  Biso   1.000  H
  C957     1.0000 0.26113  0.85397  0.19987  Biso   1.000  C
  C958     1.0000 0.30883  0.89077  0.20357  Biso   1.000  C
  H629     1.0000 0.32303  0.91487  0.18327  Biso   1.000  H
  C959     1.0000 0.33593  0.89217  0.23707  Biso   1.000  C
  C960     1.0000 0.31513  0.85687  0.26677  Biso   1.000  C
  H630     1.0000 0.33363  0.85787  0.28967  Biso   1.000  H
  Co30     1.0000 0.47833  0.01167  0.19967  Biso   1.000  Co
  Fe31     1.0000 0.19720  0.85440  0.53440  Biso   1.000  Fe
  O301     1.0000 0.14995  0.27244  0.65324  Biso   1.000  O
  O302     1.0000 0.20040  0.26739  0.61018  Biso   1.000  O
  O303     1.0000 0.29180  0.14102  0.49585  Biso   1.000  O
  O304     1.0000 0.30021  0.08012  0.47149  Biso   1.000  O
  O305     1.0000 0.19392  0.92565  0.60956  Biso   1.000  O
  O306     1.0000 0.21964  0.92490  0.54683  Biso   1.000  O
  O307     1.0000 0.23669  0.88162  0.48053  Biso   1.000  O
  C961     1.0000 0.16860  0.25000  0.63640  Biso   1.000  C
  C962     1.0000 0.28460  0.09820  0.49710  Biso   1.000  C
  C963     1.0000 0.21040  0.94410  0.57590  Biso   1.000  C
  O308     1.0000 0.04430  0.05840  0.72470  Biso   1.000  O
  C964     1.0000 0.09970  0.12950  0.68960  Biso   1.000  C
  C965     1.0000 0.11310  0.17580  0.67660  Biso   1.000  C
  H631     1.0000 0.09460  0.19030  0.68430  Biso   1.000  H
  C966     1.0000 0.15370  0.20110  0.65230  Biso   1.000  C
  C967     1.0000 0.18080  0.18000  0.64100  Biso   1.000  C
  H632     1.0000 0.20850  0.19730  0.62440  Biso   1.000  H
  C968     1.0000 0.16730  0.13360  0.65410  Biso   1.000  C
  C969     1.0000 0.12680  0.10840  0.67830  Biso   1.000  C
  H633     1.0000 0.11760  0.07670  0.68720  Biso   1.000  H
  C970     1.0000 0.19400  0.10840  0.64030  Biso   1.000  C
  H634     1.0000 0.20080  0.09410  0.66420  Biso   1.000  H
  H635     1.0000 0.22530  0.13260  0.62860  Biso   1.000  H
  C971     1.0000 0.16700  0.06910  0.60950  Biso   1.000  C
  H636     1.0000 0.14130  0.04070  0.62390  Biso   1.000  H
  H637     1.0000 0.15090  0.08050  0.59050  Biso   1.000  H
  C972     1.0000 0.19580  0.05260  0.58490  Biso   1.000  C
  C973     1.0000 0.22500  0.08100  0.55350  Biso   1.000  C
  H638     1.0000 0.22880  0.11200  0.54880  Biso   1.000  H
  C974     1.0000 0.24870  0.06420  0.52890  Biso   1.000  C
  C975     1.0000 0.24320  0.01890  0.53580  Biso   1.000  C
  H639     1.0000 0.25940  0.00740  0.51890  Biso   1.000  H
  C976     1.0000 0.21410  0.99030  0.56720  Biso   1.000  C
  C977     1.0000 0.19040  0.00730  0.59160  Biso   1.000  C
  H640     1.0000 0.17050  0.98780  0.61310  Biso   1.000  H
  O309     1.0000 0.03700  0.12595  0.72950  Biso   1.000  O
  H641     1.0000 0.01120  0.10790  0.74180  Biso   1.000  H
  C978     1.0000 0.05030  0.10010  0.70970  Biso   1.000  C
  O310     1.0000 0.01800  0.05700  0.70110  Biso   1.000  O
  C979     1.0000 0.08810  0.12540  0.68020  Biso   1.000  C
  C980     1.0000 0.10970  0.17470  0.67300  Biso   1.000  C
  H642     1.0000 0.09860  0.19330  0.68690  Biso   1.000  H
  C981     1.0000 0.14740  0.19670  0.64540  Biso   1.000  C
  C982     1.0000 0.16360  0.16940  0.62510  Biso   1.000  C
  H643     1.0000 0.18930  0.18440  0.60620  Biso   1.000  H
  C983     1.0000 0.14200  0.12010  0.63230  Biso   1.000  C
  C984     1.0000 0.10420  0.09810  0.65980  Biso   1.000  C
  H644     1.0000 0.08940  0.06440  0.66480  Biso   1.000  H
  C985     1.0000 0.15760  0.09020  0.60830  Biso   1.000  C
  H645     1.0000 0.16570  0.10330  0.58040  Biso   1.000  H
  H646     1.0000 0.13010  0.05680  0.60640  Biso   1.000  H
  C986     1.0000 0.20030  0.08850  0.62570  Biso   1.000  C
  H647     1.0000 0.19070  0.06980  0.65120  Biso   1.000  H
  H648     1.0000 0.22610  0.12170  0.63210  Biso   1.000  H
  C987     1.0000 0.21940  0.06590  0.59640  Biso   1.000  C
  C988     1.0000 0.24480  0.09280  0.56290  Biso   1.000  C
  H649     1.0000 0.25230  0.12540  0.56040  Biso   1.000  H
  C989     1.0000 0.25950  0.07220  0.53320  Biso   1.000  C
  C990     1.0000 0.24860  0.02450  0.53690  Biso   1.000  C
  H650     1.0000 0.25850  0.01030  0.51660  Biso   1.000  H
  C991     1.0000 0.22290  0.99740  0.57040  Biso   1.000  C
  C992     1.0000 0.20840  0.01820  0.60010  Biso   1.000  C
  H651     1.0000 0.19090  0.99970  0.62300  Biso   1.000  H
  Co31     1.0000 0.20000  0.85500  0.53300  Biso   1.000  Co
  Fe32     1.0000 0.86387  0.18773  0.86773  Biso   1.000  Fe
  O311     1.0000 0.81662  0.60577  0.98657  Biso   1.000  O
  O312     1.0000 0.86707  0.60072  0.94351  Biso   1.000  O
  O313     1.0000 0.95847  0.47435  0.82918  Biso   1.000  O
  O314     1.0000 0.96688  0.41345  0.80482  Biso   1.000  O
  O315     1.0000 0.86059  0.25898  0.94289  Biso   1.000  O
  O316     1.0000 0.88631  0.25823  0.88016  Biso   1.000  O
  O317     1.0000 0.90336  0.21495  0.81386  Biso   1.000  O
  C993     1.0000 0.83527  0.58333  0.96973  Biso   1.000  C
  C994     1.0000 0.95127  0.43153  0.83043  Biso   1.000  C
  C995     1.0000 0.87707  0.27743  0.90923  Biso   1.000  C
  O318     1.0000 0.71097  0.39173  0.05803  Biso   1.000  O
  C996     1.0000 0.76637  0.46283  0.02293  Biso   1.000  C
  C997     1.0000 0.77977  0.50913  0.00993  Biso   1.000  C
  H652     1.0000 0.76127  0.52363  0.01763  Biso   1.000  H
  C998     1.0000 0.82037  0.53443  0.98563  Biso   1.000  C
  C999     1.0000 0.84747  0.51333  0.97433  Biso   1.000  C
  H653     1.0000 0.87517  0.53063  0.95773  Biso   1.000  H
  C1000    1.0000 0.83397  0.46693  0.98743  Biso   1.000  C
  C1001    1.0000 0.79347  0.44173  0.01163  Biso   1.000  C
  H654     1.0000 0.78427  0.41003  0.02053  Biso   1.000  H
  C1002    1.0000 0.86067  0.44173  0.97363  Biso   1.000  C
  H655     1.0000 0.86747  0.42743  0.99753  Biso   1.000  H
  H656     1.0000 0.89197  0.46593  0.96193  Biso   1.000  H
  C1003    1.0000 0.83367  0.40243  0.94283  Biso   1.000  C
  H657     1.0000 0.80797  0.37403  0.95723  Biso   1.000  H
  H658     1.0000 0.81757  0.41383  0.92383  Biso   1.000  H
  C1004    1.0000 0.86247  0.38593  0.91823  Biso   1.000  C
  C1005    1.0000 0.89167  0.41433  0.88683  Biso   1.000  C
  H659     1.0000 0.89547  0.44533  0.88213  Biso   1.000  H
  C1006    1.0000 0.91537  0.39753  0.86223  Biso   1.000  C
  C1007    1.0000 0.90987  0.35223  0.86913  Biso   1.000  C
  H660     1.0000 0.92607  0.34073  0.85223  Biso   1.000  H
  C1008    1.0000 0.88077  0.32363  0.90053  Biso   1.000  C
  C1009    1.0000 0.85707  0.34063  0.92493  Biso   1.000  C
  H661     1.0000 0.83717  0.32113  0.94643  Biso   1.000  H
  O319     1.0000 0.70367  0.45928  0.06283  Biso   1.000  O
  H662     1.0000 0.67787  0.44123  0.07513  Biso   1.000  H
  C1010    1.0000 0.71697  0.43343  0.04303  Biso   1.000  C
  O320     1.0000 0.68467  0.39033  0.03443  Biso   1.000  O
  C1011    1.0000 0.75477  0.45873  0.01353  Biso   1.000  C
  C1012    1.0000 0.77637  0.50803  0.00633  Biso   1.000  C
  H663     1.0000 0.76527  0.52663  0.02023  Biso   1.000  H
  C1013    1.0000 0.81407  0.53003  0.97873  Biso   1.000  C
  C1014    1.0000 0.83027  0.50273  0.95843  Biso   1.000  C
  H664     1.0000 0.85597  0.51773  0.93953  Biso   1.000  H
  C1015    1.0000 0.80867  0.45343  0.96563  Biso   1.000  C
  C1016    1.0000 0.77087  0.43143  0.99313  Biso   1.000  C
  H665     1.0000 0.75607  0.39773  0.99813  Biso   1.000  H
  C1017    1.0000 0.82427  0.42353  0.94163  Biso   1.000  C
  H666     1.0000 0.83237  0.43663  0.91373  Biso   1.000  H
  H667     1.0000 0.79677  0.39013  0.93973  Biso   1.000  H
  C1018    1.0000 0.86697  0.42183  0.95903  Biso   1.000  C
  H668     1.0000 0.85737  0.40313  0.98453  Biso   1.000  H
  H669     1.0000 0.89277  0.45503  0.96543  Biso   1.000  H
  C1019    1.0000 0.88607  0.39923  0.92973  Biso   1.000  C
  C1020    1.0000 0.91147  0.42613  0.89623  Biso   1.000  C
  H670     1.0000 0.91897  0.45873  0.89373  Biso   1.000  H
  C1021    1.0000 0.92617  0.40553  0.86653  Biso   1.000  C
  C1022    1.0000 0.91527  0.35783  0.87023  Biso   1.000  C
  H671     1.0000 0.92517  0.34363  0.84993  Biso   1.000  H
  C1023    1.0000 0.88957  0.33073  0.90373  Biso   1.000  C
  C1024    1.0000 0.87507  0.35153  0.93343  Biso   1.000  C
  H672     1.0000 0.85757  0.33303  0.95633  Biso   1.000  H
  Co32     1.0000 0.86667  0.18833  0.86633  Biso   1.000  Co
  Fe33     1.0000 0.53053  0.52107  0.20107  Biso   1.000  Fe
  O321     1.0000 0.48328  0.93911  0.31991  Biso   1.000  O
  O322     1.0000 0.53373  0.93406  0.27685  Biso   1.000  O
  O323     1.0000 0.62513  0.80769  0.16252  Biso   1.000  O
  O324     1.0000 0.63354  0.74679  0.13816  Biso   1.000  O
  O325     1.0000 0.52725  0.59232  0.27623  Biso   1.000  O
  O326     1.0000 0.55297  0.59157  0.21350  Biso   1.000  O
  O327     1.0000 0.57002  0.54829  0.14720  Biso   1.000  O
  C1025    1.0000 0.50193  0.91667  0.30307  Biso   1.000  C
  C1026    1.0000 0.61793  0.76487  0.16377  Biso   1.000  C
  C1027    1.0000 0.54373  0.61077  0.24257  Biso   1.000  C
  O328     1.0000 0.37763  0.72507  0.39137  Biso   1.000  O
  C1028    1.0000 0.43303  0.79617  0.35627  Biso   1.000  C
  C1029    1.0000 0.44643  0.84247  0.34327  Biso   1.000  C
  H673     1.0000 0.42793  0.85697  0.35097  Biso   1.000  H
  C1030    1.0000 0.48703  0.86777  0.31897  Biso   1.000  C
  C1031    1.0000 0.51413  0.84667  0.30767  Biso   1.000  C
  H674     1.0000 0.54183  0.86397  0.29107  Biso   1.000  H
  C1032    1.0000 0.50063  0.80027  0.32077  Biso   1.000  C
  C1033    1.0000 0.46013  0.77507  0.34497  Biso   1.000  C
  H675     1.0000 0.45093  0.74337  0.35387  Biso   1.000  H
  C1034    1.0000 0.52733  0.77507  0.30697  Biso   1.000  C
  H676     1.0000 0.53413  0.76077  0.33087  Biso   1.000  H
  H677     1.0000 0.55863  0.79927  0.29527  Biso   1.000  H
  C1035    1.0000 0.50033  0.73577  0.27617  Biso   1.000  C
  H678     1.0000 0.47463  0.70737  0.29057  Biso   1.000  H
  H679     1.0000 0.48423  0.74717  0.25717  Biso   1.000  H
  C1036    1.0000 0.52913  0.71927  0.25157  Biso   1.000  C
  C1037    1.0000 0.55833  0.74767  0.22017  Biso   1.000  C
  H680     1.0000 0.56213  0.77867  0.21547  Biso   1.000  H
  C1038    1.0000 0.58203  0.73087  0.19557  Biso   1.000  C
  C1039    1.0000 0.57653  0.68557  0.20247  Biso   1.000  C
  H681     1.0000 0.59273  0.67407  0.18557  Biso   1.000  H
  C1040    1.0000 0.54743  0.65697  0.23387  Biso   1.000  C
  C1041    1.0000 0.52373  0.67397  0.25827  Biso   1.000  C
  H682     1.0000 0.50383  0.65447  0.27977  Biso   1.000  H
  O329     1.0000 0.37033  0.79262  0.39617  Biso   1.000  O
  H683     1.0000 0.34453  0.77457  0.40847  Biso   1.000  H
  C1042    1.0000 0.38363  0.76677  0.37637  Biso   1.000  C
  O330     1.0000 0.35133  0.72367  0.36777  Biso   1.000  O
  C1043    1.0000 0.42143  0.79207  0.34687  Biso   1.000  C
  C1044    1.0000 0.44303  0.84137  0.33967  Biso   1.000  C
  H684     1.0000 0.43193  0.85997  0.35357  Biso   1.000  H
  C1045    1.0000 0.48073  0.86337  0.31207  Biso   1.000  C
  C1046    1.0000 0.49693  0.83607  0.29177  Biso   1.000  C
  H685     1.0000 0.52263  0.85107  0.27287  Biso   1.000  H
  C1047    1.0000 0.47533  0.78677  0.29897  Biso   1.000  C
  C1048    1.0000 0.43753  0.76477  0.32647  Biso   1.000  C
  H686     1.0000 0.42273  0.73107  0.33147  Biso   1.000  H
  C1049    1.0000 0.49093  0.75687  0.27497  Biso   1.000  C
  H687     1.0000 0.49903  0.76997  0.24707  Biso   1.000  H
  H688     1.0000 0.46343  0.72347  0.27307  Biso   1.000  H
  C1050    1.0000 0.53363  0.75517  0.29237  Biso   1.000  C
  H689     1.0000 0.52403  0.73647  0.31787  Biso   1.000  H
  H690     1.0000 0.55943  0.78837  0.29877  Biso   1.000  H
  C1051    1.0000 0.55273  0.73257  0.26307  Biso   1.000  C
  C1052    1.0000 0.57813  0.75947  0.22957  Biso   1.000  C
  H691     1.0000 0.58563  0.79207  0.22707  Biso   1.000  H
  C1053    1.0000 0.59283  0.73887  0.19987  Biso   1.000  C
  C1054    1.0000 0.58193  0.69117  0.20357  Biso   1.000  C
  H692     1.0000 0.59183  0.67697  0.18327  Biso   1.000  H
  C1055    1.0000 0.55623  0.66407  0.23707  Biso   1.000  C
  C1056    1.0000 0.54173  0.68487  0.26677  Biso   1.000  C
  H693     1.0000 0.52423  0.66637  0.28967  Biso   1.000  H
  Co33     1.0000 0.53333  0.52167  0.19967  Biso   1.000  Co
  Fe34     1.0000 0.65720  0.80280  0.53440  Biso   1.000  Fe
  O331     1.0000 0.12249  0.85005  0.65324  Biso   1.000  O
  O332     1.0000 0.06699  0.79960  0.61018  Biso   1.000  O
  O333     1.0000 0.84922  0.70820  0.49585  Biso   1.000  O
  O334     1.0000 0.77991  0.69979  0.47149  Biso   1.000  O
  O335     1.0000 0.73173  0.80608  0.60956  Biso   1.000  O
  O336     1.0000 0.70526  0.78036  0.54683  Biso   1.000  O
  O337     1.0000 0.64493  0.76331  0.48053  Biso   1.000  O
  C1057    1.0000 0.08140  0.83140  0.63640  Biso   1.000  C
  C1058    1.0000 0.81360  0.71540  0.49710  Biso   1.000  C
  C1059    1.0000 0.73370  0.78960  0.57590  Biso   1.000  C
  O338     1.0000 0.01410  0.95570  0.72470  Biso   1.000  O
  C1060    1.0000 0.02980  0.90030  0.68960  Biso   1.000  C
  C1061    1.0000 0.06270  0.88690  0.67660  Biso   1.000  C
  H694     1.0000 0.09570  0.90540  0.68430  Biso   1.000  H
  C1062    1.0000 0.04740  0.84630  0.65230  Biso   1.000  C
  C1063    1.0000 0.99920  0.81920  0.64100  Biso   1.000  C
  H695     1.0000 0.98880  0.79150  0.62440  Biso   1.000  H
  C1064    1.0000 0.96630  0.83270  0.65410  Biso   1.000  C
  C1065    1.0000 0.98160  0.87320  0.67830  Biso   1.000  C
  H696     1.0000 0.95910  0.88240  0.68720  Biso   1.000  H
  C1066    1.0000 0.91440  0.80600  0.64030  Biso   1.000  C
  H697     1.0000 0.89330  0.79920  0.66420  Biso   1.000  H
  H698     1.0000 0.90730  0.77470  0.62860  Biso   1.000  H
  C1067    1.0000 0.90210  0.83300  0.60950  Biso   1.000  C
  H699     1.0000 0.89940  0.85870  0.62390  Biso   1.000  H
  H700     1.0000 0.92960  0.84910  0.59050  Biso   1.000  H
  C1068    1.0000 0.85680  0.80420  0.58490  Biso   1.000  C
  C1069    1.0000 0.85600  0.77500  0.55350  Biso   1.000  C
  H701     1.0000 0.88320  0.77120  0.54880  Biso   1.000  H
  C1070    1.0000 0.81550  0.75130  0.52890  Biso   1.000  C
  C1071    1.0000 0.77570  0.75680  0.53580  Biso   1.000  C
  H702     1.0000 0.74800  0.74060  0.51890  Biso   1.000  H
  C1072    1.0000 0.77620  0.78590  0.56720  Biso   1.000  C
  C1073    1.0000 0.81690  0.80960  0.59160  Biso   1.000  C
  H703     1.0000 0.81730  0.82950  0.61310  Biso   1.000  H
  O339     1.0000 0.08895  0.96300  0.72950  Biso   1.000  O
  H704     1.0000 0.09670  0.98880  0.74180  Biso   1.000  H
  C1074    1.0000 0.04980  0.94970  0.70970  Biso   1.000  C
  O340     1.0000 0.03900  0.98200  0.70110  Biso   1.000  O
  C1075    1.0000 0.03730  0.91190  0.68020  Biso   1.000  C
  C1076    1.0000 0.06500  0.89030  0.67300  Biso   1.000  C
  H705     1.0000 0.09470  0.90140  0.68690  Biso   1.000  H
  C1077    1.0000 0.04930  0.85260  0.64540  Biso   1.000  C
  C1078    1.0000 0.00580  0.83640  0.62510  Biso   1.000  C
  H706     1.0000 0.99510  0.81070  0.60620  Biso   1.000  H
  C1079    1.0000 0.97810  0.85800  0.63230  Biso   1.000  C
  C1080    1.0000 0.99390  0.89580  0.65980  Biso   1.000  C
  H707     1.0000 0.97500  0.91060  0.66480  Biso   1.000  H
  C1081    1.0000 0.93260  0.84240  0.60830  Biso   1.000  C
  H708     1.0000 0.93760  0.83430  0.58040  Biso   1.000  H
  H709     1.0000 0.92670  0.86990  0.60640  Biso   1.000  H
  C1082    1.0000 0.88820  0.79970  0.62570  Biso   1.000  C
  H710     1.0000 0.87910  0.80930  0.65120  Biso   1.000  H
  H711     1.0000 0.89560  0.77390  0.63210  Biso   1.000  H
  C1083    1.0000 0.84650  0.78060  0.59640  Biso   1.000  C
  C1084    1.0000 0.84800  0.75520  0.56290  Biso   1.000  C
  H712     1.0000 0.87310  0.74770  0.56040  Biso   1.000  H
  C1085    1.0000 0.81270  0.74050  0.53320  Biso   1.000  C
  C1086    1.0000 0.77590  0.75140  0.53690  Biso   1.000  C
  H713     1.0000 0.75180  0.74150  0.51660  Biso   1.000  H
  C1087    1.0000 0.77450  0.77710  0.57040  Biso   1.000  C
  C1088    1.0000 0.80980  0.79160  0.60010  Biso   1.000  C
  H714     1.0000 0.80880  0.80910  0.62300  Biso   1.000  H
  Co34     1.0000 0.65500  0.80000  0.53300  Biso   1.000  Co
  Fe35     1.0000 0.32387  0.13613  0.86773  Biso   1.000  Fe
  O341     1.0000 0.78916  0.18338  0.98657  Biso   1.000  O
  O342     1.0000 0.73366  0.13293  0.94351  Biso   1.000  O
  O343     1.0000 0.51589  0.04153  0.82918  Biso   1.000  O
  O344     1.0000 0.44658  0.03312  0.80482  Biso   1.000  O
  O345     1.0000 0.39840  0.13941  0.94289  Biso   1.000  O
  O346     1.0000 0.37193  0.11369  0.88016  Biso   1.000  O
  O347     1.0000 0.31160  0.09664  0.81386  Biso   1.000  O
  C1089    1.0000 0.74807  0.16473  0.96973  Biso   1.000  C
  C1090    1.0000 0.48027  0.04873  0.83043  Biso   1.000  C
  C1091    1.0000 0.40037  0.12293  0.90923  Biso   1.000  C
  O348     1.0000 0.68077  0.28903  0.05803  Biso   1.000  O
  C1092    1.0000 0.69647  0.23363  0.02293  Biso   1.000  C
  C1093    1.0000 0.72937  0.22023  0.00993  Biso   1.000  C
  H715     1.0000 0.76237  0.23873  0.01763  Biso   1.000  H
  C1094    1.0000 0.71407  0.17963  0.98563  Biso   1.000  C
  C1095    1.0000 0.66587  0.15253  0.97433  Biso   1.000  C
  H716     1.0000 0.65547  0.12483  0.95773  Biso   1.000  H
  C1096    1.0000 0.63297  0.16603  0.98743  Biso   1.000  C
  C1097    1.0000 0.64827  0.20653  0.01163  Biso   1.000  C
  H717     1.0000 0.62577  0.21573  0.02053  Biso   1.000  H
  C1098    1.0000 0.58107  0.13933  0.97363  Biso   1.000  C
  H718     1.0000 0.55997  0.13253  0.99753  Biso   1.000  H
  H719     1.0000 0.57397  0.10803  0.96193  Biso   1.000  H
  C1099    1.0000 0.56877  0.16633  0.94283  Biso   1.000  C
  H720     1.0000 0.56607  0.19203  0.95723  Biso   1.000  H
  H721     1.0000 0.59627  0.18243  0.92383  Biso   1.000  H
  C1100    1.0000 0.52347  0.13753  0.91823  Biso   1.000  C
  C1101    1.0000 0.52267  0.10833  0.88683  Biso   1.000  C
  H722     1.0000 0.54987  0.10453  0.88213  Biso   1.000  H
  C1102    1.0000 0.48217  0.08463  0.86223  Biso   1.000  C
  C1103    1.0000 0.44237  0.09013  0.86913  Biso   1.000  C
  H723     1.0000 0.41467  0.07393  0.85223  Biso   1.000  H
  C1104    1.0000 0.44287  0.11923  0.90053  Biso   1.000  C
  C1105    1.0000 0.48357  0.14293  0.92493  Biso   1.000  C
  H724     1.0000 0.48397  0.16283  0.94643  Biso   1.000  H
  O349     1.0000 0.75562  0.29633  0.06283  Biso   1.000  O
  H725     1.0000 0.76337  0.32213  0.07513  Biso   1.000  H
  C1106    1.0000 0.71647  0.28303  0.04303  Biso   1.000  C
  O350     1.0000 0.70567  0.31533  0.03443  Biso   1.000  O
  C1107    1.0000 0.70397  0.24523  0.01353  Biso   1.000  C
  C1108    1.0000 0.73167  0.22363  0.00633  Biso   1.000  C
  H726     1.0000 0.76137  0.23473  0.02023  Biso   1.000  H
  C1109    1.0000 0.71597  0.18593  0.97873  Biso   1.000  C
  C1110    1.0000 0.67247  0.16973  0.95843  Biso   1.000  C
  H727     1.0000 0.66177  0.14403  0.93953  Biso   1.000  H
  C1111    1.0000 0.64477  0.19133  0.96563  Biso   1.000  C
  C1112    1.0000 0.66057  0.22913  0.99313  Biso   1.000  C
  H728     1.0000 0.64167  0.24393  0.99813  Biso   1.000  H
  C1113    1.0000 0.59927  0.17573  0.94163  Biso   1.000  C
  H729     1.0000 0.60427  0.16763  0.91373  Biso   1.000  H
  H730     1.0000 0.59337  0.20323  0.93973  Biso   1.000  H
  C1114    1.0000 0.55487  0.13303  0.95903  Biso   1.000  C
  H731     1.0000 0.54577  0.14263  0.98453  Biso   1.000  H
  H732     1.0000 0.56227  0.10723  0.96543  Biso   1.000  H
  C1115    1.0000 0.51317  0.11393  0.92973  Biso   1.000  C
  C1116    1.0000 0.51467  0.08853  0.89623  Biso   1.000  C
  H733     1.0000 0.53977  0.08103  0.89373  Biso   1.000  H
  C1117    1.0000 0.47937  0.07383  0.86653  Biso   1.000  C
  C1118    1.0000 0.44257  0.08473  0.87023  Biso   1.000  C
  H734     1.0000 0.41847  0.07483  0.84993  Biso   1.000  H
  C1119    1.0000 0.44117  0.11043  0.90373  Biso   1.000  C
  C1120    1.0000 0.47647  0.12493  0.93343  Biso   1.000  C
  H735     1.0000 0.47547  0.14243  0.95633  Biso   1.000  H
  Co35     1.0000 0.32167  0.13333  0.86633  Biso   1.000  Co
  Fe36     1.0000 0.99053  0.46947  0.20107  Biso   1.000  Fe
  O351     1.0000 0.45582  0.51672  0.31991  Biso   1.000  O
  O352     1.0000 0.40032  0.46627  0.27685  Biso   1.000  O
  O353     1.0000 0.18255  0.37487  0.16252  Biso   1.000  O
  O354     1.0000 0.11324  0.36646  0.13816  Biso   1.000  O
  O355     1.0000 0.06506  0.47275  0.27623  Biso   1.000  O
  O356     1.0000 0.03859  0.44703  0.21350  Biso   1.000  O
  O357     1.0000 0.97826  0.42998  0.14720  Biso   1.000  O
  C1121    1.0000 0.41473  0.49807  0.30307  Biso   1.000  C
  C1122    1.0000 0.14693  0.38207  0.16377  Biso   1.000  C
  C1123    1.0000 0.06703  0.45627  0.24257  Biso   1.000  C
  O358     1.0000 0.34743  0.62237  0.39137  Biso   1.000  O
  C1124    1.0000 0.36313  0.56697  0.35627  Biso   1.000  C
  C1125    1.0000 0.39603  0.55357  0.34327  Biso   1.000  C
  H736     1.0000 0.42903  0.57207  0.35097  Biso   1.000  H
  C1126    1.0000 0.38073  0.51297  0.31897  Biso   1.000  C
  C1127    1.0000 0.33253  0.48587  0.30767  Biso   1.000  C
  H737     1.0000 0.32213  0.45817  0.29107  Biso   1.000  H
  C1128    1.0000 0.29963  0.49937  0.32077  Biso   1.000  C
  C1129    1.0000 0.31493  0.53987  0.34497  Biso   1.000  C
  H738     1.0000 0.29243  0.54907  0.35387  Biso   1.000  H
  C1130    1.0000 0.24773  0.47267  0.30697  Biso   1.000  C
  H739     1.0000 0.22663  0.46587  0.33087  Biso   1.000  H
  H740     1.0000 0.24063  0.44137  0.29527  Biso   1.000  H
  C1131    1.0000 0.23543  0.49967  0.27617  Biso   1.000  C
  H741     1.0000 0.23273  0.52537  0.29057  Biso   1.000  H
  H742     1.0000 0.26293  0.51577  0.25717  Biso   1.000  H
  C1132    1.0000 0.19013  0.47087  0.25157  Biso   1.000  C
  C1133    1.0000 0.18933  0.44167  0.22017  Biso   1.000  C
  H743     1.0000 0.21653  0.43787  0.21547  Biso   1.000  H
  C1134    1.0000 0.14883  0.41797  0.19557  Biso   1.000  C
  C1135    1.0000 0.10903  0.42347  0.20247  Biso   1.000  C
  H744     1.0000 0.08133  0.40727  0.18557  Biso   1.000  H
  C1136    1.0000 0.10953  0.45257  0.23387  Biso   1.000  C
  C1137    1.0000 0.15023  0.47627  0.25827  Biso   1.000  C
  H745     1.0000 0.15063  0.49617  0.27977  Biso   1.000  H
  O359     1.0000 0.42228  0.62967  0.39617  Biso   1.000  O
  H746     1.0000 0.43003  0.65547  0.40847  Biso   1.000  H
  C1138    1.0000 0.38313  0.61637  0.37637  Biso   1.000  C
  O360     1.0000 0.37233  0.64867  0.36777  Biso   1.000  O
  C1139    1.0000 0.37063  0.57857  0.34687  Biso   1.000  C
  C1140    1.0000 0.39833  0.55697  0.33967  Biso   1.000  C
  H747     1.0000 0.42803  0.56807  0.35357  Biso   1.000  H
  C1141    1.0000 0.38263  0.51927  0.31207  Biso   1.000  C
  C1142    1.0000 0.33913  0.50307  0.29177  Biso   1.000  C
  H748     1.0000 0.32843  0.47737  0.27287  Biso   1.000  H
  C1143    1.0000 0.31143  0.52467  0.29897  Biso   1.000  C
  C1144    1.0000 0.32723  0.56247  0.32647  Biso   1.000  C
  H749     1.0000 0.30833  0.57727  0.33147  Biso   1.000  H
  C1145    1.0000 0.26593  0.50907  0.27497  Biso   1.000  C
  H750     1.0000 0.27093  0.50097  0.24707  Biso   1.000  H
  H751     1.0000 0.26003  0.53657  0.27307  Biso   1.000  H
  C1146    1.0000 0.22153  0.46637  0.29237  Biso   1.000  C
  H752     1.0000 0.21243  0.47597  0.31787  Biso   1.000  H
  H753     1.0000 0.22893  0.44057  0.29877  Biso   1.000  H
  C1147    1.0000 0.17983  0.44727  0.26307  Biso   1.000  C
  C1148    1.0000 0.18133  0.42187  0.22957  Biso   1.000  C
  H754     1.0000 0.20643  0.41437  0.22707  Biso   1.000  H
  C1149    1.0000 0.14603  0.40717  0.19987  Biso   1.000  C
  C1150    1.0000 0.10923  0.41807  0.20357  Biso   1.000  C
  H755     1.0000 0.08513  0.40817  0.18327  Biso   1.000  H
  C1151    1.0000 0.10783  0.44377  0.23707  Biso   1.000  C
  C1152    1.0000 0.14313  0.45827  0.26677  Biso   1.000  C
  H756     1.0000 0.14213  0.47577  0.28967  Biso   1.000  H
  Co36     1.0000 0.98833  0.46667  0.19967  Biso   1.000  Co
  Fe37     1.0000 0.00000  0.00000  0.25000  Biso   1.000  Fe
  Fe38     1.0000 0.66667  0.33333  0.58333  Biso   1.000  Fe
  Fe39     1.0000 0.33333  0.66667  0.91667  Biso   1.000  Fe
  Fe40     1.0000 0.00000  0.00000  0.75000  Biso   1.000  Fe
  Fe41     1.0000 0.66667  0.33333  0.08333  Biso   1.000  Fe
  Fe42     1.0000 0.33333  0.66667  0.41667  Biso   1.000  Fe
  Fe43     1.0000 0.66667  0.76788  0.08333  Biso   1.000  Fe
  O361     1.0000 0.66667  0.82883  0.08333  Biso   1.000  O
  O362     1.0000 0.66667  0.70482  0.08333  Biso   1.000  O
  Co37     1.0000 0.66667  0.77358  0.08333  Biso   1.000  Co
  Fe44     1.0000 0.23212  0.89878  0.08333  Biso   1.000  Fe
  O363     1.0000 0.17117  0.83783  0.08333  Biso   1.000  O
  O364     1.0000 0.29518  0.96184  0.08333  Biso   1.000  O
  Co38     1.0000 0.22642  0.89308  0.08333  Biso   1.000  Co
  Fe45     1.0000 0.10122  0.33333  0.08333  Biso   1.000  Fe
  O365     1.0000 0.16217  0.33333  0.08333  Biso   1.000  O
  O366     1.0000 0.03816  0.33333  0.08333  Biso   1.000  O
  Co39     1.0000 0.10692  0.33333  0.08333  Biso   1.000  Co
  Fe46     1.0000 0.76788  0.66667  0.41667  Biso   1.000  Fe
  O367     1.0000 0.82883  0.66667  0.41667  Biso   1.000  O
  O368     1.0000 0.70482  0.66667  0.41667  Biso   1.000  O
  Co40     1.0000 0.77358  0.66667  0.41667  Biso   1.000  Co
  Fe47     1.0000 0.43455  0.00000  0.75000  Biso   1.000  Fe
  O369     1.0000 0.49550  0.00000  0.75000  Biso   1.000  O
  O370     1.0000 0.37149  0.00000  0.75000  Biso   1.000  O
  Co41     1.0000 0.44025  0.00000  0.75000  Biso   1.000  Co
  Fe48     1.0000 0.89878  0.23212  0.41667  Biso   1.000  Fe
  O371     1.0000 0.83783  0.17117  0.41667  Biso   1.000  O
  O372     1.0000 0.96184  0.29518  0.41667  Biso   1.000  O
  Co42     1.0000 0.89308  0.22642  0.41667  Biso   1.000  Co
  Fe49     1.0000 0.56545  0.56545  0.75000  Biso   1.000  Fe
  O373     1.0000 0.50450  0.50450  0.75000  Biso   1.000  O
  O374     1.0000 0.62851  0.62851  0.75000  Biso   1.000  O
  Co43     1.0000 0.55975  0.55975  0.75000  Biso   1.000  Co
  Fe50     1.0000 0.33333  0.10122  0.41667  Biso   1.000  Fe
  O375     1.0000 0.33333  0.16217  0.41667  Biso   1.000  O
  O376     1.0000 0.33333  0.03816  0.41667  Biso   1.000  O
  Co44     1.0000 0.33333  0.10692  0.41667  Biso   1.000  Co
  Fe51     1.0000 0.00000  0.43455  0.75000  Biso   1.000  Fe
  O377     1.0000 0.00000  0.49550  0.75000  Biso   1.000  O
  O378     1.0000 0.00000  0.37149  0.75000  Biso   1.000  O
  Co45     1.0000 0.00000  0.44025  0.75000  Biso   1.000  Co
  Fe52     1.0000 0.33333  0.23212  0.91667  Biso   1.000  Fe
  O379     1.0000 0.33333  0.17117  0.91667  Biso   1.000  O
  O380     1.0000 0.33333  0.29518  0.91667  Biso   1.000  O
  Co46     1.0000 0.33333  0.22642  0.91667  Biso   1.000  Co
  Fe53     1.0000 0.00000  0.56545  0.25000  Biso   1.000  Fe
  O381     1.0000 0.00000  0.50450  0.25000  Biso   1.000  O
  O382     1.0000 0.00000  0.62851  0.25000  Biso   1.000  O
  Co47     1.0000 0.00000  0.55975  0.25000  Biso   1.000  Co
  Fe54     1.0000 0.76788  0.10122  0.91667  Biso   1.000  Fe
  O383     1.0000 0.82883  0.16217  0.91667  Biso   1.000  O
  O384     1.0000 0.70482  0.03816  0.91667  Biso   1.000  O
  Co48     1.0000 0.77358  0.10692  0.91667  Biso   1.000  Co
  Fe55     1.0000 0.43455  0.43455  0.25000  Biso   1.000  Fe
  O385     1.0000 0.49550  0.49550  0.25000  Biso   1.000  O
  O386     1.0000 0.37149  0.37149  0.25000  Biso   1.000  O
  Co49     1.0000 0.44025  0.44025  0.25000  Biso   1.000  Co
  Fe56     1.0000 0.89878  0.66667  0.91667  Biso   1.000  Fe
  O387     1.0000 0.83783  0.66667  0.91667  Biso   1.000  O
  O388     1.0000 0.96184  0.66667  0.91667  Biso   1.000  O
  Co50     1.0000 0.89308  0.66667  0.91667  Biso   1.000  Co
  Fe57     1.0000 0.56545  0.00000  0.25000  Biso   1.000  Fe
  O389     1.0000 0.50450  0.00000  0.25000  Biso   1.000  O
  O390     1.0000 0.62851  0.00000  0.25000  Biso   1.000  O
  Co51     1.0000 0.55975  0.00000  0.25000  Biso   1.000  Co
  Fe58     1.0000 0.23212  0.33333  0.58333  Biso   1.000  Fe
  O391     1.0000 0.17117  0.33333  0.58333  Biso   1.000  O
  O392     1.0000 0.29518  0.33333  0.58333  Biso   1.000  O
  Co52     1.0000 0.22642  0.33333  0.58333  Biso   1.000  Co
  Fe59     1.0000 0.10122  0.76788  0.58333  Biso   1.000  Fe
  O393     1.0000 0.16217  0.82883  0.58333  Biso   1.000  O
  O394     1.0000 0.03816  0.70482  0.58333  Biso   1.000  O
  Co53     1.0000 0.10692  0.77358  0.58333  Biso   1.000  Co
  Fe60     1.0000 0.66667  0.89878  0.58333  Biso   1.000  Fe
  O395     1.0000 0.66667  0.83783  0.58333  Biso   1.000  O
  O396     1.0000 0.66667  0.96184  0.58333  Biso   1.000  O
  Co54     1.0000 0.66667  0.89308  0.58333  Biso   1.000  Co
