data_image0
_cell_length_a       11.519
_cell_length_b       33.385
_cell_length_c       38.702
_cell_angle_alpha    90
_cell_angle_beta     90
_cell_angle_gamma    90

_symmetry_space_group_name_H-M    "P 1"
_symmetry_int_tables_number       1

loop_
  _symmetry_equiv_pos_as_xyz
  'x, y, z'

loop_
  _atom_site_label
  _atom_site_occupancy
  _atom_site_fract_x
  _atom_site_fract_y
  _atom_site_fract_z
  _atom_site_thermal_displace_type
  _atom_site_B_iso_or_equiv
  _atom_site_type_symbol
  O1       1.0000 0.65690  0.33622  0.21238  Biso   1.000  O
  O2       1.0000 0.62140  0.40208  0.21209  Biso   1.000  O
  O3       1.0000 0.60560  0.56552  0.78657  Biso   1.000  O
  C1       1.0000 0.05810  0.43995  0.95220  Biso   1.000  C
  C2       1.0000 0.12680  0.41460  0.97930  Biso   1.000  C
  C3       1.0000 0.71450  0.40895  0.14665  Biso   1.000  C
  H1       1.0000 0.66210  0.42930  0.15390  Biso   1.000  H
  C4       1.0000 0.94280  0.44937  0.95522  Biso   1.000  C
  H2       1.0000 0.90110  0.44180  0.97540  Biso   1.000  H
  C5       1.0000 0.05850  0.47170  0.89600  Biso   1.000  C
  H3       1.0000 0.09910  0.47860  0.87550  Biso   1.000  H
  C6       1.0000 0.66460  0.37109  0.19971  Biso   1.000  C
  C7       1.0000 0.94390  0.42981  0.06065  Biso   1.000  C
  H4       1.0000 0.91670  0.45190  0.07380  Biso   1.000  H
  C8       1.0000 0.94310  0.48226  0.89919  Biso   1.000  C
  O4       1.0000 0.46290  0.21483  0.78804  Biso   1.000  O
  C9       1.0000 0.11650  0.45131  0.92197  Biso   1.000  C
  H5       1.0000 0.19640  0.44500  0.91930  Biso   1.000  H
  C10      1.0000 0.73120  0.37559  0.16692  Biso   1.000  C
  C11      1.0000 0.88600  0.47021  0.92866  Biso   1.000  C
  H6       1.0000 0.80570  0.47620  0.93110  Biso   1.000  H
  C12      1.0000 0.22810  0.43884  0.99561  Biso   1.000  C
  C13      1.0000 0.16890  0.37788  0.95934  Biso   1.000  C
  C14      1.0000 0.38920  0.48270  0.03633  Biso   1.000  C
  C15      1.0000 0.04910  0.40421  0.01072  Biso   1.000  C
  C16      1.0000 0.33200  0.49986  0.00787  Biso   1.000  C
  H7       1.0000 0.34880  0.52680  0.00180  Biso   1.000  H
  C17      1.0000 0.36310  0.21178  0.79953  Biso   1.000  C
  C18      1.0000 0.76360  0.55127  0.82239  Biso   1.000  C
  C19      1.0000 0.88070  0.50481  0.87195  Biso   1.000  C
  C20      1.0000 0.23690  0.31747  0.91194  Biso   1.000  C
  C21      1.0000 0.25230  0.47877  0.98847  Biso   1.000  C
  H8       1.0000 0.21330  0.49170  0.96990  Biso   1.000  H
  C22      1.0000 0.76470  0.49912  0.86499  Biso   1.000  C
  H9       1.0000 0.72330  0.47910  0.87740  Biso   1.000  H
  C23      1.0000 0.00780  0.43684  0.03070  Biso   1.000  C
  H10      1.0000 0.02380  0.46350  0.02370  Biso   1.000  H
  O5       1.0000 0.28640  0.18926  0.78807  Biso   1.000  O
  O6       1.0000 0.75490  0.60695  0.78593  Biso   1.000  O
  C24      1.0000 0.33040  0.23747  0.83008  Biso   1.000  C
  C25      1.0000 0.85340  0.38423  0.10400  Biso   1.000  C
  C26      1.0000 0.27120  0.28843  0.88498  Biso   1.000  C
  C27      1.0000 0.91870  0.39054  0.07192  Biso   1.000  C
  C28      1.0000 0.45970  0.50608  0.06061  Biso   1.000  C
  C29      1.0000 0.43910  0.54813  0.06569  Biso   1.000  C
  H11      1.0000 0.38620  0.56190  0.05110  Biso   1.000  H
  C30      1.0000 0.70640  0.52184  0.84032  Biso   1.000  C
  H12      1.0000 0.62660  0.51690  0.83590  Biso   1.000  H
  C31      1.0000 0.93930  0.53470  0.85291  Biso   1.000  C
  H13      1.0000 0.01990  0.53890  0.85650  Biso   1.000  H
  C32      1.0000 0.77410  0.41303  0.11556  Biso   1.000  C
  H14      1.0000 0.76050  0.43610  0.10170  Biso   1.000  H
  C33      1.0000 0.88080  0.55775  0.82921  Biso   1.000  C
  H15      1.0000 0.92090  0.57840  0.81730  Biso   1.000  H
  C34      1.0000 0.28440  0.37055  0.95205  Biso   1.000  C
  H16      1.0000 0.34260  0.38590  0.96330  Biso   1.000  H
  C35      1.0000 0.02880  0.36684  0.02277  Biso   1.000  C
  H17      1.0000 0.05920  0.34480  0.01020  Biso   1.000  H
  C36      1.0000 0.70310  0.57664  0.79663  Biso   1.000  C
  C37      1.0000 0.96550  0.35910  0.05262  Biso   1.000  C
  H18      1.0000 0.95410  0.33220  0.05990  Biso   1.000  H
  C38      1.0000 0.08900  0.35309  0.94435  Biso   1.000  C
  H19      1.0000 0.00940  0.35650  0.95010  Biso   1.000  H
  C39      1.0000 0.37010  0.44198  0.04180  Biso   1.000  C
  H20      1.0000 0.41200  0.42880  0.05960  Biso   1.000  H
  C40      1.0000 0.11920  0.32290  0.92098  Biso   1.000  C
  H21      1.0000 0.06100  0.30620  0.91130  Biso   1.000  H
  C41      1.0000 0.29230  0.42015  0.02224  Biso   1.000  C
  H22      1.0000 0.28180  0.39240  0.02670  Biso   1.000  H
  C42      1.0000 0.87000  0.35047  0.12469  Biso   1.000  C
  H23      1.0000 0.92360  0.33030  0.11780  Biso   1.000  H
  C43      1.0000 0.49520  0.56826  0.09140  Biso   1.000  C
  H24      1.0000 0.47850  0.59580  0.09500  Biso   1.000  H
  C44      1.0000 0.54590  0.48824  0.08206  Biso   1.000  C
  H25      1.0000 0.56700  0.46110  0.07840  Biso   1.000  H
  C45      1.0000 0.59860  0.50936  0.10770  Biso   1.000  C
  H26      1.0000 0.65190  0.49620  0.12260  Biso   1.000  H
  C46      1.0000 0.31740  0.34095  0.92838  Biso   1.000  C
  H27      1.0000 0.39740  0.33700  0.92360  Biso   1.000  H
  C47      1.0000 0.63780  0.57250  0.14132  Biso   1.000  C
  C48      1.0000 0.40190  0.26825  0.83925  Biso   1.000  C
  H28      1.0000 0.47190  0.27250  0.82680  Biso   1.000  H
  C49      1.0000 0.22890  0.23190  0.84800  Biso   1.000  C
  H29      1.0000 0.17830  0.21060  0.84180  Biso   1.000  H
  O7       1.0000 0.71650  0.55430  0.15811  Biso   1.000  O
  C50      1.0000 0.57580  0.54951  0.11234  Biso   1.000  C
  C51      1.0000 0.80800  0.34626  0.15545  Biso   1.000  C
  H30      1.0000 0.81850  0.32280  0.16890  Biso   1.000  H
  O8       1.0000 0.59190  0.60803  0.14865  Biso   1.000  O
  C52      1.0000 0.19990  0.25716  0.87497  Biso   1.000  C
  H31      1.0000 0.12900  0.25290  0.88700  Biso   1.000  H
  C53      1.0000 0.37320  0.29397  0.86703  Biso   1.000  C
  H32      1.0000 0.42440  0.31510  0.87330  Biso   1.000  H
  O9       1.0000 0.34310  0.66378  0.71238  Biso   1.000  O
  O10      1.0000 0.37860  0.59792  0.71209  Biso   1.000  O
  O11      1.0000 0.39440  0.43448  0.28657  Biso   1.000  O
  C54      1.0000 0.94190  0.56005  0.45220  Biso   1.000  C
  C55      1.0000 0.87320  0.58540  0.47930  Biso   1.000  C
  C56      1.0000 0.28550  0.59105  0.64665  Biso   1.000  C
  H33      1.0000 0.33790  0.57070  0.65390  Biso   1.000  H
  C57      1.0000 0.05720  0.55063  0.45522  Biso   1.000  C
  H34      1.0000 0.09890  0.55820  0.47540  Biso   1.000  H
  C58      1.0000 0.94150  0.52830  0.39600  Biso   1.000  C
  H35      1.0000 0.90090  0.52140  0.37550  Biso   1.000  H
  C59      1.0000 0.33540  0.62891  0.69971  Biso   1.000  C
  C60      1.0000 0.05610  0.57019  0.56065  Biso   1.000  C
  H36      1.0000 0.08330  0.54810  0.57380  Biso   1.000  H
  C61      1.0000 0.05690  0.51774  0.39919  Biso   1.000  C
  O12      1.0000 0.53710  0.78517  0.28804  Biso   1.000  O
  C62      1.0000 0.88350  0.54869  0.42197  Biso   1.000  C
  H37      1.0000 0.80360  0.55500  0.41930  Biso   1.000  H
  C63      1.0000 0.26880  0.62441  0.66692  Biso   1.000  C
  C64      1.0000 0.11400  0.52979  0.42866  Biso   1.000  C
  H38      1.0000 0.19430  0.52380  0.43110  Biso   1.000  H
  C65      1.0000 0.77190  0.56116  0.49561  Biso   1.000  C
  C66      1.0000 0.83110  0.62212  0.45934  Biso   1.000  C
  C67      1.0000 0.61080  0.51730  0.53633  Biso   1.000  C
  C68      1.0000 0.95090  0.59579  0.51072  Biso   1.000  C
  C69      1.0000 0.66800  0.50014  0.50787  Biso   1.000  C
  H39      1.0000 0.65120  0.47320  0.50180  Biso   1.000  H
  C70      1.0000 0.63690  0.78822  0.29953  Biso   1.000  C
  C71      1.0000 0.23640  0.44873  0.32239  Biso   1.000  C
  C72      1.0000 0.11930  0.49519  0.37195  Biso   1.000  C
  C73      1.0000 0.76310  0.68253  0.41194  Biso   1.000  C
  C74      1.0000 0.74770  0.52123  0.48847  Biso   1.000  C
  H40      1.0000 0.78670  0.50830  0.46990  Biso   1.000  H
  C75      1.0000 0.23530  0.50088  0.36499  Biso   1.000  C
  H41      1.0000 0.27670  0.52090  0.37740  Biso   1.000  H
  C76      1.0000 0.99220  0.56316  0.53070  Biso   1.000  C
  H42      1.0000 0.97620  0.53650  0.52370  Biso   1.000  H
  O13      1.0000 0.71360  0.81074  0.28807  Biso   1.000  O
  O14      1.0000 0.24510  0.39305  0.28593  Biso   1.000  O
  C77      1.0000 0.66960  0.76253  0.33008  Biso   1.000  C
  C78      1.0000 0.14660  0.61577  0.60400  Biso   1.000  C
  C79      1.0000 0.72880  0.71157  0.38498  Biso   1.000  C
  C80      1.0000 0.08130  0.60946  0.57192  Biso   1.000  C
  C81      1.0000 0.54030  0.49392  0.56061  Biso   1.000  C
  C82      1.0000 0.56090  0.45187  0.56569  Biso   1.000  C
  H43      1.0000 0.61380  0.43810  0.55110  Biso   1.000  H
  C83      1.0000 0.29360  0.47816  0.34032  Biso   1.000  C
  H44      1.0000 0.37340  0.48310  0.33590  Biso   1.000  H
  C84      1.0000 0.06070  0.46530  0.35291  Biso   1.000  C
  H45      1.0000 0.98010  0.46110  0.35650  Biso   1.000  H
  C85      1.0000 0.22590  0.58697  0.61556  Biso   1.000  C
  H46      1.0000 0.23950  0.56390  0.60170  Biso   1.000  H
  C86      1.0000 0.11920  0.44225  0.32921  Biso   1.000  C
  H47      1.0000 0.07910  0.42160  0.31730  Biso   1.000  H
  C87      1.0000 0.71560  0.62945  0.45205  Biso   1.000  C
  H48      1.0000 0.65740  0.61410  0.46330  Biso   1.000  H
  C88      1.0000 0.97120  0.63316  0.52277  Biso   1.000  C
  H49      1.0000 0.94080  0.65520  0.51020  Biso   1.000  H
  C89      1.0000 0.29690  0.42336  0.29663  Biso   1.000  C
  C90      1.0000 0.03450  0.64090  0.55262  Biso   1.000  C
  H50      1.0000 0.04590  0.66780  0.55990  Biso   1.000  H
  C91      1.0000 0.91100  0.64691  0.44435  Biso   1.000  C
  H51      1.0000 0.99060  0.64350  0.45010  Biso   1.000  H
  C92      1.0000 0.62990  0.55802  0.54180  Biso   1.000  C
  H52      1.0000 0.58800  0.57120  0.55960  Biso   1.000  H
  C93      1.0000 0.88080  0.67710  0.42098  Biso   1.000  C
  H53      1.0000 0.93900  0.69380  0.41130  Biso   1.000  H
  C94      1.0000 0.70770  0.57985  0.52224  Biso   1.000  C
  H54      1.0000 0.71820  0.60760  0.52670  Biso   1.000  H
  C95      1.0000 0.13000  0.64953  0.62469  Biso   1.000  C
  H55      1.0000 0.07640  0.66970  0.61780  Biso   1.000  H
  C96      1.0000 0.50480  0.43174  0.59140  Biso   1.000  C
  H56      1.0000 0.52150  0.40420  0.59500  Biso   1.000  H
  C97      1.0000 0.45410  0.51176  0.58206  Biso   1.000  C
  H57      1.0000 0.43300  0.53890  0.57840  Biso   1.000  H
  C98      1.0000 0.40140  0.49064  0.60770  Biso   1.000  C
  H58      1.0000 0.34810  0.50380  0.62260  Biso   1.000  H
  C99      1.0000 0.68260  0.65905  0.42838  Biso   1.000  C
  H59      1.0000 0.60260  0.66300  0.42360  Biso   1.000  H
  C100     1.0000 0.36220  0.42750  0.64132  Biso   1.000  C
  C101     1.0000 0.59810  0.73175  0.33925  Biso   1.000  C
  H60      1.0000 0.52810  0.72750  0.32680  Biso   1.000  H
  C102     1.0000 0.77110  0.76810  0.34800  Biso   1.000  C
  H61      1.0000 0.82170  0.78940  0.34180  Biso   1.000  H
  O15      1.0000 0.28350  0.44570  0.65811  Biso   1.000  O
  C103     1.0000 0.42420  0.45049  0.61234  Biso   1.000  C
  C104     1.0000 0.19200  0.65374  0.65545  Biso   1.000  C
  H62      1.0000 0.18150  0.67720  0.66890  Biso   1.000  H
  O16      1.0000 0.40810  0.39197  0.64865  Biso   1.000  O
  C105     1.0000 0.80010  0.74284  0.37497  Biso   1.000  C
  H63      1.0000 0.87100  0.74710  0.38700  Biso   1.000  H
  C106     1.0000 0.62680  0.70603  0.36703  Biso   1.000  C
  H64      1.0000 0.57560  0.68490  0.37330  Biso   1.000  H
  O17      1.0000 0.34310  0.83622  0.28762  Biso   1.000  O
  O18      1.0000 0.37860  0.90208  0.28791  Biso   1.000  O
  O19      1.0000 0.39440  0.06552  0.71343  Biso   1.000  O
  C107     1.0000 0.94190  0.93995  0.54780  Biso   1.000  C
  C108     1.0000 0.87320  0.91460  0.52070  Biso   1.000  C
  C109     1.0000 0.28550  0.90895  0.35335  Biso   1.000  C
  H65      1.0000 0.33790  0.92930  0.34610  Biso   1.000  H
  C110     1.0000 0.05720  0.94937  0.54478  Biso   1.000  C
  H66      1.0000 0.09890  0.94180  0.52460  Biso   1.000  H
  C111     1.0000 0.94150  0.97170  0.60400  Biso   1.000  C
  H67      1.0000 0.90090  0.97860  0.62450  Biso   1.000  H
  C112     1.0000 0.33540  0.87109  0.30029  Biso   1.000  C
  C113     1.0000 0.05610  0.92981  0.43935  Biso   1.000  C
  H68      1.0000 0.08330  0.95190  0.42620  Biso   1.000  H
  C114     1.0000 0.05690  0.98226  0.60081  Biso   1.000  C
  O20      1.0000 0.53710  0.71483  0.71196  Biso   1.000  O
  C115     1.0000 0.88350  0.95131  0.57803  Biso   1.000  C
  H69      1.0000 0.80360  0.94500  0.58070  Biso   1.000  H
  C116     1.0000 0.26880  0.87559  0.33308  Biso   1.000  C
  C117     1.0000 0.11400  0.97021  0.57134  Biso   1.000  C
  H70      1.0000 0.19430  0.97620  0.56890  Biso   1.000  H
  C118     1.0000 0.77190  0.93884  0.50439  Biso   1.000  C
  C119     1.0000 0.83110  0.87788  0.54066  Biso   1.000  C
  C120     1.0000 0.61080  0.98270  0.46367  Biso   1.000  C
  C121     1.0000 0.95090  0.90421  0.48928  Biso   1.000  C
  C122     1.0000 0.66800  0.99986  0.49213  Biso   1.000  C
  H71      1.0000 0.65120  0.02680  0.49820  Biso   1.000  H
  C123     1.0000 0.63690  0.71178  0.70047  Biso   1.000  C
  C124     1.0000 0.23640  0.05127  0.67761  Biso   1.000  C
  C125     1.0000 0.11930  0.00481  0.62805  Biso   1.000  C
  C126     1.0000 0.76310  0.81747  0.58806  Biso   1.000  C
  C127     1.0000 0.74770  0.97877  0.51153  Biso   1.000  C
  H72      1.0000 0.78670  0.99170  0.53010  Biso   1.000  H
  C128     1.0000 0.23530  0.99912  0.63501  Biso   1.000  C
  H73      1.0000 0.27670  0.97910  0.62260  Biso   1.000  H
  C129     1.0000 0.99220  0.93684  0.46930  Biso   1.000  C
  H74      1.0000 0.97620  0.96350  0.47630  Biso   1.000  H
  O21      1.0000 0.71360  0.68926  0.71193  Biso   1.000  O
  O22      1.0000 0.24510  0.10695  0.71407  Biso   1.000  O
  C130     1.0000 0.66960  0.73747  0.66992  Biso   1.000  C
  C131     1.0000 0.14660  0.88423  0.39600  Biso   1.000  C
  C132     1.0000 0.72880  0.78843  0.61502  Biso   1.000  C
  C133     1.0000 0.08130  0.89054  0.42808  Biso   1.000  C
  C134     1.0000 0.54030  0.00608  0.43939  Biso   1.000  C
  C135     1.0000 0.56090  0.04813  0.43431  Biso   1.000  C
  H75      1.0000 0.61380  0.06190  0.44890  Biso   1.000  H
  C136     1.0000 0.29360  0.02184  0.65968  Biso   1.000  C
  H76      1.0000 0.37340  0.01690  0.66410  Biso   1.000  H
  C137     1.0000 0.06070  0.03470  0.64709  Biso   1.000  C
  H77      1.0000 0.98010  0.03890  0.64350  Biso   1.000  H
  C138     1.0000 0.22590  0.91303  0.38444  Biso   1.000  C
  H78      1.0000 0.23950  0.93610  0.39830  Biso   1.000  H
  C139     1.0000 0.11920  0.05775  0.67079  Biso   1.000  C
  H79      1.0000 0.07910  0.07840  0.68270  Biso   1.000  H
  C140     1.0000 0.71560  0.87055  0.54795  Biso   1.000  C
  H80      1.0000 0.65740  0.88590  0.53670  Biso   1.000  H
  C141     1.0000 0.97120  0.86684  0.47723  Biso   1.000  C
  H81      1.0000 0.94080  0.84480  0.48980  Biso   1.000  H
  C142     1.0000 0.29690  0.07664  0.70337  Biso   1.000  C
  C143     1.0000 0.03450  0.85910  0.44738  Biso   1.000  C
  H82      1.0000 0.04590  0.83220  0.44010  Biso   1.000  H
  C144     1.0000 0.91100  0.85309  0.55565  Biso   1.000  C
  H83      1.0000 0.99060  0.85650  0.54990  Biso   1.000  H
  C145     1.0000 0.62990  0.94198  0.45820  Biso   1.000  C
  H84      1.0000 0.58800  0.92880  0.44040  Biso   1.000  H
  C146     1.0000 0.88080  0.82290  0.57902  Biso   1.000  C
  H85      1.0000 0.93900  0.80620  0.58870  Biso   1.000  H
  C147     1.0000 0.70770  0.92015  0.47776  Biso   1.000  C
  H86      1.0000 0.71820  0.89240  0.47330  Biso   1.000  H
  C148     1.0000 0.13000  0.85047  0.37531  Biso   1.000  C
  H87      1.0000 0.07640  0.83030  0.38220  Biso   1.000  H
  C149     1.0000 0.50480  0.06826  0.40860  Biso   1.000  C
  H88      1.0000 0.52150  0.09580  0.40500  Biso   1.000  H
  C150     1.0000 0.45410  0.98824  0.41794  Biso   1.000  C
  H89      1.0000 0.43300  0.96110  0.42160  Biso   1.000  H
  C151     1.0000 0.40140  0.00936  0.39230  Biso   1.000  C
  H90      1.0000 0.34810  0.99620  0.37740  Biso   1.000  H
  C152     1.0000 0.68260  0.84095  0.57162  Biso   1.000  C
  H91      1.0000 0.60260  0.83700  0.57640  Biso   1.000  H
  C153     1.0000 0.36220  0.07250  0.35868  Biso   1.000  C
  C154     1.0000 0.59810  0.76825  0.66075  Biso   1.000  C
  H92      1.0000 0.52810  0.77250  0.67320  Biso   1.000  H
  C155     1.0000 0.77110  0.73190  0.65200  Biso   1.000  C
  H93      1.0000 0.82170  0.71060  0.65820  Biso   1.000  H
  O23      1.0000 0.28350  0.05430  0.34189  Biso   1.000  O
  C156     1.0000 0.42420  0.04951  0.38766  Biso   1.000  C
  C157     1.0000 0.19200  0.84626  0.34455  Biso   1.000  C
  H94      1.0000 0.18150  0.82280  0.33110  Biso   1.000  H
  O24      1.0000 0.40810  0.10803  0.35135  Biso   1.000  O
  C158     1.0000 0.80010  0.75716  0.62503  Biso   1.000  C
  H95      1.0000 0.87100  0.75290  0.61300  Biso   1.000  H
  C159     1.0000 0.62680  0.79397  0.63297  Biso   1.000  C
  H96      1.0000 0.57560  0.81510  0.62670  Biso   1.000  H
  O25      1.0000 0.65690  0.16378  0.78762  Biso   1.000  O
  O26      1.0000 0.62140  0.09792  0.78791  Biso   1.000  O
  O27      1.0000 0.60560  0.93448  0.21343  Biso   1.000  O
  C160     1.0000 0.05810  0.06005  0.04780  Biso   1.000  C
  C161     1.0000 0.12680  0.08540  0.02070  Biso   1.000  C
  C162     1.0000 0.71450  0.09105  0.85335  Biso   1.000  C
  H97      1.0000 0.66210  0.07070  0.84610  Biso   1.000  H
  C163     1.0000 0.94280  0.05063  0.04478  Biso   1.000  C
  H98      1.0000 0.90110  0.05820  0.02460  Biso   1.000  H
  C164     1.0000 0.05850  0.02830  0.10400  Biso   1.000  C
  H99      1.0000 0.09910  0.02140  0.12450  Biso   1.000  H
  C165     1.0000 0.66460  0.12891  0.80029  Biso   1.000  C
  C166     1.0000 0.94390  0.07019  0.93935  Biso   1.000  C
  H100     1.0000 0.91670  0.04810  0.92620  Biso   1.000  H
  C167     1.0000 0.94310  0.01774  0.10081  Biso   1.000  C
  O28      1.0000 0.46290  0.28517  0.21196  Biso   1.000  O
  C168     1.0000 0.11650  0.04869  0.07803  Biso   1.000  C
  H101     1.0000 0.19640  0.05500  0.08070  Biso   1.000  H
  C169     1.0000 0.73120  0.12441  0.83308  Biso   1.000  C
  C170     1.0000 0.88600  0.02979  0.07134  Biso   1.000  C
  H102     1.0000 0.80570  0.02380  0.06890  Biso   1.000  H
  C171     1.0000 0.22810  0.06116  0.00439  Biso   1.000  C
  C172     1.0000 0.16890  0.12212  0.04066  Biso   1.000  C
  C173     1.0000 0.38920  0.01730  0.96367  Biso   1.000  C
  C174     1.0000 0.04910  0.09579  0.98928  Biso   1.000  C
  C175     1.0000 0.33200  0.00014  0.99213  Biso   1.000  C
  H103     1.0000 0.34880  0.97320  0.99820  Biso   1.000  H
  C176     1.0000 0.36310  0.28822  0.20047  Biso   1.000  C
  C177     1.0000 0.76360  0.94873  0.17761  Biso   1.000  C
  C178     1.0000 0.88070  0.99519  0.12805  Biso   1.000  C
  C179     1.0000 0.23690  0.18253  0.08806  Biso   1.000  C
  C180     1.0000 0.25230  0.02123  0.01153  Biso   1.000  C
  H104     1.0000 0.21330  0.00830  0.03010  Biso   1.000  H
  C181     1.0000 0.76470  0.00088  0.13501  Biso   1.000  C
  H105     1.0000 0.72330  0.02090  0.12260  Biso   1.000  H
  C182     1.0000 0.00780  0.06316  0.96930  Biso   1.000  C
  H106     1.0000 0.02380  0.03650  0.97630  Biso   1.000  H
  O29      1.0000 0.28640  0.31074  0.21193  Biso   1.000  O
  O30      1.0000 0.75490  0.89305  0.21407  Biso   1.000  O
  C183     1.0000 0.33040  0.26253  0.16992  Biso   1.000  C
  C184     1.0000 0.85340  0.11577  0.89600  Biso   1.000  C
  C185     1.0000 0.27120  0.21157  0.11502  Biso   1.000  C
  C186     1.0000 0.91870  0.10946  0.92808  Biso   1.000  C
  C187     1.0000 0.45970  0.99392  0.93939  Biso   1.000  C
  C188     1.0000 0.43910  0.95187  0.93431  Biso   1.000  C
  H107     1.0000 0.38620  0.93810  0.94890  Biso   1.000  H
  C189     1.0000 0.70640  0.97816  0.15968  Biso   1.000  C
  H108     1.0000 0.62660  0.98310  0.16410  Biso   1.000  H
  C190     1.0000 0.93930  0.96530  0.14709  Biso   1.000  C
  H109     1.0000 0.01990  0.96110  0.14350  Biso   1.000  H
  C191     1.0000 0.77410  0.08697  0.88444  Biso   1.000  C
  H110     1.0000 0.76050  0.06390  0.89830  Biso   1.000  H
  C192     1.0000 0.88080  0.94225  0.17079  Biso   1.000  C
  H111     1.0000 0.92090  0.92160  0.18270  Biso   1.000  H
  C193     1.0000 0.28440  0.12945  0.04795  Biso   1.000  C
  H112     1.0000 0.34260  0.11410  0.03670  Biso   1.000  H
  C194     1.0000 0.02880  0.13316  0.97723  Biso   1.000  C
  H113     1.0000 0.05920  0.15520  0.98980  Biso   1.000  H
  C195     1.0000 0.70310  0.92336  0.20337  Biso   1.000  C
  C196     1.0000 0.96550  0.14090  0.94738  Biso   1.000  C
  H114     1.0000 0.95410  0.16780  0.94010  Biso   1.000  H
  C197     1.0000 0.08900  0.14691  0.05565  Biso   1.000  C
  H115     1.0000 0.00940  0.14350  0.04990  Biso   1.000  H
  C198     1.0000 0.37010  0.05802  0.95820  Biso   1.000  C
  H116     1.0000 0.41200  0.07120  0.94040  Biso   1.000  H
  C199     1.0000 0.11920  0.17710  0.07902  Biso   1.000  C
  H117     1.0000 0.06100  0.19380  0.08870  Biso   1.000  H
  C200     1.0000 0.29230  0.07985  0.97776  Biso   1.000  C
  H118     1.0000 0.28180  0.10760  0.97330  Biso   1.000  H
  C201     1.0000 0.87000  0.14953  0.87531  Biso   1.000  C
  H119     1.0000 0.92360  0.16970  0.88220  Biso   1.000  H
  C202     1.0000 0.49520  0.93174  0.90860  Biso   1.000  C
  H120     1.0000 0.47850  0.90420  0.90500  Biso   1.000  H
  C203     1.0000 0.54590  0.01176  0.91794  Biso   1.000  C
  H121     1.0000 0.56700  0.03890  0.92160  Biso   1.000  H
  C204     1.0000 0.59860  0.99064  0.89230  Biso   1.000  C
  H122     1.0000 0.65190  0.00380  0.87740  Biso   1.000  H
  C205     1.0000 0.31740  0.15905  0.07162  Biso   1.000  C
  H123     1.0000 0.39740  0.16300  0.07640  Biso   1.000  H
  C206     1.0000 0.63780  0.92750  0.85868  Biso   1.000  C
  C207     1.0000 0.40190  0.23175  0.16075  Biso   1.000  C
  H124     1.0000 0.47190  0.22750  0.17320  Biso   1.000  H
  C208     1.0000 0.22890  0.26810  0.15200  Biso   1.000  C
  H125     1.0000 0.17830  0.28940  0.15820  Biso   1.000  H
  O31      1.0000 0.71650  0.94570  0.84189  Biso   1.000  O
  C209     1.0000 0.57580  0.95049  0.88766  Biso   1.000  C
  C210     1.0000 0.80800  0.15374  0.84455  Biso   1.000  C
  H126     1.0000 0.81850  0.17720  0.83110  Biso   1.000  H
  O32      1.0000 0.59190  0.89197  0.85135  Biso   1.000  O
  C211     1.0000 0.19990  0.24284  0.12503  Biso   1.000  C
  H127     1.0000 0.12900  0.24710  0.11300  Biso   1.000  H
  C212     1.0000 0.37320  0.20603  0.13297  Biso   1.000  C
  H128     1.0000 0.42440  0.18490  0.12670  Biso   1.000  H
  O33      1.0000 0.34310  0.66378  0.78762  Biso   1.000  O
  O34      1.0000 0.37860  0.59792  0.78791  Biso   1.000  O
  O35      1.0000 0.39440  0.43448  0.21343  Biso   1.000  O
  C213     1.0000 0.94190  0.56005  0.04780  Biso   1.000  C
  C214     1.0000 0.87320  0.58540  0.02070  Biso   1.000  C
  C215     1.0000 0.28550  0.59105  0.85335  Biso   1.000  C
  H129     1.0000 0.33790  0.57070  0.84610  Biso   1.000  H
  C216     1.0000 0.05720  0.55063  0.04478  Biso   1.000  C
  H130     1.0000 0.09890  0.55820  0.02460  Biso   1.000  H
  C217     1.0000 0.94150  0.52830  0.10400  Biso   1.000  C
  H131     1.0000 0.90090  0.52140  0.12450  Biso   1.000  H
  C218     1.0000 0.33540  0.62891  0.80029  Biso   1.000  C
  C219     1.0000 0.05610  0.57019  0.93935  Biso   1.000  C
  H132     1.0000 0.08330  0.54810  0.92620  Biso   1.000  H
  C220     1.0000 0.05690  0.51774  0.10081  Biso   1.000  C
  O36      1.0000 0.53710  0.78517  0.21196  Biso   1.000  O
  C221     1.0000 0.88350  0.54869  0.07803  Biso   1.000  C
  H133     1.0000 0.80360  0.55500  0.08070  Biso   1.000  H
  C222     1.0000 0.26880  0.62441  0.83308  Biso   1.000  C
  C223     1.0000 0.11400  0.52979  0.07134  Biso   1.000  C
  H134     1.0000 0.19430  0.52380  0.06890  Biso   1.000  H
  C224     1.0000 0.77190  0.56116  0.00439  Biso   1.000  C
  C225     1.0000 0.83110  0.62212  0.04066  Biso   1.000  C
  C226     1.0000 0.61080  0.51730  0.96367  Biso   1.000  C
  C227     1.0000 0.95090  0.59579  0.98928  Biso   1.000  C
  C228     1.0000 0.66800  0.50014  0.99213  Biso   1.000  C
  H135     1.0000 0.65120  0.47320  0.99820  Biso   1.000  H
  C229     1.0000 0.63690  0.78822  0.20047  Biso   1.000  C
  C230     1.0000 0.23640  0.44873  0.17761  Biso   1.000  C
  C231     1.0000 0.11930  0.49519  0.12805  Biso   1.000  C
  C232     1.0000 0.76310  0.68253  0.08806  Biso   1.000  C
  C233     1.0000 0.74770  0.52123  0.01153  Biso   1.000  C
  H136     1.0000 0.78670  0.50830  0.03010  Biso   1.000  H
  C234     1.0000 0.23530  0.50088  0.13501  Biso   1.000  C
  H137     1.0000 0.27670  0.52090  0.12260  Biso   1.000  H
  C235     1.0000 0.99220  0.56316  0.96930  Biso   1.000  C
  H138     1.0000 0.97620  0.53650  0.97630  Biso   1.000  H
  O37      1.0000 0.71360  0.81074  0.21193  Biso   1.000  O
  O38      1.0000 0.24510  0.39305  0.21407  Biso   1.000  O
  C236     1.0000 0.66960  0.76253  0.16992  Biso   1.000  C
  C237     1.0000 0.14660  0.61577  0.89600  Biso   1.000  C
  C238     1.0000 0.72880  0.71157  0.11502  Biso   1.000  C
  C239     1.0000 0.08130  0.60946  0.92808  Biso   1.000  C
  C240     1.0000 0.54030  0.49392  0.93939  Biso   1.000  C
  C241     1.0000 0.56090  0.45187  0.93431  Biso   1.000  C
  H139     1.0000 0.61380  0.43810  0.94890  Biso   1.000  H
  C242     1.0000 0.29360  0.47816  0.15968  Biso   1.000  C
  H140     1.0000 0.37340  0.48310  0.16410  Biso   1.000  H
  C243     1.0000 0.06070  0.46530  0.14709  Biso   1.000  C
  H141     1.0000 0.98010  0.46110  0.14350  Biso   1.000  H
  C244     1.0000 0.22590  0.58697  0.88444  Biso   1.000  C
  H142     1.0000 0.23950  0.56390  0.89830  Biso   1.000  H
  C245     1.0000 0.11920  0.44225  0.17079  Biso   1.000  C
  H143     1.0000 0.07910  0.42160  0.18270  Biso   1.000  H
  C246     1.0000 0.71560  0.62945  0.04795  Biso   1.000  C
  H144     1.0000 0.65740  0.61410  0.03670  Biso   1.000  H
  C247     1.0000 0.97120  0.63316  0.97723  Biso   1.000  C
  H145     1.0000 0.94080  0.65520  0.98980  Biso   1.000  H
  C248     1.0000 0.29690  0.42336  0.20337  Biso   1.000  C
  C249     1.0000 0.03450  0.64090  0.94738  Biso   1.000  C
  H146     1.0000 0.04590  0.66780  0.94010  Biso   1.000  H
  C250     1.0000 0.91100  0.64691  0.05565  Biso   1.000  C
  H147     1.0000 0.99060  0.64350  0.04990  Biso   1.000  H
  C251     1.0000 0.62990  0.55802  0.95820  Biso   1.000  C
  H148     1.0000 0.58800  0.57120  0.94040  Biso   1.000  H
  C252     1.0000 0.88080  0.67710  0.07902  Biso   1.000  C
  H149     1.0000 0.93900  0.69380  0.08870  Biso   1.000  H
  C253     1.0000 0.70770  0.57985  0.97776  Biso   1.000  C
  H150     1.0000 0.71820  0.60760  0.97330  Biso   1.000  H
  C254     1.0000 0.13000  0.64953  0.87531  Biso   1.000  C
  H151     1.0000 0.07640  0.66970  0.88220  Biso   1.000  H
  C255     1.0000 0.50480  0.43174  0.90860  Biso   1.000  C
  H152     1.0000 0.52150  0.40420  0.90500  Biso   1.000  H
  C256     1.0000 0.45410  0.51176  0.91794  Biso   1.000  C
  H153     1.0000 0.43300  0.53890  0.92160  Biso   1.000  H
  C257     1.0000 0.40140  0.49064  0.89230  Biso   1.000  C
  H154     1.0000 0.34810  0.50380  0.87740  Biso   1.000  H
  C258     1.0000 0.68260  0.65905  0.07162  Biso   1.000  C
  H155     1.0000 0.60260  0.66300  0.07640  Biso   1.000  H
  C259     1.0000 0.36220  0.42750  0.85868  Biso   1.000  C
  C260     1.0000 0.59810  0.73175  0.16075  Biso   1.000  C
  H156     1.0000 0.52810  0.72750  0.17320  Biso   1.000  H
  C261     1.0000 0.77110  0.76810  0.15200  Biso   1.000  C
  H157     1.0000 0.82170  0.78940  0.15820  Biso   1.000  H
  O39      1.0000 0.28350  0.44570  0.84189  Biso   1.000  O
  C262     1.0000 0.42420  0.45049  0.88766  Biso   1.000  C
  C263     1.0000 0.19200  0.65374  0.84455  Biso   1.000  C
  H158     1.0000 0.18150  0.67720  0.83110  Biso   1.000  H
  O40      1.0000 0.40810  0.39197  0.85135  Biso   1.000  O
  C264     1.0000 0.80010  0.74284  0.12503  Biso   1.000  C
  H159     1.0000 0.87100  0.74710  0.11300  Biso   1.000  H
  C265     1.0000 0.62680  0.70603  0.13297  Biso   1.000  C
  H160     1.0000 0.57560  0.68490  0.12670  Biso   1.000  H
  O41      1.0000 0.65690  0.33622  0.28762  Biso   1.000  O
  O42      1.0000 0.62140  0.40208  0.28791  Biso   1.000  O
  O43      1.0000 0.60560  0.56552  0.71343  Biso   1.000  O
  C266     1.0000 0.05810  0.43995  0.54780  Biso   1.000  C
  C267     1.0000 0.12680  0.41460  0.52070  Biso   1.000  C
  C268     1.0000 0.71450  0.40895  0.35335  Biso   1.000  C
  H161     1.0000 0.66210  0.42930  0.34610  Biso   1.000  H
  C269     1.0000 0.94280  0.44937  0.54478  Biso   1.000  C
  H162     1.0000 0.90110  0.44180  0.52460  Biso   1.000  H
  C270     1.0000 0.05850  0.47170  0.60400  Biso   1.000  C
  H163     1.0000 0.09910  0.47860  0.62450  Biso   1.000  H
  C271     1.0000 0.66460  0.37109  0.30029  Biso   1.000  C
  C272     1.0000 0.94390  0.42981  0.43935  Biso   1.000  C
  H164     1.0000 0.91670  0.45190  0.42620  Biso   1.000  H
  C273     1.0000 0.94310  0.48226  0.60081  Biso   1.000  C
  O44      1.0000 0.46290  0.21483  0.71196  Biso   1.000  O
  C274     1.0000 0.11650  0.45131  0.57803  Biso   1.000  C
  H165     1.0000 0.19640  0.44500  0.58070  Biso   1.000  H
  C275     1.0000 0.73120  0.37559  0.33308  Biso   1.000  C
  C276     1.0000 0.88600  0.47021  0.57134  Biso   1.000  C
  H166     1.0000 0.80570  0.47620  0.56890  Biso   1.000  H
  C277     1.0000 0.22810  0.43884  0.50439  Biso   1.000  C
  C278     1.0000 0.16890  0.37788  0.54066  Biso   1.000  C
  C279     1.0000 0.38920  0.48270  0.46367  Biso   1.000  C
  C280     1.0000 0.04910  0.40421  0.48928  Biso   1.000  C
  C281     1.0000 0.33200  0.49986  0.49213  Biso   1.000  C
  H167     1.0000 0.34880  0.52680  0.49820  Biso   1.000  H
  C282     1.0000 0.36310  0.21178  0.70047  Biso   1.000  C
  C283     1.0000 0.76360  0.55127  0.67761  Biso   1.000  C
  C284     1.0000 0.88070  0.50481  0.62805  Biso   1.000  C
  C285     1.0000 0.23690  0.31747  0.58806  Biso   1.000  C
  C286     1.0000 0.25230  0.47877  0.51153  Biso   1.000  C
  H168     1.0000 0.21330  0.49170  0.53010  Biso   1.000  H
  C287     1.0000 0.76470  0.49912  0.63501  Biso   1.000  C
  H169     1.0000 0.72330  0.47910  0.62260  Biso   1.000  H
  C288     1.0000 0.00780  0.43684  0.46930  Biso   1.000  C
  H170     1.0000 0.02380  0.46350  0.47630  Biso   1.000  H
  O45      1.0000 0.28640  0.18926  0.71193  Biso   1.000  O
  O46      1.0000 0.75490  0.60695  0.71407  Biso   1.000  O
  C289     1.0000 0.33040  0.23747  0.66992  Biso   1.000  C
  C290     1.0000 0.85340  0.38423  0.39600  Biso   1.000  C
  C291     1.0000 0.27120  0.28843  0.61502  Biso   1.000  C
  C292     1.0000 0.91870  0.39054  0.42808  Biso   1.000  C
  C293     1.0000 0.45970  0.50608  0.43939  Biso   1.000  C
  C294     1.0000 0.43910  0.54813  0.43431  Biso   1.000  C
  H171     1.0000 0.38620  0.56190  0.44890  Biso   1.000  H
  C295     1.0000 0.70640  0.52184  0.65968  Biso   1.000  C
  H172     1.0000 0.62660  0.51690  0.66410  Biso   1.000  H
  C296     1.0000 0.93930  0.53470  0.64709  Biso   1.000  C
  H173     1.0000 0.01990  0.53890  0.64350  Biso   1.000  H
  C297     1.0000 0.77410  0.41303  0.38444  Biso   1.000  C
  H174     1.0000 0.76050  0.43610  0.39830  Biso   1.000  H
  C298     1.0000 0.88080  0.55775  0.67079  Biso   1.000  C
  H175     1.0000 0.92090  0.57840  0.68270  Biso   1.000  H
  C299     1.0000 0.28440  0.37055  0.54795  Biso   1.000  C
  H176     1.0000 0.34260  0.38590  0.53670  Biso   1.000  H
  C300     1.0000 0.02880  0.36684  0.47723  Biso   1.000  C
  H177     1.0000 0.05920  0.34480  0.48980  Biso   1.000  H
  C301     1.0000 0.70310  0.57664  0.70337  Biso   1.000  C
  C302     1.0000 0.96550  0.35910  0.44738  Biso   1.000  C
  H178     1.0000 0.95410  0.33220  0.44010  Biso   1.000  H
  C303     1.0000 0.08900  0.35309  0.55565  Biso   1.000  C
  H179     1.0000 0.00940  0.35650  0.54990  Biso   1.000  H
  C304     1.0000 0.37010  0.44198  0.45820  Biso   1.000  C
  H180     1.0000 0.41200  0.42880  0.44040  Biso   1.000  H
  C305     1.0000 0.11920  0.32290  0.57902  Biso   1.000  C
  H181     1.0000 0.06100  0.30620  0.58870  Biso   1.000  H
  C306     1.0000 0.29230  0.42015  0.47776  Biso   1.000  C
  H182     1.0000 0.28180  0.39240  0.47330  Biso   1.000  H
  C307     1.0000 0.87000  0.35047  0.37531  Biso   1.000  C
  H183     1.0000 0.92360  0.33030  0.38220  Biso   1.000  H
  C308     1.0000 0.49520  0.56826  0.40860  Biso   1.000  C
  H184     1.0000 0.47850  0.59580  0.40500  Biso   1.000  H
  C309     1.0000 0.54590  0.48824  0.41794  Biso   1.000  C
  H185     1.0000 0.56700  0.46110  0.42160  Biso   1.000  H
  C310     1.0000 0.59860  0.50936  0.39230  Biso   1.000  C
  H186     1.0000 0.65190  0.49620  0.37740  Biso   1.000  H
  C311     1.0000 0.31740  0.34095  0.57162  Biso   1.000  C
  H187     1.0000 0.39740  0.33700  0.57640  Biso   1.000  H
  C312     1.0000 0.63780  0.57250  0.35868  Biso   1.000  C
  C313     1.0000 0.40190  0.26825  0.66075  Biso   1.000  C
  H188     1.0000 0.47190  0.27250  0.67320  Biso   1.000  H
  C314     1.0000 0.22890  0.23190  0.65200  Biso   1.000  C
  H189     1.0000 0.17830  0.21060  0.65820  Biso   1.000  H
  O47      1.0000 0.71650  0.55430  0.34189  Biso   1.000  O
  C315     1.0000 0.57580  0.54951  0.38766  Biso   1.000  C
  C316     1.0000 0.80800  0.34626  0.34455  Biso   1.000  C
  H190     1.0000 0.81850  0.32280  0.33110  Biso   1.000  H
  O48      1.0000 0.59190  0.60803  0.35135  Biso   1.000  O
  C317     1.0000 0.19990  0.25716  0.62503  Biso   1.000  C
  H191     1.0000 0.12900  0.25290  0.61300  Biso   1.000  H
  C318     1.0000 0.37320  0.29397  0.63297  Biso   1.000  C
  H192     1.0000 0.42440  0.31510  0.62670  Biso   1.000  H
  O49      1.0000 0.65690  0.16378  0.71238  Biso   1.000  O
  O50      1.0000 0.62140  0.09792  0.71209  Biso   1.000  O
  O51      1.0000 0.60560  0.93448  0.28657  Biso   1.000  O
  C319     1.0000 0.05810  0.06005  0.45220  Biso   1.000  C
  C320     1.0000 0.12680  0.08540  0.47930  Biso   1.000  C
  C321     1.0000 0.71450  0.09105  0.64665  Biso   1.000  C
  H193     1.0000 0.66210  0.07070  0.65390  Biso   1.000  H
  C322     1.0000 0.94280  0.05063  0.45522  Biso   1.000  C
  H194     1.0000 0.90110  0.05820  0.47540  Biso   1.000  H
  C323     1.0000 0.05850  0.02830  0.39600  Biso   1.000  C
  H195     1.0000 0.09910  0.02140  0.37550  Biso   1.000  H
  C324     1.0000 0.66460  0.12891  0.69971  Biso   1.000  C
  C325     1.0000 0.94390  0.07019  0.56065  Biso   1.000  C
  H196     1.0000 0.91670  0.04810  0.57380  Biso   1.000  H
  C326     1.0000 0.94310  0.01774  0.39919  Biso   1.000  C
  O52      1.0000 0.46290  0.28517  0.28804  Biso   1.000  O
  C327     1.0000 0.11650  0.04869  0.42197  Biso   1.000  C
  H197     1.0000 0.19640  0.05500  0.41930  Biso   1.000  H
  C328     1.0000 0.73120  0.12441  0.66692  Biso   1.000  C
  C329     1.0000 0.88600  0.02979  0.42866  Biso   1.000  C
  H198     1.0000 0.80570  0.02380  0.43110  Biso   1.000  H
  C330     1.0000 0.22810  0.06116  0.49561  Biso   1.000  C
  C331     1.0000 0.16890  0.12212  0.45934  Biso   1.000  C
  C332     1.0000 0.38920  0.01730  0.53633  Biso   1.000  C
  C333     1.0000 0.04910  0.09579  0.51072  Biso   1.000  C
  C334     1.0000 0.33200  0.00014  0.50787  Biso   1.000  C
  H199     1.0000 0.34880  0.97320  0.50180  Biso   1.000  H
  C335     1.0000 0.36310  0.28822  0.29953  Biso   1.000  C
  C336     1.0000 0.76360  0.94873  0.32239  Biso   1.000  C
  C337     1.0000 0.88070  0.99519  0.37195  Biso   1.000  C
  C338     1.0000 0.23690  0.18253  0.41194  Biso   1.000  C
  C339     1.0000 0.25230  0.02123  0.48847  Biso   1.000  C
  H200     1.0000 0.21330  0.00830  0.46990  Biso   1.000  H
  C340     1.0000 0.76470  0.00088  0.36499  Biso   1.000  C
  H201     1.0000 0.72330  0.02090  0.37740  Biso   1.000  H
  C341     1.0000 0.00780  0.06316  0.53070  Biso   1.000  C
  H202     1.0000 0.02380  0.03650  0.52370  Biso   1.000  H
  O53      1.0000 0.28640  0.31074  0.28807  Biso   1.000  O
  O54      1.0000 0.75490  0.89305  0.28593  Biso   1.000  O
  C342     1.0000 0.33040  0.26253  0.33008  Biso   1.000  C
  C343     1.0000 0.85340  0.11577  0.60400  Biso   1.000  C
  C344     1.0000 0.27120  0.21157  0.38498  Biso   1.000  C
  C345     1.0000 0.91870  0.10946  0.57192  Biso   1.000  C
  C346     1.0000 0.45970  0.99392  0.56061  Biso   1.000  C
  C347     1.0000 0.43910  0.95187  0.56569  Biso   1.000  C
  H203     1.0000 0.38620  0.93810  0.55110  Biso   1.000  H
  C348     1.0000 0.70640  0.97816  0.34032  Biso   1.000  C
  H204     1.0000 0.62660  0.98310  0.33590  Biso   1.000  H
  C349     1.0000 0.93930  0.96530  0.35291  Biso   1.000  C
  H205     1.0000 0.01990  0.96110  0.35650  Biso   1.000  H
  C350     1.0000 0.77410  0.08697  0.61556  Biso   1.000  C
  H206     1.0000 0.76050  0.06390  0.60170  Biso   1.000  H
  C351     1.0000 0.88080  0.94225  0.32921  Biso   1.000  C
  H207     1.0000 0.92090  0.92160  0.31730  Biso   1.000  H
  C352     1.0000 0.28440  0.12945  0.45205  Biso   1.000  C
  H208     1.0000 0.34260  0.11410  0.46330  Biso   1.000  H
  C353     1.0000 0.02880  0.13316  0.52277  Biso   1.000  C
  H209     1.0000 0.05920  0.15520  0.51020  Biso   1.000  H
  C354     1.0000 0.70310  0.92336  0.29663  Biso   1.000  C
  C355     1.0000 0.96550  0.14090  0.55262  Biso   1.000  C
  H210     1.0000 0.95410  0.16780  0.55990  Biso   1.000  H
  C356     1.0000 0.08900  0.14691  0.44435  Biso   1.000  C
  H211     1.0000 0.00940  0.14350  0.45010  Biso   1.000  H
  C357     1.0000 0.37010  0.05802  0.54180  Biso   1.000  C
  H212     1.0000 0.41200  0.07120  0.55960  Biso   1.000  H
  C358     1.0000 0.11920  0.17710  0.42098  Biso   1.000  C
  H213     1.0000 0.06100  0.19380  0.41130  Biso   1.000  H
  C359     1.0000 0.29230  0.07985  0.52224  Biso   1.000  C
  H214     1.0000 0.28180  0.10760  0.52670  Biso   1.000  H
  C360     1.0000 0.87000  0.14953  0.62469  Biso   1.000  C
  H215     1.0000 0.92360  0.16970  0.61780  Biso   1.000  H
  C361     1.0000 0.49520  0.93174  0.59140  Biso   1.000  C
  H216     1.0000 0.47850  0.90420  0.59500  Biso   1.000  H
  C362     1.0000 0.54590  0.01176  0.58206  Biso   1.000  C
  H217     1.0000 0.56700  0.03890  0.57840  Biso   1.000  H
  C363     1.0000 0.59860  0.99064  0.60770  Biso   1.000  C
  H218     1.0000 0.65190  0.00380  0.62260  Biso   1.000  H
  C364     1.0000 0.31740  0.15905  0.42838  Biso   1.000  C
  H219     1.0000 0.39740  0.16300  0.42360  Biso   1.000  H
  C365     1.0000 0.63780  0.92750  0.64132  Biso   1.000  C
  C366     1.0000 0.40190  0.23175  0.33925  Biso   1.000  C
  H220     1.0000 0.47190  0.22750  0.32680  Biso   1.000  H
  C367     1.0000 0.22890  0.26810  0.34800  Biso   1.000  C
  H221     1.0000 0.17830  0.28940  0.34180  Biso   1.000  H
  O55      1.0000 0.71650  0.94570  0.65811  Biso   1.000  O
  C368     1.0000 0.57580  0.95049  0.61234  Biso   1.000  C
  C369     1.0000 0.80800  0.15374  0.65545  Biso   1.000  C
  H222     1.0000 0.81850  0.17720  0.66890  Biso   1.000  H
  O56      1.0000 0.59190  0.89197  0.64865  Biso   1.000  O
  C370     1.0000 0.19990  0.24284  0.37497  Biso   1.000  C
  H223     1.0000 0.12900  0.24710  0.38700  Biso   1.000  H
  C371     1.0000 0.37320  0.20603  0.36703  Biso   1.000  C
  H224     1.0000 0.42440  0.18490  0.37330  Biso   1.000  H
  O57      1.0000 0.34310  0.83622  0.21238  Biso   1.000  O
  O58      1.0000 0.37860  0.90208  0.21209  Biso   1.000  O
  O59      1.0000 0.39440  0.06552  0.78657  Biso   1.000  O
  C372     1.0000 0.94190  0.93995  0.95220  Biso   1.000  C
  C373     1.0000 0.87320  0.91460  0.97930  Biso   1.000  C
  C374     1.0000 0.28550  0.90895  0.14665  Biso   1.000  C
  H225     1.0000 0.33790  0.92930  0.15390  Biso   1.000  H
  C375     1.0000 0.05720  0.94937  0.95522  Biso   1.000  C
  H226     1.0000 0.09890  0.94180  0.97540  Biso   1.000  H
  C376     1.0000 0.94150  0.97170  0.89600  Biso   1.000  C
  H227     1.0000 0.90090  0.97860  0.87550  Biso   1.000  H
  C377     1.0000 0.33540  0.87109  0.19971  Biso   1.000  C
  C378     1.0000 0.05610  0.92981  0.06065  Biso   1.000  C
  H228     1.0000 0.08330  0.95190  0.07380  Biso   1.000  H
  C379     1.0000 0.05690  0.98226  0.89919  Biso   1.000  C
  O60      1.0000 0.53710  0.71483  0.78804  Biso   1.000  O
  C380     1.0000 0.88350  0.95131  0.92197  Biso   1.000  C
  H229     1.0000 0.80360  0.94500  0.91930  Biso   1.000  H
  C381     1.0000 0.26880  0.87559  0.16692  Biso   1.000  C
  C382     1.0000 0.11400  0.97021  0.92866  Biso   1.000  C
  H230     1.0000 0.19430  0.97620  0.93110  Biso   1.000  H
  C383     1.0000 0.77190  0.93884  0.99561  Biso   1.000  C
  C384     1.0000 0.83110  0.87788  0.95934  Biso   1.000  C
  C385     1.0000 0.61080  0.98270  0.03633  Biso   1.000  C
  C386     1.0000 0.95090  0.90421  0.01072  Biso   1.000  C
  C387     1.0000 0.66800  0.99986  0.00787  Biso   1.000  C
  H231     1.0000 0.65120  0.02680  0.00180  Biso   1.000  H
  C388     1.0000 0.63690  0.71178  0.79953  Biso   1.000  C
  C389     1.0000 0.23640  0.05127  0.82239  Biso   1.000  C
  C390     1.0000 0.11930  0.00481  0.87195  Biso   1.000  C
  C391     1.0000 0.76310  0.81747  0.91194  Biso   1.000  C
  C392     1.0000 0.74770  0.97877  0.98847  Biso   1.000  C
  H232     1.0000 0.78670  0.99170  0.96990  Biso   1.000  H
  C393     1.0000 0.23530  0.99912  0.86499  Biso   1.000  C
  H233     1.0000 0.27670  0.97910  0.87740  Biso   1.000  H
  C394     1.0000 0.99220  0.93684  0.03070  Biso   1.000  C
  H234     1.0000 0.97620  0.96350  0.02370  Biso   1.000  H
  O61      1.0000 0.71360  0.68926  0.78807  Biso   1.000  O
  O62      1.0000 0.24510  0.10695  0.78593  Biso   1.000  O
  C395     1.0000 0.66960  0.73747  0.83008  Biso   1.000  C
  C396     1.0000 0.14660  0.88423  0.10400  Biso   1.000  C
  C397     1.0000 0.72880  0.78843  0.88498  Biso   1.000  C
  C398     1.0000 0.08130  0.89054  0.07192  Biso   1.000  C
  C399     1.0000 0.54030  0.00608  0.06061  Biso   1.000  C
  C400     1.0000 0.56090  0.04813  0.06569  Biso   1.000  C
  H235     1.0000 0.61380  0.06190  0.05110  Biso   1.000  H
  C401     1.0000 0.29360  0.02184  0.84032  Biso   1.000  C
  H236     1.0000 0.37340  0.01690  0.83590  Biso   1.000  H
  C402     1.0000 0.06070  0.03470  0.85291  Biso   1.000  C
  H237     1.0000 0.98010  0.03890  0.85650  Biso   1.000  H
  C403     1.0000 0.22590  0.91303  0.11556  Biso   1.000  C
  H238     1.0000 0.23950  0.93610  0.10170  Biso   1.000  H
  C404     1.0000 0.11920  0.05775  0.82921  Biso   1.000  C
  H239     1.0000 0.07910  0.07840  0.81730  Biso   1.000  H
  C405     1.0000 0.71560  0.87055  0.95205  Biso   1.000  C
  H240     1.0000 0.65740  0.88590  0.96330  Biso   1.000  H
  C406     1.0000 0.97120  0.86684  0.02277  Biso   1.000  C
  H241     1.0000 0.94080  0.84480  0.01020  Biso   1.000  H
  C407     1.0000 0.29690  0.07664  0.79663  Biso   1.000  C
  C408     1.0000 0.03450  0.85910  0.05262  Biso   1.000  C
  H242     1.0000 0.04590  0.83220  0.05990  Biso   1.000  H
  C409     1.0000 0.91100  0.85309  0.94435  Biso   1.000  C
  H243     1.0000 0.99060  0.85650  0.95010  Biso   1.000  H
  C410     1.0000 0.62990  0.94198  0.04180  Biso   1.000  C
  H244     1.0000 0.58800  0.92880  0.05960  Biso   1.000  H
  C411     1.0000 0.88080  0.82290  0.92098  Biso   1.000  C
  H245     1.0000 0.93900  0.80620  0.91130  Biso   1.000  H
  C412     1.0000 0.70770  0.92015  0.02224  Biso   1.000  C
  H246     1.0000 0.71820  0.89240  0.02670  Biso   1.000  H
  C413     1.0000 0.13000  0.85047  0.12469  Biso   1.000  C
  H247     1.0000 0.07640  0.83030  0.11780  Biso   1.000  H
  C414     1.0000 0.50480  0.06826  0.09140  Biso   1.000  C
  H248     1.0000 0.52150  0.09580  0.09500  Biso   1.000  H
  C415     1.0000 0.45410  0.98824  0.08206  Biso   1.000  C
  H249     1.0000 0.43300  0.96110  0.07840  Biso   1.000  H
  C416     1.0000 0.40140  0.00936  0.10770  Biso   1.000  C
  H250     1.0000 0.34810  0.99620  0.12260  Biso   1.000  H
  C417     1.0000 0.68260  0.84095  0.92838  Biso   1.000  C
  H251     1.0000 0.60260  0.83700  0.92360  Biso   1.000  H
  C418     1.0000 0.36220  0.07250  0.14132  Biso   1.000  C
  C419     1.0000 0.59810  0.76825  0.83925  Biso   1.000  C
  H252     1.0000 0.52810  0.77250  0.82680  Biso   1.000  H
  C420     1.0000 0.77110  0.73190  0.84800  Biso   1.000  C
  H253     1.0000 0.82170  0.71060  0.84180  Biso   1.000  H
  O63      1.0000 0.28350  0.05430  0.15811  Biso   1.000  O
  C421     1.0000 0.42420  0.04951  0.11234  Biso   1.000  C
  C422     1.0000 0.19200  0.84626  0.15545  Biso   1.000  C
  H254     1.0000 0.18150  0.82280  0.16890  Biso   1.000  H
  O64      1.0000 0.40810  0.10803  0.14865  Biso   1.000  O
  C423     1.0000 0.80010  0.75716  0.87497  Biso   1.000  C
  H255     1.0000 0.87100  0.75290  0.88700  Biso   1.000  H
  C424     1.0000 0.62680  0.79397  0.86703  Biso   1.000  C
  H256     1.0000 0.57560  0.81510  0.87330  Biso   1.000  H
  Fe1      1.0000 0.54940  0.31412  0.25000  Biso   1.000  Fe
  Fe2      1.0000 0.50480  0.41253  0.25000  Biso   1.000  Fe
  Fe3      1.0000 0.28330  0.35170  0.25000  Biso   1.000  Fe
  O65      1.0000 0.44750  0.36013  0.25000  Biso   1.000  O
  O66      1.0000 0.65670  0.26337  0.25000  Biso   1.000  O
  O67      1.0000 0.57130  0.47142  0.25000  Biso   1.000  O
  O68      1.0000 0.10370  0.33982  0.25000  Biso   1.000  O
  Ni1      1.0000 0.28430  0.35117  0.25000  Biso   1.000  Ni
  Ni2      1.0000 0.55250  0.31500  0.25000  Biso   1.000  Ni
  Ni3      1.0000 0.50670  0.41185  0.25000  Biso   1.000  Ni
  Fe4      1.0000 0.45060  0.68588  0.75000  Biso   1.000  Fe
  Fe5      1.0000 0.49520  0.58747  0.75000  Biso   1.000  Fe
  Fe6      1.0000 0.71670  0.64830  0.75000  Biso   1.000  Fe
  O69      1.0000 0.55250  0.63987  0.75000  Biso   1.000  O
  O70      1.0000 0.34330  0.73663  0.75000  Biso   1.000  O
  O71      1.0000 0.42870  0.52858  0.75000  Biso   1.000  O
  O72      1.0000 0.89630  0.66018  0.75000  Biso   1.000  O
  Ni4      1.0000 0.71570  0.64883  0.75000  Biso   1.000  Ni
  Ni5      1.0000 0.44750  0.68500  0.75000  Biso   1.000  Ni
  Ni6      1.0000 0.49330  0.58815  0.75000  Biso   1.000  Ni
  Fe7      1.0000 0.45060  0.81412  0.25000  Biso   1.000  Fe
  Fe8      1.0000 0.49520  0.91253  0.25000  Biso   1.000  Fe
  Fe9      1.0000 0.71670  0.85170  0.25000  Biso   1.000  Fe
  O73      1.0000 0.55250  0.86013  0.25000  Biso   1.000  O
  O74      1.0000 0.34330  0.76337  0.25000  Biso   1.000  O
  O75      1.0000 0.42870  0.97142  0.25000  Biso   1.000  O
  O76      1.0000 0.89630  0.83982  0.25000  Biso   1.000  O
  Ni7      1.0000 0.71570  0.85117  0.25000  Biso   1.000  Ni
  Ni8      1.0000 0.44750  0.81500  0.25000  Biso   1.000  Ni
  Ni9      1.0000 0.49330  0.91185  0.25000  Biso   1.000  Ni
  Fe10     1.0000 0.54940  0.18588  0.75000  Biso   1.000  Fe
  Fe11     1.0000 0.50480  0.08747  0.75000  Biso   1.000  Fe
  Fe12     1.0000 0.28330  0.14830  0.75000  Biso   1.000  Fe
  O77      1.0000 0.44750  0.13987  0.75000  Biso   1.000  O
  O78      1.0000 0.65670  0.23663  0.75000  Biso   1.000  O
  O79      1.0000 0.57130  0.02858  0.75000  Biso   1.000  O
  O80      1.0000 0.10370  0.16018  0.75000  Biso   1.000  O
  Ni10     1.0000 0.28430  0.14883  0.75000  Biso   1.000  Ni
  Ni11     1.0000 0.55250  0.18500  0.75000  Biso   1.000  Ni
  Ni12     1.0000 0.50670  0.08815  0.75000  Biso   1.000  Ni
