data_image0
_cell_length_a       22.248
_cell_length_b       22.248
_cell_length_c       27.46
_cell_angle_alpha    90
_cell_angle_beta     90
_cell_angle_gamma    120

_symmetry_space_group_name_H-M    "P 1"
_symmetry_int_tables_number       1

loop_
  _symmetry_equiv_pos_as_xyz
  'x, y, z'

loop_
  _atom_site_label
  _atom_site_occupancy
  _atom_site_fract_x
  _atom_site_fract_y
  _atom_site_fract_z
  _atom_site_thermal_displace_type
  _atom_site_B_iso_or_equiv
  _atom_site_type_symbol
  Sn1      1.0000 0.30507  0.45607  0.98153  Biso   1.000  Sn
  O1       1.0000 0.70801  0.47598  0.95320  Biso   1.000  O
  O2       1.0000 0.76794  0.57574  0.99427  Biso   1.000  O
  O3       1.0000 0.40977  0.47860  0.95844  Biso   1.000  O
  O4       1.0000 0.45598  0.58448  0.99176  Biso   1.000  O
  N1       1.0000 0.60324  0.49911  0.94043  Biso   1.000  N
  C1       1.0000 0.54427  0.50225  0.93603  Biso   1.000  C
  C2       1.0000 0.53089  0.54267  0.96775  Biso   1.000  C
  C3       1.0000 0.46063  0.53721  0.97325  Biso   1.000  C
  C4       1.0000 0.58360  0.58729  0.99927  Biso   1.000  C
  H1       1.0000 0.57670  0.61740  0.02010  Biso   1.000  H
  C5       1.0000 0.64634  0.58767  0.00026  Biso   1.000  C
  H2       1.0000 0.68360  0.61920  0.02040  Biso   1.000  H
  C6       1.0000 0.65270  0.54092  0.97119  Biso   1.000  C
  C7       1.0000 0.71504  0.53048  0.97292  Biso   1.000  C
  C8       1.0000 0.30698  0.53860  0.94135  Biso   1.000  C
  H3       1.0000 0.31800  0.57700  0.96430  Biso   1.000  H
  H4       1.0000 0.34580  0.55550  0.91780  Biso   1.000  H
  C9       1.0000 0.24230  0.52410  0.91345  Biso   1.000  C
  H5       1.0000 0.20390  0.51100  0.93680  Biso   1.000  H
  H6       1.0000 0.22900  0.48400  0.89150  Biso   1.000  H
  C10      1.0000 0.25150  0.58650  0.88280  Biso   1.000  C
  H7       1.0000 0.26320  0.62610  0.90480  Biso   1.000  H
  H8       1.0000 0.29090  0.60070  0.86010  Biso   1.000  H
  C11      1.0000 0.18650  0.57050  0.85340  Biso   1.000  C
  H9       1.0000 0.19510  0.61180  0.83500  Biso   1.000  H
  H10      1.0000 0.14740  0.55710  0.87570  Biso   1.000  H
  H11      1.0000 0.17550  0.53230  0.83070  Biso   1.000  H
  C12      1.0000 0.32930  0.44880  0.05260  Biso   1.000  C
  H12      1.0000 0.36080  0.42950  0.05090  Biso   1.000  H
  H13      1.0000 0.35830  0.49740  0.06370  Biso   1.000  H
  C13      1.0000 0.28150  0.41170  0.09490  Biso   1.000  C
  H14      1.0000 0.30910  0.42090  0.12510  Biso   1.000  H
  H15      1.0000 0.24910  0.42950  0.09950  Biso   1.000  H
  C14      1.0000 0.24070  0.33450  0.08560  Biso   1.000  C
  H16      1.0000 0.27300  0.31780  0.07690  Biso   1.000  H
  H17      1.0000 0.20880  0.32500  0.05790  Biso   1.000  H
  C15      1.0000 0.19820  0.29480  0.13120  Biso   1.000  C
  H18      1.0000 0.17790  0.24480  0.12610  Biso   1.000  H
  H19      1.0000 0.16100  0.30550  0.13670  Biso   1.000  H
  H20      1.0000 0.22880  0.30900  0.15970  Biso   1.000  H
  O5       1.0000 0.65620  0.32860  0.91410  Biso   1.000  O
  C16      1.0000 0.71260  0.33520  0.92790  Biso   1.000  C
  N2       1.0000 0.72890  0.28500  0.91920  Biso   1.000  N
  C17      1.0000 0.68290  0.22360  0.89110  Biso   1.000  C
  C18      1.0000 0.78980  0.28610  0.93990  Biso   1.000  C
  C19      1.0000 0.26000  0.36100  0.93600  Biso   1.000  C
  H21      1.0000 0.20910  0.33380  0.94060  Biso   1.000  H
  H22      1.0000 0.26960  0.37360  0.90110  Biso   1.000  H
  C20      1.0000 0.29200  0.31900  0.95100  Biso   1.000  C
  H23      1.0000 0.27890  0.30570  0.98510  Biso   1.000  H
  H24      1.0000 0.34260  0.34990  0.94960  Biso   1.000  H
  C21      1.0000 0.27450  0.25410  0.92270  Biso   1.000  C
  H25      1.0000 0.28960  0.26630  0.88840  Biso   1.000  H
  H26      1.0000 0.22370  0.22220  0.92290  Biso   1.000  H
  C22      1.0000 0.28400  0.20160  0.91880  Biso   1.000  C
  H27      1.0000 0.25810  0.15990  0.89880  Biso   1.000  H
  H28      1.0000 0.28460  0.18790  0.95270  Biso   1.000  H
  H29      1.0000 0.33210  0.22810  0.90670  Biso   1.000  H
  C23      1.0000 0.56460  0.34700  0.98580  Biso   1.000  C
  H30      1.0000 0.55570  0.29900  0.98420  Biso   1.000  H
  H31      1.0000 0.60100  0.37210  0.01070  Biso   1.000  H
  C24      1.0000 0.49940  0.34530  0.00250  Biso   1.000  C
  H32      1.0000 0.50980  0.39330  0.00870  Biso   1.000  H
  H33      1.0000 0.46470  0.32600  0.97600  Biso   1.000  H
  C25      1.0000 0.46850  0.30300  0.04760  Biso   1.000  C
  H34      1.0000 0.50640  0.31200  0.07060  Biso   1.000  H
  H35      1.0000 0.44480  0.25320  0.03890  Biso   1.000  H
  C26      1.0000 0.41590  0.31850  0.07380  Biso   1.000  C
  H36      1.0000 0.38530  0.27900  0.09450  Biso   1.000  H
  H37      1.0000 0.38810  0.32600  0.04950  Biso   1.000  H
  H38      1.0000 0.44110  0.36020  0.09390  Biso   1.000  H
  C27      1.0000 0.33980  0.46350  0.05930  Biso   1.000  C
  H39      1.0000 0.38500  0.46500  0.06080  Biso   1.000  H
  H40      1.0000 0.34520  0.50620  0.07470  Biso   1.000  H
  C28      1.0000 0.28410  0.39920  0.08580  Biso   1.000  C
  H41      1.0000 0.24020  0.40040  0.08600  Biso   1.000  H
  H42      1.0000 0.27570  0.35720  0.06770  Biso   1.000  H
  C29      1.0000 0.30380  0.39380  0.13780  Biso   1.000  C
  H43      1.0000 0.32210  0.43970  0.15350  Biso   1.000  H
  H44      1.0000 0.34190  0.38310  0.13700  Biso   1.000  H
  C30      1.0000 0.24490  0.33900  0.17010  Biso   1.000  C
  H45      1.0000 0.26080  0.34470  0.20400  Biso   1.000  H
  H46      1.0000 0.23230  0.29240  0.15880  Biso   1.000  H
  H47      1.0000 0.20430  0.34520  0.16810  Biso   1.000  H
  C31      1.0000 0.26400  0.35980  0.94910  Biso   1.000  C
  H48      1.0000 0.21710  0.33240  0.96350  Biso   1.000  H
  H49      1.0000 0.25620  0.36790  0.91480  Biso   1.000  H
  C32      1.0000 0.29000  0.31100  0.94600  Biso   1.000  C
  H50      1.0000 0.29300  0.29650  0.97980  Biso   1.000  H
  H51      1.0000 0.33820  0.33680  0.93340  Biso   1.000  H
  C33      1.0000 0.25040  0.24630  0.91590  Biso   1.000  C
  H52      1.0000 0.24910  0.25930  0.88160  Biso   1.000  H
  H53      1.0000 0.20200  0.21950  0.92790  Biso   1.000  H
  C34      1.0000 0.31100  0.21730  0.94500  Biso   1.000  C
  H54      1.0000 0.29400  0.17250  0.92890  Biso   1.000  H
  H55      1.0000 0.29990  0.20990  0.97990  Biso   1.000  H
  H56      1.0000 0.36080  0.24610  0.94060  Biso   1.000  H
  C35      1.0000 0.56260  0.34900  0.98510  Biso   1.000  C
  H57      1.0000 0.53320  0.29860  0.97980  Biso   1.000  H
  H58      1.0000 0.60170  0.35620  0.00610  Biso   1.000  H
  C36      1.0000 0.52020  0.37310  0.01320  Biso   1.000  C
  H59      1.0000 0.55180  0.41990  0.02650  Biso   1.000  H
  H60      1.0000 0.48790  0.37720  0.99040  Biso   1.000  H
  C37      1.0000 0.47910  0.32590  0.05420  Biso   1.000  C
  H61      1.0000 0.46750  0.35260  0.07750  Biso   1.000  H
  H62      1.0000 0.50870  0.31140  0.07160  Biso   1.000  H
  C38      1.0000 0.41260  0.26170  0.03930  Biso   1.000  C
  H63      1.0000 0.40820  0.22140  0.05700  Biso   1.000  H
  H64      1.0000 0.41360  0.25420  0.00420  Biso   1.000  H
  H65      1.0000 0.37290  0.26770  0.04700  Biso   1.000  H
  H66      1.0000 0.74460  0.37610  0.94480  Biso   1.000  H
  H67      1.0000 0.64200  0.22610  0.88100  Biso   1.000  H
  H68      1.0000 0.66840  0.18210  0.91100  Biso   1.000  H
  H69      1.0000 0.70750  0.22120  0.86210  Biso   1.000  H
  H70      1.0000 0.82160  0.29050  0.91370  Biso   1.000  H
  H71      1.0000 0.77540  0.24300  0.95790  Biso   1.000  H
  H72      1.0000 0.81340  0.32570  0.96210  Biso   1.000  H
  Sn2      1.0000 0.54393  0.84900  0.31486  Biso   1.000  Sn
  O6       1.0000 0.52402  0.23203  0.28653  Biso   1.000  O
  O7       1.0000 0.42426  0.19220  0.32760  Biso   1.000  O
  O8       1.0000 0.52140  0.93117  0.29177  Biso   1.000  O
  O9       1.0000 0.41552  0.87150  0.32509  Biso   1.000  O
  N3       1.0000 0.50089  0.10413  0.27376  Biso   1.000  N
  C39      1.0000 0.49775  0.04202  0.26936  Biso   1.000  C
  C40      1.0000 0.45733  0.98822  0.30108  Biso   1.000  C
  C41      1.0000 0.46279  0.92342  0.30658  Biso   1.000  C
  C42      1.0000 0.41271  0.99631  0.33260  Biso   1.000  C
  H73      1.0000 0.38260  0.95930  0.35343  Biso   1.000  H
  C43      1.0000 0.41233  0.05867  0.33359  Biso   1.000  C
  H74      1.0000 0.38080  0.06440  0.35373  Biso   1.000  H
  C44      1.0000 0.45908  0.11178  0.30452  Biso   1.000  C
  C45      1.0000 0.46952  0.18456  0.30625  Biso   1.000  C
  C46      1.0000 0.46140  0.76838  0.27468  Biso   1.000  C
  H75      1.0000 0.42300  0.74100  0.29763  Biso   1.000  H
  H76      1.0000 0.44450  0.79030  0.25113  Biso   1.000  H
  C47      1.0000 0.47590  0.71820  0.24678  Biso   1.000  C
  H77      1.0000 0.48900  0.69290  0.27013  Biso   1.000  H
  H78      1.0000 0.51600  0.74500  0.22483  Biso   1.000  H
  C48      1.0000 0.41350  0.66500  0.21613  Biso   1.000  C
  H79      1.0000 0.37390  0.63710  0.23813  Biso   1.000  H
  H80      1.0000 0.39930  0.69020  0.19343  Biso   1.000  H
  C49      1.0000 0.42950  0.61600  0.18673  Biso   1.000  C
  H81      1.0000 0.38820  0.58330  0.16833  Biso   1.000  H
  H82      1.0000 0.44290  0.59030  0.20903  Biso   1.000  H
  H83      1.0000 0.46770  0.64320  0.16403  Biso   1.000  H
  C50      1.0000 0.55120  0.88050  0.38593  Biso   1.000  C
  H84      1.0000 0.57050  0.93130  0.38423  Biso   1.000  H
  H85      1.0000 0.50260  0.86090  0.39703  Biso   1.000  H
  C51      1.0000 0.58830  0.86980  0.42823  Biso   1.000  C
  H86      1.0000 0.57910  0.88820  0.45843  Biso   1.000  H
  H87      1.0000 0.57050  0.81960  0.43283  Biso   1.000  H
  C52      1.0000 0.66550  0.90620  0.41893  Biso   1.000  C
  H88      1.0000 0.68220  0.95520  0.41023  Biso   1.000  H
  H89      1.0000 0.67500  0.88380  0.39123  Biso   1.000  H
  C53      1.0000 0.70520  0.90340  0.46453  Biso   1.000  C
  H90      1.0000 0.75520  0.93310  0.45943  Biso   1.000  H
  H91      1.0000 0.69450  0.85550  0.47003  Biso   1.000  H
  H92      1.0000 0.69100  0.91980  0.49303  Biso   1.000  H
  O10      1.0000 0.67140  0.32760  0.24743  Biso   1.000  O
  C54      1.0000 0.66480  0.37740  0.26123  Biso   1.000  C
  N4       1.0000 0.71500  0.44390  0.25253  Biso   1.000  N
  C55      1.0000 0.77640  0.45930  0.22443  Biso   1.000  C
  C56      1.0000 0.71390  0.50370  0.27323  Biso   1.000  C
  C57      1.0000 0.63900  0.89900  0.26933  Biso   1.000  C
  H93      1.0000 0.66620  0.87530  0.27393  Biso   1.000  H
  H94      1.0000 0.62640  0.89600  0.23443  Biso   1.000  H
  C58      1.0000 0.68100  0.97300  0.28433  Biso   1.000  C
  H95      1.0000 0.69430  0.97320  0.31843  Biso   1.000  H
  H96      1.0000 0.65010  0.99270  0.28293  Biso   1.000  H
  C59      1.0000 0.74590  0.02040  0.25603  Biso   1.000  C
  H97      1.0000 0.73370  0.02330  0.22173  Biso   1.000  H
  H98      1.0000 0.77780  0.00150  0.25623  Biso   1.000  H
  C60      1.0000 0.79840  0.08240  0.25213  Biso   1.000  C
  H99      1.0000 0.84010  0.09820  0.23213  Biso   1.000  H
  H100     1.0000 0.81210  0.09670  0.28603  Biso   1.000  H
  H101     1.0000 0.77190  0.10400  0.24003  Biso   1.000  H
  C61      1.0000 0.65300  0.21760  0.31913  Biso   1.000  C
  H102     1.0000 0.70100  0.25670  0.31753  Biso   1.000  H
  H103     1.0000 0.62790  0.22890  0.34403  Biso   1.000  H
  C62      1.0000 0.65470  0.15410  0.33583  Biso   1.000  C
  H104     1.0000 0.60670  0.11650  0.34203  Biso   1.000  H
  H105     1.0000 0.67400  0.13870  0.30933  Biso   1.000  H
  C63      1.0000 0.69700  0.16550  0.38093  Biso   1.000  C
  H106     1.0000 0.68800  0.19440  0.40393  Biso   1.000  H
  H107     1.0000 0.74680  0.19160  0.37223  Biso   1.000  H
  C64      1.0000 0.68150  0.09740  0.40713  Biso   1.000  C
  H108     1.0000 0.72100  0.10630  0.42783  Biso   1.000  H
  H109     1.0000 0.67400  0.06210  0.38283  Biso   1.000  H
  H110     1.0000 0.63980  0.08090  0.42723  Biso   1.000  H
  C65      1.0000 0.53650  0.87630  0.39263  Biso   1.000  C
  H111     1.0000 0.53500  0.92000  0.39413  Biso   1.000  H
  H112     1.0000 0.49380  0.83900  0.40803  Biso   1.000  H
  C66      1.0000 0.60080  0.88490  0.41913  Biso   1.000  C
  H113     1.0000 0.59960  0.83980  0.41933  Biso   1.000  H
  H114     1.0000 0.64280  0.91850  0.40103  Biso   1.000  H
  C67      1.0000 0.60620  0.91000  0.47113  Biso   1.000  C
  H115     1.0000 0.56030  0.88240  0.48683  Biso   1.000  H
  H116     1.0000 0.61690  0.95880  0.47033  Biso   1.000  H
  C68      1.0000 0.66100  0.90590  0.50343  Biso   1.000  C
  H117     1.0000 0.65530  0.91610  0.53733  Biso   1.000  H
  H118     1.0000 0.70760  0.93990  0.49213  Biso   1.000  H
  H119     1.0000 0.65480  0.85910  0.50143  Biso   1.000  H
  C69      1.0000 0.64020  0.90420  0.28243  Biso   1.000  C
  H120     1.0000 0.66760  0.88470  0.29683  Biso   1.000  H
  H121     1.0000 0.63210  0.88830  0.24813  Biso   1.000  H
  C70      1.0000 0.68900  0.97900  0.27933  Biso   1.000  C
  H122     1.0000 0.70350  0.99650  0.31313  Biso   1.000  H
  H123     1.0000 0.66320  0.00140  0.26673  Biso   1.000  H
  C71      1.0000 0.75370  0.00410  0.24923  Biso   1.000  C
  H124     1.0000 0.74070  0.98980  0.21493  Biso   1.000  H
  H125     1.0000 0.78050  0.98250  0.26123  Biso   1.000  H
  C72      1.0000 0.78270  0.09370  0.27833  Biso   1.000  C
  H126     1.0000 0.82750  0.12150  0.26223  Biso   1.000  H
  H127     1.0000 0.79010  0.09000  0.31323  Biso   1.000  H
  H128     1.0000 0.75390  0.11470  0.27393  Biso   1.000  H
  C73      1.0000 0.65100  0.21360  0.31843  Biso   1.000  C
  H129     1.0000 0.70140  0.23460  0.31313  Biso   1.000  H
  H130     1.0000 0.64380  0.24550  0.33943  Biso   1.000  H
  C74      1.0000 0.62690  0.14710  0.34653  Biso   1.000  C
  H131     1.0000 0.58010  0.13190  0.35983  Biso   1.000  H
  H132     1.0000 0.62280  0.11070  0.32373  Biso   1.000  H
  C75      1.0000 0.67410  0.15320  0.38753  Biso   1.000  C
  H133     1.0000 0.64740  0.11490  0.41083  Biso   1.000  H
  H134     1.0000 0.68860  0.19730  0.40493  Biso   1.000  H
  C76      1.0000 0.73830  0.15090  0.37263  Biso   1.000  C
  H135     1.0000 0.77860  0.18680  0.39033  Biso   1.000  H
  H136     1.0000 0.74580  0.15940  0.33753  Biso   1.000  H
  H137     1.0000 0.73230  0.10520  0.38033  Biso   1.000  H
  H138     1.0000 0.62390  0.36850  0.27813  Biso   1.000  H
  H139     1.0000 0.77390  0.41590  0.21433  Biso   1.000  H
  H140     1.0000 0.81790  0.48630  0.24433  Biso   1.000  H
  H141     1.0000 0.77880  0.48630  0.19543  Biso   1.000  H
  H142     1.0000 0.70950  0.53110  0.24703  Biso   1.000  H
  H143     1.0000 0.75700  0.53240  0.29123  Biso   1.000  H
  H144     1.0000 0.67430  0.48770  0.29543  Biso   1.000  H
  Sn3      1.0000 0.15100  0.69493  0.64820  Biso   1.000  Sn
  O11      1.0000 0.76797  0.29199  0.61987  Biso   1.000  O
  O12      1.0000 0.80780  0.23206  0.66094  Biso   1.000  O
  O13      1.0000 0.06883  0.59023  0.62511  Biso   1.000  O
  O14      1.0000 0.12850  0.54402  0.65843  Biso   1.000  O
  N5       1.0000 0.89587  0.39676  0.60710  Biso   1.000  N
  C77      1.0000 0.95798  0.45573  0.60270  Biso   1.000  C
  C78      1.0000 0.01178  0.46911  0.63442  Biso   1.000  C
  C79      1.0000 0.07658  0.53937  0.63992  Biso   1.000  C
  C80      1.0000 0.00369  0.41640  0.66594  Biso   1.000  C
  H145     1.0000 0.04070  0.42330  0.68677  Biso   1.000  H
  C81      1.0000 0.94133  0.35366  0.66693  Biso   1.000  C
  H146     1.0000 0.93560  0.31640  0.68707  Biso   1.000  H
  C82      1.0000 0.88822  0.34730  0.63786  Biso   1.000  C
  C83      1.0000 0.81544  0.28496  0.63959  Biso   1.000  C
  C84      1.0000 0.23162  0.69302  0.60802  Biso   1.000  C
  H147     1.0000 0.25900  0.68200  0.63097  Biso   1.000  H
  H148     1.0000 0.20970  0.65420  0.58447  Biso   1.000  H
  C85      1.0000 0.28180  0.75770  0.58012  Biso   1.000  C
  H149     1.0000 0.30710  0.79610  0.60347  Biso   1.000  H
  H150     1.0000 0.25500  0.77100  0.55817  Biso   1.000  H
  C86      1.0000 0.33500  0.74850  0.54947  Biso   1.000  C
  H151     1.0000 0.36290  0.73680  0.57147  Biso   1.000  H
  H152     1.0000 0.30980  0.70910  0.52677  Biso   1.000  H
  C87      1.0000 0.38400  0.81350  0.52007  Biso   1.000  C
  H153     1.0000 0.41670  0.80490  0.50167  Biso   1.000  H
  H154     1.0000 0.40970  0.85260  0.54237  Biso   1.000  H
  H155     1.0000 0.35680  0.82450  0.49737  Biso   1.000  H
  C88      1.0000 0.11950  0.67070  0.71927  Biso   1.000  C
  H156     1.0000 0.06870  0.63920  0.71757  Biso   1.000  H
  H157     1.0000 0.13910  0.64170  0.73037  Biso   1.000  H
  C89      1.0000 0.13020  0.71850  0.76157  Biso   1.000  C
  H158     1.0000 0.11180  0.69090  0.79177  Biso   1.000  H
  H159     1.0000 0.18040  0.75090  0.76617  Biso   1.000  H
  C90      1.0000 0.09380  0.75930  0.75227  Biso   1.000  C
  H160     1.0000 0.04480  0.72700  0.74357  Biso   1.000  H
  H161     1.0000 0.11620  0.79120  0.72457  Biso   1.000  H
  C91      1.0000 0.09660  0.80180  0.79787  Biso   1.000  C
  H162     1.0000 0.06690  0.82210  0.79277  Biso   1.000  H
  H163     1.0000 0.14450  0.83900  0.80337  Biso   1.000  H
  H164     1.0000 0.08020  0.77120  0.82637  Biso   1.000  H
  O15      1.0000 0.67240  0.34380  0.58077  Biso   1.000  O
  C92      1.0000 0.62260  0.28740  0.59457  Biso   1.000  C
  N6       1.0000 0.55610  0.27110  0.58587  Biso   1.000  N
  C93      1.0000 0.54070  0.31710  0.55777  Biso   1.000  C
  C94      1.0000 0.49630  0.21020  0.60657  Biso   1.000  C
  C95      1.0000 0.10100  0.74000  0.60267  Biso   1.000  C
  H165     1.0000 0.12470  0.79090  0.60727  Biso   1.000  H
  H166     1.0000 0.10400  0.73040  0.56777  Biso   1.000  H
  C96      1.0000 0.02700  0.70800  0.61767  Biso   1.000  C
  H167     1.0000 0.02680  0.72110  0.65177  Biso   1.000  H
  H168     1.0000 0.00730  0.65740  0.61627  Biso   1.000  H
  C97      1.0000 0.97960  0.72550  0.58937  Biso   1.000  C
  H169     1.0000 0.97670  0.71040  0.55507  Biso   1.000  H
  H170     1.0000 0.99850  0.77630  0.58957  Biso   1.000  H
  C98      1.0000 0.91760  0.71600  0.58547  Biso   1.000  C
  H171     1.0000 0.90180  0.74190  0.56547  Biso   1.000  H
  H172     1.0000 0.90330  0.71540  0.61937  Biso   1.000  H
  H173     1.0000 0.89600  0.66790  0.57337  Biso   1.000  H
  C99      1.0000 0.78240  0.43540  0.65247  Biso   1.000  C
  H174     1.0000 0.74330  0.44430  0.65087  Biso   1.000  H
  H175     1.0000 0.77110  0.39900  0.67737  Biso   1.000  H
  C100     1.0000 0.84590  0.50060  0.66917  Biso   1.000  C
  H176     1.0000 0.88350  0.49020  0.67537  Biso   1.000  H
  H177     1.0000 0.86130  0.53530  0.64267  Biso   1.000  H
  C101     1.0000 0.83450  0.53150  0.71427  Biso   1.000  C
  H178     1.0000 0.80560  0.49360  0.73727  Biso   1.000  H
  H179     1.0000 0.80840  0.55520  0.70557  Biso   1.000  H
  C102     1.0000 0.90260  0.58410  0.74047  Biso   1.000  C
  H180     1.0000 0.89370  0.61470  0.76117  Biso   1.000  H
  H181     1.0000 0.93790  0.61190  0.71617  Biso   1.000  H
  H182     1.0000 0.91910  0.55890  0.76057  Biso   1.000  H
  C103     1.0000 0.12370  0.66020  0.72597  Biso   1.000  C
  H183     1.0000 0.08000  0.61500  0.72747  Biso   1.000  H
  H184     1.0000 0.16100  0.65480  0.74137  Biso   1.000  H
  C104     1.0000 0.11510  0.71590  0.75247  Biso   1.000  C
  H185     1.0000 0.16020  0.75980  0.75267  Biso   1.000  H
  H186     1.0000 0.08150  0.72430  0.73437  Biso   1.000  H
  C105     1.0000 0.09000  0.69620  0.80447  Biso   1.000  C
  H187     1.0000 0.11760  0.67790  0.82017  Biso   1.000  H
  H188     1.0000 0.04120  0.65810  0.80367  Biso   1.000  H
  C106     1.0000 0.09410  0.75510  0.83677  Biso   1.000  C
  H189     1.0000 0.08390  0.73920  0.87067  Biso   1.000  H
  H190     1.0000 0.06010  0.76770  0.82547  Biso   1.000  H
  H191     1.0000 0.14090  0.79570  0.83477  Biso   1.000  H
  C107     1.0000 0.09580  0.73600  0.61577  Biso   1.000  C
  H192     1.0000 0.11530  0.78290  0.63017  Biso   1.000  H
  H193     1.0000 0.11170  0.74380  0.58147  Biso   1.000  H
  C108     1.0000 0.02100  0.71000  0.61267  Biso   1.000  C
  H194     1.0000 0.00350  0.70700  0.64647  Biso   1.000  H
  H195     1.0000 0.99860  0.66180  0.60007  Biso   1.000  H
  C109     1.0000 0.99590  0.74960  0.58257  Biso   1.000  C
  H196     1.0000 0.01020  0.75090  0.54827  Biso   1.000  H
  H197     1.0000 0.01750  0.79800  0.59457  Biso   1.000  H
  C110     1.0000 0.90630  0.68900  0.61167  Biso   1.000  C
  H198     1.0000 0.87850  0.70600  0.59557  Biso   1.000  H
  H199     1.0000 0.91000  0.70010  0.64657  Biso   1.000  H
  H200     1.0000 0.88530  0.63920  0.60727  Biso   1.000  H
  C111     1.0000 0.78640  0.43740  0.65177  Biso   1.000  C
  H201     1.0000 0.76540  0.46680  0.64647  Biso   1.000  H
  H202     1.0000 0.75450  0.39830  0.67277  Biso   1.000  H
  C112     1.0000 0.85290  0.47980  0.67987  Biso   1.000  C
  H203     1.0000 0.86810  0.44820  0.69317  Biso   1.000  H
  H204     1.0000 0.88930  0.51210  0.65707  Biso   1.000  H
  C113     1.0000 0.84680  0.52090  0.72087  Biso   1.000  C
  H205     1.0000 0.88510  0.53250  0.74417  Biso   1.000  H
  H206     1.0000 0.80270  0.49130  0.73827  Biso   1.000  H
  C114     1.0000 0.84910  0.58740  0.70597  Biso   1.000  C
  H207     1.0000 0.81320  0.59180  0.72367  Biso   1.000  H
  H208     1.0000 0.84060  0.58640  0.67087  Biso   1.000  H
  H209     1.0000 0.89480  0.62710  0.71367  Biso   1.000  H
  H210     1.0000 0.63150  0.25540  0.61147  Biso   1.000  H
  H211     1.0000 0.58410  0.35800  0.54767  Biso   1.000  H
  H212     1.0000 0.51370  0.33160  0.57767  Biso   1.000  H
  H213     1.0000 0.51370  0.29250  0.52877  Biso   1.000  H
  H214     1.0000 0.46890  0.17840  0.58037  Biso   1.000  H
  H215     1.0000 0.46760  0.22460  0.62457  Biso   1.000  H
  H216     1.0000 0.51230  0.18660  0.62877  Biso   1.000  H
  Sn4      1.0000 0.69493  0.54393  0.48153  Biso   1.000  Sn
  O16      1.0000 0.29199  0.52402  0.45320  Biso   1.000  O
  O17      1.0000 0.23206  0.42426  0.49427  Biso   1.000  O
  O18      1.0000 0.59023  0.52140  0.45844  Biso   1.000  O
  O19      1.0000 0.54402  0.41552  0.49176  Biso   1.000  O
  N7       1.0000 0.39676  0.50089  0.44043  Biso   1.000  N
  C115     1.0000 0.45573  0.49775  0.43603  Biso   1.000  C
  C116     1.0000 0.46911  0.45733  0.46775  Biso   1.000  C
  C117     1.0000 0.53937  0.46279  0.47325  Biso   1.000  C
  C118     1.0000 0.41640  0.41271  0.49927  Biso   1.000  C
  H217     1.0000 0.42330  0.38260  0.52010  Biso   1.000  H
  C119     1.0000 0.35366  0.41233  0.50026  Biso   1.000  C
  H218     1.0000 0.31640  0.38080  0.52040  Biso   1.000  H
  C120     1.0000 0.34730  0.45908  0.47119  Biso   1.000  C
  C121     1.0000 0.28496  0.46952  0.47292  Biso   1.000  C
  C122     1.0000 0.69302  0.46140  0.44135  Biso   1.000  C
  H219     1.0000 0.68200  0.42300  0.46430  Biso   1.000  H
  H220     1.0000 0.65420  0.44450  0.41780  Biso   1.000  H
  C123     1.0000 0.75770  0.47590  0.41345  Biso   1.000  C
  H221     1.0000 0.79610  0.48900  0.43680  Biso   1.000  H
  H222     1.0000 0.77100  0.51600  0.39150  Biso   1.000  H
  C124     1.0000 0.74850  0.41350  0.38280  Biso   1.000  C
  H223     1.0000 0.73680  0.37390  0.40480  Biso   1.000  H
  H224     1.0000 0.70910  0.39930  0.36010  Biso   1.000  H
  C125     1.0000 0.81350  0.42950  0.35340  Biso   1.000  C
  H225     1.0000 0.80490  0.38820  0.33500  Biso   1.000  H
  H226     1.0000 0.85260  0.44290  0.37570  Biso   1.000  H
  H227     1.0000 0.82450  0.46770  0.33070  Biso   1.000  H
  C126     1.0000 0.67070  0.55120  0.55260  Biso   1.000  C
  H228     1.0000 0.63920  0.57050  0.55090  Biso   1.000  H
  H229     1.0000 0.64170  0.50260  0.56370  Biso   1.000  H
  C127     1.0000 0.71850  0.58830  0.59490  Biso   1.000  C
  H230     1.0000 0.69090  0.57910  0.62510  Biso   1.000  H
  H231     1.0000 0.75090  0.57050  0.59950  Biso   1.000  H
  C128     1.0000 0.75930  0.66550  0.58560  Biso   1.000  C
  H232     1.0000 0.72700  0.68220  0.57690  Biso   1.000  H
  H233     1.0000 0.79120  0.67500  0.55790  Biso   1.000  H
  C129     1.0000 0.80180  0.70520  0.63120  Biso   1.000  C
  H234     1.0000 0.82210  0.75520  0.62610  Biso   1.000  H
  H235     1.0000 0.83900  0.69450  0.63670  Biso   1.000  H
  H236     1.0000 0.77120  0.69100  0.65970  Biso   1.000  H
  O20      1.0000 0.34380  0.67140  0.41410  Biso   1.000  O
  C130     1.0000 0.28740  0.66480  0.42790  Biso   1.000  C
  N8       1.0000 0.27110  0.71500  0.41920  Biso   1.000  N
  C131     1.0000 0.31710  0.77640  0.39110  Biso   1.000  C
  C132     1.0000 0.21020  0.71390  0.43990  Biso   1.000  C
  C133     1.0000 0.74000  0.63900  0.43600  Biso   1.000  C
  H237     1.0000 0.79090  0.66620  0.44060  Biso   1.000  H
  H238     1.0000 0.73040  0.62640  0.40110  Biso   1.000  H
  C134     1.0000 0.70800  0.68100  0.45100  Biso   1.000  C
  H239     1.0000 0.72110  0.69430  0.48510  Biso   1.000  H
  H240     1.0000 0.65740  0.65010  0.44960  Biso   1.000  H
  C135     1.0000 0.72550  0.74590  0.42270  Biso   1.000  C
  H241     1.0000 0.71040  0.73370  0.38840  Biso   1.000  H
  H242     1.0000 0.77630  0.77780  0.42290  Biso   1.000  H
  C136     1.0000 0.71600  0.79840  0.41880  Biso   1.000  C
  H243     1.0000 0.74190  0.84010  0.39880  Biso   1.000  H
  H244     1.0000 0.71540  0.81210  0.45270  Biso   1.000  H
  H245     1.0000 0.66790  0.77190  0.40670  Biso   1.000  H
  C137     1.0000 0.43540  0.65300  0.48580  Biso   1.000  C
  H246     1.0000 0.44430  0.70100  0.48420  Biso   1.000  H
  H247     1.0000 0.39900  0.62790  0.51070  Biso   1.000  H
  C138     1.0000 0.50060  0.65470  0.50250  Biso   1.000  C
  H248     1.0000 0.49020  0.60670  0.50870  Biso   1.000  H
  H249     1.0000 0.53530  0.67400  0.47600  Biso   1.000  H
  C139     1.0000 0.53150  0.69700  0.54760  Biso   1.000  C
  H250     1.0000 0.49360  0.68800  0.57060  Biso   1.000  H
  H251     1.0000 0.55520  0.74680  0.53890  Biso   1.000  H
  C140     1.0000 0.58410  0.68150  0.57380  Biso   1.000  C
  H252     1.0000 0.61470  0.72100  0.59450  Biso   1.000  H
  H253     1.0000 0.61190  0.67400  0.54950  Biso   1.000  H
  H254     1.0000 0.55890  0.63980  0.59390  Biso   1.000  H
  C141     1.0000 0.66020  0.53650  0.55930  Biso   1.000  C
  H255     1.0000 0.61500  0.53500  0.56080  Biso   1.000  H
  H256     1.0000 0.65480  0.49380  0.57470  Biso   1.000  H
  C142     1.0000 0.71590  0.60080  0.58580  Biso   1.000  C
  H257     1.0000 0.75980  0.59960  0.58600  Biso   1.000  H
  H258     1.0000 0.72430  0.64280  0.56770  Biso   1.000  H
  C143     1.0000 0.69620  0.60620  0.63780  Biso   1.000  C
  H259     1.0000 0.67790  0.56030  0.65350  Biso   1.000  H
  H260     1.0000 0.65810  0.61690  0.63700  Biso   1.000  H
  C144     1.0000 0.75510  0.66100  0.67010  Biso   1.000  C
  H261     1.0000 0.73920  0.65530  0.70400  Biso   1.000  H
  H262     1.0000 0.76770  0.70760  0.65880  Biso   1.000  H
  H263     1.0000 0.79570  0.65480  0.66810  Biso   1.000  H
  C145     1.0000 0.73600  0.64020  0.44910  Biso   1.000  C
  H264     1.0000 0.78290  0.66760  0.46350  Biso   1.000  H
  H265     1.0000 0.74380  0.63210  0.41480  Biso   1.000  H
  C146     1.0000 0.71000  0.68900  0.44600  Biso   1.000  C
  H266     1.0000 0.70700  0.70350  0.47980  Biso   1.000  H
  H267     1.0000 0.66180  0.66320  0.43340  Biso   1.000  H
  C147     1.0000 0.74960  0.75370  0.41590  Biso   1.000  C
  H268     1.0000 0.75090  0.74070  0.38160  Biso   1.000  H
  H269     1.0000 0.79800  0.78050  0.42790  Biso   1.000  H
  C148     1.0000 0.68900  0.78270  0.44500  Biso   1.000  C
  H270     1.0000 0.70600  0.82750  0.42890  Biso   1.000  H
  H271     1.0000 0.70010  0.79010  0.47990  Biso   1.000  H
  H272     1.0000 0.63920  0.75390  0.44060  Biso   1.000  H
  C149     1.0000 0.43740  0.65100  0.48510  Biso   1.000  C
  H273     1.0000 0.46680  0.70140  0.47980  Biso   1.000  H
  H274     1.0000 0.39830  0.64380  0.50610  Biso   1.000  H
  C150     1.0000 0.47980  0.62690  0.51320  Biso   1.000  C
  H275     1.0000 0.44820  0.58010  0.52650  Biso   1.000  H
  H276     1.0000 0.51210  0.62280  0.49040  Biso   1.000  H
  C151     1.0000 0.52090  0.67410  0.55420  Biso   1.000  C
  H277     1.0000 0.53250  0.64740  0.57750  Biso   1.000  H
  H278     1.0000 0.49130  0.68860  0.57160  Biso   1.000  H
  C152     1.0000 0.58740  0.73830  0.53930  Biso   1.000  C
  H279     1.0000 0.59180  0.77860  0.55700  Biso   1.000  H
  H280     1.0000 0.58640  0.74580  0.50420  Biso   1.000  H
  H281     1.0000 0.62710  0.73230  0.54700  Biso   1.000  H
  H282     1.0000 0.25540  0.62390  0.44480  Biso   1.000  H
  H283     1.0000 0.35800  0.77390  0.38100  Biso   1.000  H
  H284     1.0000 0.33160  0.81790  0.41100  Biso   1.000  H
  H285     1.0000 0.29250  0.77880  0.36210  Biso   1.000  H
  H286     1.0000 0.17840  0.70950  0.41370  Biso   1.000  H
  H287     1.0000 0.22460  0.75700  0.45790  Biso   1.000  H
  H288     1.0000 0.18660  0.67430  0.46210  Biso   1.000  H
  Sn5      1.0000 0.45607  0.15100  0.81486  Biso   1.000  Sn
  O21      1.0000 0.47598  0.76797  0.78653  Biso   1.000  O
  O22      1.0000 0.57574  0.80780  0.82760  Biso   1.000  O
  O23      1.0000 0.47860  0.06883  0.79177  Biso   1.000  O
  O24      1.0000 0.58448  0.12850  0.82509  Biso   1.000  O
  N9       1.0000 0.49911  0.89587  0.77376  Biso   1.000  N
  C153     1.0000 0.50225  0.95798  0.76936  Biso   1.000  C
  C154     1.0000 0.54267  0.01178  0.80108  Biso   1.000  C
  C155     1.0000 0.53721  0.07658  0.80658  Biso   1.000  C
  C156     1.0000 0.58729  0.00369  0.83260  Biso   1.000  C
  H289     1.0000 0.61740  0.04070  0.85343  Biso   1.000  H
  C157     1.0000 0.58767  0.94133  0.83359  Biso   1.000  C
  H290     1.0000 0.61920  0.93560  0.85373  Biso   1.000  H
  C158     1.0000 0.54092  0.88822  0.80452  Biso   1.000  C
  C159     1.0000 0.53048  0.81544  0.80625  Biso   1.000  C
  C160     1.0000 0.53860  0.23162  0.77468  Biso   1.000  C
  H291     1.0000 0.57700  0.25900  0.79763  Biso   1.000  H
  H292     1.0000 0.55550  0.20970  0.75113  Biso   1.000  H
  C161     1.0000 0.52410  0.28180  0.74678  Biso   1.000  C
  H293     1.0000 0.51100  0.30710  0.77013  Biso   1.000  H
  H294     1.0000 0.48400  0.25500  0.72483  Biso   1.000  H
  C162     1.0000 0.58650  0.33500  0.71613  Biso   1.000  C
  H295     1.0000 0.62610  0.36290  0.73813  Biso   1.000  H
  H296     1.0000 0.60070  0.30980  0.69343  Biso   1.000  H
  C163     1.0000 0.57050  0.38400  0.68673  Biso   1.000  C
  H297     1.0000 0.61180  0.41670  0.66833  Biso   1.000  H
  H298     1.0000 0.55710  0.40970  0.70903  Biso   1.000  H
  H299     1.0000 0.53230  0.35680  0.66403  Biso   1.000  H
  C164     1.0000 0.44880  0.11950  0.88593  Biso   1.000  C
  H300     1.0000 0.42950  0.06870  0.88423  Biso   1.000  H
  H301     1.0000 0.49740  0.13910  0.89703  Biso   1.000  H
  C165     1.0000 0.41170  0.13020  0.92823  Biso   1.000  C
  H302     1.0000 0.42090  0.11180  0.95843  Biso   1.000  H
  H303     1.0000 0.42950  0.18040  0.93283  Biso   1.000  H
  C166     1.0000 0.33450  0.09380  0.91893  Biso   1.000  C
  H304     1.0000 0.31780  0.04480  0.91023  Biso   1.000  H
  H305     1.0000 0.32500  0.11620  0.89123  Biso   1.000  H
  C167     1.0000 0.29480  0.09660  0.96453  Biso   1.000  C
  H306     1.0000 0.24480  0.06690  0.95943  Biso   1.000  H
  H307     1.0000 0.30550  0.14450  0.97003  Biso   1.000  H
  H308     1.0000 0.30900  0.08020  0.99303  Biso   1.000  H
  O25      1.0000 0.32860  0.67240  0.74743  Biso   1.000  O
  C168     1.0000 0.33520  0.62260  0.76123  Biso   1.000  C
  N10      1.0000 0.28500  0.55610  0.75253  Biso   1.000  N
  C169     1.0000 0.22360  0.54070  0.72443  Biso   1.000  C
  C170     1.0000 0.28610  0.49630  0.77323  Biso   1.000  C
  C171     1.0000 0.36100  0.10100  0.76933  Biso   1.000  C
  H309     1.0000 0.33380  0.12470  0.77393  Biso   1.000  H
  H310     1.0000 0.37360  0.10400  0.73443  Biso   1.000  H
  C172     1.0000 0.31900  0.02700  0.78433  Biso   1.000  C
  H311     1.0000 0.30570  0.02680  0.81843  Biso   1.000  H
  H312     1.0000 0.34990  0.00730  0.78293  Biso   1.000  H
  C173     1.0000 0.25410  0.97960  0.75603  Biso   1.000  C
  H313     1.0000 0.26630  0.97670  0.72173  Biso   1.000  H
  H314     1.0000 0.22220  0.99850  0.75623  Biso   1.000  H
  C174     1.0000 0.20160  0.91760  0.75213  Biso   1.000  C
  H315     1.0000 0.15990  0.90180  0.73213  Biso   1.000  H
  H316     1.0000 0.18790  0.90330  0.78603  Biso   1.000  H
  H317     1.0000 0.22810  0.89600  0.74003  Biso   1.000  H
  C175     1.0000 0.34700  0.78240  0.81913  Biso   1.000  C
  H318     1.0000 0.29900  0.74330  0.81753  Biso   1.000  H
  H319     1.0000 0.37210  0.77110  0.84403  Biso   1.000  H
  C176     1.0000 0.34530  0.84590  0.83583  Biso   1.000  C
  H320     1.0000 0.39330  0.88350  0.84203  Biso   1.000  H
  H321     1.0000 0.32600  0.86130  0.80933  Biso   1.000  H
  C177     1.0000 0.30300  0.83450  0.88093  Biso   1.000  C
  H322     1.0000 0.31200  0.80560  0.90393  Biso   1.000  H
  H323     1.0000 0.25320  0.80840  0.87223  Biso   1.000  H
  C178     1.0000 0.31850  0.90260  0.90713  Biso   1.000  C
  H324     1.0000 0.27900  0.89370  0.92783  Biso   1.000  H
  H325     1.0000 0.32600  0.93790  0.88283  Biso   1.000  H
  H326     1.0000 0.36020  0.91910  0.92723  Biso   1.000  H
  C179     1.0000 0.46350  0.12370  0.89263  Biso   1.000  C
  H327     1.0000 0.46500  0.08000  0.89413  Biso   1.000  H
  H328     1.0000 0.50620  0.16100  0.90803  Biso   1.000  H
  C180     1.0000 0.39920  0.11510  0.91913  Biso   1.000  C
  H329     1.0000 0.40040  0.16020  0.91933  Biso   1.000  H
  H330     1.0000 0.35720  0.08150  0.90103  Biso   1.000  H
  C181     1.0000 0.39380  0.09000  0.97113  Biso   1.000  C
  H331     1.0000 0.43970  0.11760  0.98683  Biso   1.000  H
  H332     1.0000 0.38310  0.04120  0.97033  Biso   1.000  H
  C182     1.0000 0.33900  0.09410  0.00343  Biso   1.000  C
  H333     1.0000 0.34470  0.08390  0.03733  Biso   1.000  H
  H334     1.0000 0.29240  0.06010  0.99213  Biso   1.000  H
  H335     1.0000 0.34520  0.14090  0.00143  Biso   1.000  H
  C183     1.0000 0.35980  0.09580  0.78243  Biso   1.000  C
  H336     1.0000 0.33240  0.11530  0.79683  Biso   1.000  H
  H337     1.0000 0.36790  0.11170  0.74813  Biso   1.000  H
  C184     1.0000 0.31100  0.02100  0.77933  Biso   1.000  C
  H338     1.0000 0.29650  0.00350  0.81313  Biso   1.000  H
  H339     1.0000 0.33680  0.99860  0.76673  Biso   1.000  H
  C185     1.0000 0.24630  0.99590  0.74923  Biso   1.000  C
  H340     1.0000 0.25930  0.01020  0.71493  Biso   1.000  H
  H341     1.0000 0.21950  0.01750  0.76123  Biso   1.000  H
  C186     1.0000 0.21730  0.90630  0.77833  Biso   1.000  C
  H342     1.0000 0.17250  0.87850  0.76223  Biso   1.000  H
  H343     1.0000 0.20990  0.91000  0.81323  Biso   1.000  H
  H344     1.0000 0.24610  0.88530  0.77393  Biso   1.000  H
  C187     1.0000 0.34900  0.78640  0.81843  Biso   1.000  C
  H345     1.0000 0.29860  0.76540  0.81313  Biso   1.000  H
  H346     1.0000 0.35620  0.75450  0.83943  Biso   1.000  H
  C188     1.0000 0.37310  0.85290  0.84653  Biso   1.000  C
  H347     1.0000 0.41990  0.86810  0.85983  Biso   1.000  H
  H348     1.0000 0.37720  0.88930  0.82373  Biso   1.000  H
  C189     1.0000 0.32590  0.84680  0.88753  Biso   1.000  C
  H349     1.0000 0.35260  0.88510  0.91083  Biso   1.000  H
  H350     1.0000 0.31140  0.80270  0.90493  Biso   1.000  H
  C190     1.0000 0.26170  0.84910  0.87263  Biso   1.000  C
  H351     1.0000 0.22140  0.81320  0.89033  Biso   1.000  H
  H352     1.0000 0.25420  0.84060  0.83753  Biso   1.000  H
  H353     1.0000 0.26770  0.89480  0.88033  Biso   1.000  H
  H354     1.0000 0.37610  0.63150  0.77813  Biso   1.000  H
  H355     1.0000 0.22610  0.58410  0.71433  Biso   1.000  H
  H356     1.0000 0.18210  0.51370  0.74433  Biso   1.000  H
  H357     1.0000 0.22120  0.51370  0.69543  Biso   1.000  H
  H358     1.0000 0.29050  0.46890  0.74703  Biso   1.000  H
  H359     1.0000 0.24300  0.46760  0.79123  Biso   1.000  H
  H360     1.0000 0.32570  0.51230  0.79543  Biso   1.000  H
  Sn6      1.0000 0.84900  0.30507  0.14820  Biso   1.000  Sn
  O26      1.0000 0.23203  0.70801  0.11987  Biso   1.000  O
  O27      1.0000 0.19220  0.76794  0.16094  Biso   1.000  O
  O28      1.0000 0.93117  0.40977  0.12511  Biso   1.000  O
  O29      1.0000 0.87150  0.45598  0.15843  Biso   1.000  O
  N11      1.0000 0.10413  0.60324  0.10710  Biso   1.000  N
  C191     1.0000 0.04202  0.54427  0.10270  Biso   1.000  C
  C192     1.0000 0.98822  0.53089  0.13442  Biso   1.000  C
  C193     1.0000 0.92342  0.46063  0.13992  Biso   1.000  C
  C194     1.0000 0.99631  0.58360  0.16594  Biso   1.000  C
  H361     1.0000 0.95930  0.57670  0.18677  Biso   1.000  H
  C195     1.0000 0.05867  0.64634  0.16693  Biso   1.000  C
  H362     1.0000 0.06440  0.68360  0.18707  Biso   1.000  H
  C196     1.0000 0.11178  0.65270  0.13786  Biso   1.000  C
  C197     1.0000 0.18456  0.71504  0.13959  Biso   1.000  C
  C198     1.0000 0.76838  0.30698  0.10802  Biso   1.000  C
  H363     1.0000 0.74100  0.31800  0.13097  Biso   1.000  H
  H364     1.0000 0.79030  0.34580  0.08447  Biso   1.000  H
  C199     1.0000 0.71820  0.24230  0.08012  Biso   1.000  C
  H365     1.0000 0.69290  0.20390  0.10347  Biso   1.000  H
  H366     1.0000 0.74500  0.22900  0.05817  Biso   1.000  H
  C200     1.0000 0.66500  0.25150  0.04947  Biso   1.000  C
  H367     1.0000 0.63710  0.26320  0.07147  Biso   1.000  H
  H368     1.0000 0.69020  0.29090  0.02677  Biso   1.000  H
  C201     1.0000 0.61600  0.18650  0.02007  Biso   1.000  C
  H369     1.0000 0.58330  0.19510  0.00167  Biso   1.000  H
  H370     1.0000 0.59030  0.14740  0.04237  Biso   1.000  H
  H371     1.0000 0.64320  0.17550  0.99737  Biso   1.000  H
  C202     1.0000 0.88050  0.32930  0.21927  Biso   1.000  C
  H372     1.0000 0.93130  0.36080  0.21757  Biso   1.000  H
  H373     1.0000 0.86090  0.35830  0.23037  Biso   1.000  H
  C203     1.0000 0.86980  0.28150  0.26157  Biso   1.000  C
  H374     1.0000 0.88820  0.30910  0.29177  Biso   1.000  H
  H375     1.0000 0.81960  0.24910  0.26617  Biso   1.000  H
  C204     1.0000 0.90620  0.24070  0.25227  Biso   1.000  C
  H376     1.0000 0.95520  0.27300  0.24357  Biso   1.000  H
  H377     1.0000 0.88380  0.20880  0.22457  Biso   1.000  H
  C205     1.0000 0.90340  0.19820  0.29787  Biso   1.000  C
  H378     1.0000 0.93310  0.17790  0.29277  Biso   1.000  H
  H379     1.0000 0.85550  0.16100  0.30337  Biso   1.000  H
  H380     1.0000 0.91980  0.22880  0.32637  Biso   1.000  H
  O30      1.0000 0.32760  0.65620  0.08077  Biso   1.000  O
  C206     1.0000 0.37740  0.71260  0.09457  Biso   1.000  C
  N12      1.0000 0.44390  0.72890  0.08587  Biso   1.000  N
  C207     1.0000 0.45930  0.68290  0.05777  Biso   1.000  C
  C208     1.0000 0.50370  0.78980  0.10657  Biso   1.000  C
  C209     1.0000 0.89900  0.26000  0.10267  Biso   1.000  C
  H381     1.0000 0.87530  0.20910  0.10727  Biso   1.000  H
  H382     1.0000 0.89600  0.26960  0.06777  Biso   1.000  H
  C210     1.0000 0.97300  0.29200  0.11767  Biso   1.000  C
  H383     1.0000 0.97320  0.27890  0.15177  Biso   1.000  H
  H384     1.0000 0.99270  0.34260  0.11627  Biso   1.000  H
  C211     1.0000 0.02040  0.27450  0.08937  Biso   1.000  C
  H385     1.0000 0.02330  0.28960  0.05507  Biso   1.000  H
  H386     1.0000 0.00150  0.22370  0.08957  Biso   1.000  H
  C212     1.0000 0.08240  0.28400  0.08547  Biso   1.000  C
  H387     1.0000 0.09820  0.25810  0.06547  Biso   1.000  H
  H388     1.0000 0.09670  0.28460  0.11937  Biso   1.000  H
  H389     1.0000 0.10400  0.33210  0.07337  Biso   1.000  H
  C213     1.0000 0.21760  0.56460  0.15247  Biso   1.000  C
  H390     1.0000 0.25670  0.55570  0.15087  Biso   1.000  H
  H391     1.0000 0.22890  0.60100  0.17737  Biso   1.000  H
  C214     1.0000 0.15410  0.49940  0.16917  Biso   1.000  C
  H392     1.0000 0.11650  0.50980  0.17537  Biso   1.000  H
  H393     1.0000 0.13870  0.46470  0.14267  Biso   1.000  H
  C215     1.0000 0.16550  0.46850  0.21427  Biso   1.000  C
  H394     1.0000 0.19440  0.50640  0.23727  Biso   1.000  H
  H395     1.0000 0.19160  0.44480  0.20557  Biso   1.000  H
  C216     1.0000 0.09740  0.41590  0.24047  Biso   1.000  C
  H396     1.0000 0.10630  0.38530  0.26117  Biso   1.000  H
  H397     1.0000 0.06210  0.38810  0.21617  Biso   1.000  H
  H398     1.0000 0.08090  0.44110  0.26057  Biso   1.000  H
  C217     1.0000 0.87630  0.33980  0.22597  Biso   1.000  C
  H399     1.0000 0.92000  0.38500  0.22747  Biso   1.000  H
  H400     1.0000 0.83900  0.34520  0.24137  Biso   1.000  H
  C218     1.0000 0.88490  0.28410  0.25247  Biso   1.000  C
  H401     1.0000 0.83980  0.24020  0.25267  Biso   1.000  H
  H402     1.0000 0.91850  0.27570  0.23437  Biso   1.000  H
  C219     1.0000 0.91000  0.30380  0.30447  Biso   1.000  C
  H403     1.0000 0.88240  0.32210  0.32017  Biso   1.000  H
  H404     1.0000 0.95880  0.34190  0.30367  Biso   1.000  H
  C220     1.0000 0.90590  0.24490  0.33677  Biso   1.000  C
  H405     1.0000 0.91610  0.26080  0.37067  Biso   1.000  H
  H406     1.0000 0.93990  0.23230  0.32547  Biso   1.000  H
  H407     1.0000 0.85910  0.20430  0.33477  Biso   1.000  H
  C221     1.0000 0.90420  0.26400  0.11577  Biso   1.000  C
  H408     1.0000 0.88470  0.21710  0.13017  Biso   1.000  H
  H409     1.0000 0.88830  0.25620  0.08147  Biso   1.000  H
  C222     1.0000 0.97900  0.29000  0.11267  Biso   1.000  C
  H410     1.0000 0.99650  0.29300  0.14647  Biso   1.000  H
  H411     1.0000 0.00140  0.33820  0.10007  Biso   1.000  H
  C223     1.0000 0.00410  0.25040  0.08257  Biso   1.000  C
  H412     1.0000 0.98980  0.24910  0.04827  Biso   1.000  H
  H413     1.0000 0.98250  0.20200  0.09457  Biso   1.000  H
  C224     1.0000 0.09370  0.31100  0.11167  Biso   1.000  C
  H414     1.0000 0.12150  0.29400  0.09557  Biso   1.000  H
  H415     1.0000 0.09000  0.29990  0.14657  Biso   1.000  H
  H416     1.0000 0.11470  0.36080  0.10727  Biso   1.000  H
  C225     1.0000 0.21360  0.56260  0.15177  Biso   1.000  C
  H417     1.0000 0.23460  0.53320  0.14647  Biso   1.000  H
  H418     1.0000 0.24550  0.60170  0.17277  Biso   1.000  H
  C226     1.0000 0.14710  0.52020  0.17987  Biso   1.000  C
  H419     1.0000 0.13190  0.55180  0.19317  Biso   1.000  H
  H420     1.0000 0.11070  0.48790  0.15707  Biso   1.000  H
  C227     1.0000 0.15320  0.47910  0.22087  Biso   1.000  C
  H421     1.0000 0.11490  0.46750  0.24417  Biso   1.000  H
  H422     1.0000 0.19730  0.50870  0.23827  Biso   1.000  H
  C228     1.0000 0.15090  0.41260  0.20597  Biso   1.000  C
  H423     1.0000 0.18680  0.40820  0.22367  Biso   1.000  H
  H424     1.0000 0.15940  0.41360  0.17087  Biso   1.000  H
  H425     1.0000 0.10520  0.37290  0.21367  Biso   1.000  H
  H426     1.0000 0.36850  0.74460  0.11147  Biso   1.000  H
  H427     1.0000 0.41590  0.64200  0.04767  Biso   1.000  H
  H428     1.0000 0.48630  0.66840  0.07767  Biso   1.000  H
  H429     1.0000 0.48630  0.70750  0.02877  Biso   1.000  H
  H430     1.0000 0.53110  0.82160  0.08037  Biso   1.000  H
  H431     1.0000 0.53240  0.77540  0.12457  Biso   1.000  H
  H432     1.0000 0.48770  0.81340  0.12877  Biso   1.000  H
  Sn7      1.0000 0.45607  0.30507  0.35180  Biso   1.000  Sn
  O31      1.0000 0.47598  0.70801  0.38013  Biso   1.000  O
  O32      1.0000 0.57574  0.76794  0.33906  Biso   1.000  O
  O33      1.0000 0.47860  0.40977  0.37489  Biso   1.000  O
  O34      1.0000 0.58448  0.45598  0.34157  Biso   1.000  O
  N13      1.0000 0.49911  0.60324  0.39290  Biso   1.000  N
  C229     1.0000 0.50225  0.54427  0.39730  Biso   1.000  C
  C230     1.0000 0.54267  0.53089  0.36558  Biso   1.000  C
  C231     1.0000 0.53721  0.46063  0.36008  Biso   1.000  C
  C232     1.0000 0.58729  0.58360  0.33406  Biso   1.000  C
  H433     1.0000 0.61740  0.57670  0.31323  Biso   1.000  H
  C233     1.0000 0.58767  0.64634  0.33307  Biso   1.000  C
  H434     1.0000 0.61920  0.68360  0.31293  Biso   1.000  H
  C234     1.0000 0.54092  0.65270  0.36214  Biso   1.000  C
  C235     1.0000 0.53048  0.71504  0.36041  Biso   1.000  C
  C236     1.0000 0.53860  0.30698  0.39198  Biso   1.000  C
  H435     1.0000 0.57700  0.31800  0.36903  Biso   1.000  H
  H436     1.0000 0.55550  0.34580  0.41553  Biso   1.000  H
  C237     1.0000 0.52410  0.24230  0.41988  Biso   1.000  C
  H437     1.0000 0.51100  0.20390  0.39653  Biso   1.000  H
  H438     1.0000 0.48400  0.22900  0.44183  Biso   1.000  H
  C238     1.0000 0.58650  0.25150  0.45053  Biso   1.000  C
  H439     1.0000 0.62610  0.26320  0.42853  Biso   1.000  H
  H440     1.0000 0.60070  0.29090  0.47323  Biso   1.000  H
  C239     1.0000 0.57050  0.18650  0.47993  Biso   1.000  C
  H441     1.0000 0.61180  0.19510  0.49833  Biso   1.000  H
  H442     1.0000 0.55710  0.14740  0.45763  Biso   1.000  H
  H443     1.0000 0.53230  0.17550  0.50263  Biso   1.000  H
  C240     1.0000 0.44880  0.32930  0.28073  Biso   1.000  C
  H444     1.0000 0.42950  0.36080  0.28243  Biso   1.000  H
  H445     1.0000 0.49740  0.35830  0.26963  Biso   1.000  H
  C241     1.0000 0.41170  0.28150  0.23843  Biso   1.000  C
  H446     1.0000 0.42090  0.30910  0.20823  Biso   1.000  H
  H447     1.0000 0.42950  0.24910  0.23383  Biso   1.000  H
  C242     1.0000 0.33450  0.24070  0.24773  Biso   1.000  C
  H448     1.0000 0.31780  0.27300  0.25643  Biso   1.000  H
  H449     1.0000 0.32500  0.20880  0.27543  Biso   1.000  H
  C243     1.0000 0.29480  0.19820  0.20213  Biso   1.000  C
  H450     1.0000 0.24480  0.17790  0.20723  Biso   1.000  H
  H451     1.0000 0.30550  0.16100  0.19663  Biso   1.000  H
  H452     1.0000 0.30900  0.22880  0.17363  Biso   1.000  H
  O35      1.0000 0.32860  0.65620  0.41923  Biso   1.000  O
  C244     1.0000 0.33520  0.71260  0.40543  Biso   1.000  C
  N14      1.0000 0.28500  0.72890  0.41413  Biso   1.000  N
  C245     1.0000 0.22360  0.68290  0.44223  Biso   1.000  C
  C246     1.0000 0.28610  0.78980  0.39343  Biso   1.000  C
  C247     1.0000 0.36100  0.26000  0.39733  Biso   1.000  C
  H453     1.0000 0.33380  0.20910  0.39273  Biso   1.000  H
  H454     1.0000 0.37360  0.26960  0.43223  Biso   1.000  H
  C248     1.0000 0.31900  0.29200  0.38233  Biso   1.000  C
  H455     1.0000 0.30570  0.27890  0.34823  Biso   1.000  H
  H456     1.0000 0.34990  0.34260  0.38373  Biso   1.000  H
  C249     1.0000 0.25410  0.27450  0.41063  Biso   1.000  C
  H457     1.0000 0.26630  0.28960  0.44493  Biso   1.000  H
  H458     1.0000 0.22220  0.22370  0.41043  Biso   1.000  H
  C250     1.0000 0.20160  0.28400  0.41453  Biso   1.000  C
  H459     1.0000 0.15990  0.25810  0.43453  Biso   1.000  H
  H460     1.0000 0.18790  0.28460  0.38063  Biso   1.000  H
  H461     1.0000 0.22810  0.33210  0.42663  Biso   1.000  H
  C251     1.0000 0.34700  0.56460  0.34753  Biso   1.000  C
  H462     1.0000 0.29900  0.55570  0.34913  Biso   1.000  H
  H463     1.0000 0.37210  0.60100  0.32263  Biso   1.000  H
  C252     1.0000 0.34530  0.49940  0.33083  Biso   1.000  C
  H464     1.0000 0.39330  0.50980  0.32463  Biso   1.000  H
  H465     1.0000 0.32600  0.46470  0.35733  Biso   1.000  H
  C253     1.0000 0.30300  0.46850  0.28573  Biso   1.000  C
  H466     1.0000 0.31200  0.50640  0.26273  Biso   1.000  H
  H467     1.0000 0.25320  0.44480  0.29443  Biso   1.000  H
  C254     1.0000 0.31850  0.41590  0.25953  Biso   1.000  C
  H468     1.0000 0.27900  0.38530  0.23883  Biso   1.000  H
  H469     1.0000 0.32600  0.38810  0.28383  Biso   1.000  H
  H470     1.0000 0.36020  0.44110  0.23943  Biso   1.000  H
  C255     1.0000 0.46350  0.33980  0.27403  Biso   1.000  C
  H471     1.0000 0.46500  0.38500  0.27253  Biso   1.000  H
  H472     1.0000 0.50620  0.34520  0.25863  Biso   1.000  H
  C256     1.0000 0.39920  0.28410  0.24753  Biso   1.000  C
  H473     1.0000 0.40040  0.24020  0.24733  Biso   1.000  H
  H474     1.0000 0.35720  0.27570  0.26563  Biso   1.000  H
  C257     1.0000 0.39380  0.30380  0.19553  Biso   1.000  C
  H475     1.0000 0.43970  0.32210  0.17983  Biso   1.000  H
  H476     1.0000 0.38310  0.34190  0.19633  Biso   1.000  H
  C258     1.0000 0.33900  0.24490  0.16323  Biso   1.000  C
  H477     1.0000 0.34470  0.26080  0.12933  Biso   1.000  H
  H478     1.0000 0.29240  0.23230  0.17453  Biso   1.000  H
  H479     1.0000 0.34520  0.20430  0.16523  Biso   1.000  H
  C259     1.0000 0.35980  0.26400  0.38423  Biso   1.000  C
  H480     1.0000 0.33240  0.21710  0.36983  Biso   1.000  H
  H481     1.0000 0.36790  0.25620  0.41853  Biso   1.000  H
  C260     1.0000 0.31100  0.29000  0.38733  Biso   1.000  C
  H482     1.0000 0.29650  0.29300  0.35353  Biso   1.000  H
  H483     1.0000 0.33680  0.33820  0.39993  Biso   1.000  H
  C261     1.0000 0.24630  0.25040  0.41743  Biso   1.000  C
  H484     1.0000 0.25930  0.24910  0.45173  Biso   1.000  H
  H485     1.0000 0.21950  0.20200  0.40543  Biso   1.000  H
  C262     1.0000 0.21730  0.31100  0.38833  Biso   1.000  C
  H486     1.0000 0.17250  0.29400  0.40443  Biso   1.000  H
  H487     1.0000 0.20990  0.29990  0.35343  Biso   1.000  H
  H488     1.0000 0.24610  0.36080  0.39273  Biso   1.000  H
  C263     1.0000 0.34900  0.56260  0.34823  Biso   1.000  C
  H489     1.0000 0.29860  0.53320  0.35353  Biso   1.000  H
  H490     1.0000 0.35620  0.60170  0.32723  Biso   1.000  H
  C264     1.0000 0.37310  0.52020  0.32013  Biso   1.000  C
  H491     1.0000 0.41990  0.55180  0.30683  Biso   1.000  H
  H492     1.0000 0.37720  0.48790  0.34293  Biso   1.000  H
  C265     1.0000 0.32590  0.47910  0.27913  Biso   1.000  C
  H493     1.0000 0.35260  0.46750  0.25583  Biso   1.000  H
  H494     1.0000 0.31140  0.50870  0.26173  Biso   1.000  H
  C266     1.0000 0.26170  0.41260  0.29403  Biso   1.000  C
  H495     1.0000 0.22140  0.40820  0.27633  Biso   1.000  H
  H496     1.0000 0.25420  0.41360  0.32913  Biso   1.000  H
  H497     1.0000 0.26770  0.37290  0.28633  Biso   1.000  H
  H498     1.0000 0.37610  0.74460  0.38853  Biso   1.000  H
  H499     1.0000 0.22610  0.64200  0.45233  Biso   1.000  H
  H500     1.0000 0.18210  0.66840  0.42233  Biso   1.000  H
  H501     1.0000 0.22120  0.70750  0.47123  Biso   1.000  H
  H502     1.0000 0.29050  0.82160  0.41963  Biso   1.000  H
  H503     1.0000 0.24300  0.77540  0.37543  Biso   1.000  H
  H504     1.0000 0.32570  0.81340  0.37123  Biso   1.000  H
  Sn8      1.0000 0.84900  0.54393  0.01847  Biso   1.000  Sn
  O36      1.0000 0.23203  0.52402  0.04680  Biso   1.000  O
  O37      1.0000 0.19220  0.42426  0.00573  Biso   1.000  O
  O38      1.0000 0.93117  0.52140  0.04156  Biso   1.000  O
  O39      1.0000 0.87150  0.41552  0.00824  Biso   1.000  O
  N15      1.0000 0.10413  0.50089  0.05957  Biso   1.000  N
  C267     1.0000 0.04202  0.49775  0.06397  Biso   1.000  C
  C268     1.0000 0.98822  0.45733  0.03225  Biso   1.000  C
  C269     1.0000 0.92342  0.46279  0.02675  Biso   1.000  C
  C270     1.0000 0.99631  0.41271  0.00073  Biso   1.000  C
  H505     1.0000 0.95930  0.38260  0.97990  Biso   1.000  H
  C271     1.0000 0.05867  0.41233  0.99974  Biso   1.000  C
  H506     1.0000 0.06440  0.38080  0.97960  Biso   1.000  H
  C272     1.0000 0.11178  0.45908  0.02881  Biso   1.000  C
  C273     1.0000 0.18456  0.46952  0.02708  Biso   1.000  C
  C274     1.0000 0.76838  0.46140  0.05865  Biso   1.000  C
  H507     1.0000 0.74100  0.42300  0.03570  Biso   1.000  H
  H508     1.0000 0.79030  0.44450  0.08220  Biso   1.000  H
  C275     1.0000 0.71820  0.47590  0.08655  Biso   1.000  C
  H509     1.0000 0.69290  0.48900  0.06320  Biso   1.000  H
  H510     1.0000 0.74500  0.51600  0.10850  Biso   1.000  H
  C276     1.0000 0.66500  0.41350  0.11720  Biso   1.000  C
  H511     1.0000 0.63710  0.37390  0.09520  Biso   1.000  H
  H512     1.0000 0.69020  0.39930  0.13990  Biso   1.000  H
  C277     1.0000 0.61600  0.42950  0.14660  Biso   1.000  C
  H513     1.0000 0.58330  0.38820  0.16500  Biso   1.000  H
  H514     1.0000 0.59030  0.44290  0.12430  Biso   1.000  H
  H515     1.0000 0.64320  0.46770  0.16930  Biso   1.000  H
  C278     1.0000 0.88050  0.55120  0.94740  Biso   1.000  C
  H516     1.0000 0.93130  0.57050  0.94910  Biso   1.000  H
  H517     1.0000 0.86090  0.50260  0.93630  Biso   1.000  H
  C279     1.0000 0.86980  0.58830  0.90510  Biso   1.000  C
  H518     1.0000 0.88820  0.57910  0.87490  Biso   1.000  H
  H519     1.0000 0.81960  0.57050  0.90050  Biso   1.000  H
  C280     1.0000 0.90620  0.66550  0.91440  Biso   1.000  C
  H520     1.0000 0.95520  0.68220  0.92310  Biso   1.000  H
  H521     1.0000 0.88380  0.67500  0.94210  Biso   1.000  H
  C281     1.0000 0.90340  0.70520  0.86880  Biso   1.000  C
  H522     1.0000 0.93310  0.75520  0.87390  Biso   1.000  H
  H523     1.0000 0.85550  0.69450  0.86330  Biso   1.000  H
  H524     1.0000 0.91980  0.69100  0.84030  Biso   1.000  H
  O40      1.0000 0.32760  0.67140  0.08590  Biso   1.000  O
  C282     1.0000 0.37740  0.66480  0.07210  Biso   1.000  C
  N16      1.0000 0.44390  0.71500  0.08080  Biso   1.000  N
  C283     1.0000 0.45930  0.77640  0.10890  Biso   1.000  C
  C284     1.0000 0.50370  0.71390  0.06010  Biso   1.000  C
  C285     1.0000 0.89900  0.63900  0.06400  Biso   1.000  C
  H525     1.0000 0.87530  0.66620  0.05940  Biso   1.000  H
  H526     1.0000 0.89600  0.62640  0.09890  Biso   1.000  H
  C286     1.0000 0.97300  0.68100  0.04900  Biso   1.000  C
  H527     1.0000 0.97320  0.69430  0.01490  Biso   1.000  H
  H528     1.0000 0.99270  0.65010  0.05040  Biso   1.000  H
  C287     1.0000 0.02040  0.74590  0.07730  Biso   1.000  C
  H529     1.0000 0.02330  0.73370  0.11160  Biso   1.000  H
  H530     1.0000 0.00150  0.77780  0.07710  Biso   1.000  H
  C288     1.0000 0.08240  0.79840  0.08120  Biso   1.000  C
  H531     1.0000 0.09820  0.84010  0.10120  Biso   1.000  H
  H532     1.0000 0.09670  0.81210  0.04730  Biso   1.000  H
  H533     1.0000 0.10400  0.77190  0.09330  Biso   1.000  H
  C289     1.0000 0.21760  0.65300  0.01420  Biso   1.000  C
  H534     1.0000 0.25670  0.70100  0.01580  Biso   1.000  H
  H535     1.0000 0.22890  0.62790  0.98930  Biso   1.000  H
  C290     1.0000 0.15410  0.65470  0.99750  Biso   1.000  C
  H536     1.0000 0.11650  0.60670  0.99130  Biso   1.000  H
  H537     1.0000 0.13870  0.67400  0.02400  Biso   1.000  H
  C291     1.0000 0.16550  0.69700  0.95240  Biso   1.000  C
  H538     1.0000 0.19440  0.68800  0.92940  Biso   1.000  H
  H539     1.0000 0.19160  0.74680  0.96110  Biso   1.000  H
  C292     1.0000 0.09740  0.68150  0.92620  Biso   1.000  C
  H540     1.0000 0.10630  0.72100  0.90550  Biso   1.000  H
  H541     1.0000 0.06210  0.67400  0.95050  Biso   1.000  H
  H542     1.0000 0.08090  0.63980  0.90610  Biso   1.000  H
  C293     1.0000 0.87630  0.53650  0.94070  Biso   1.000  C
  H543     1.0000 0.92000  0.53500  0.93920  Biso   1.000  H
  H544     1.0000 0.83900  0.49380  0.92530  Biso   1.000  H
  C294     1.0000 0.88490  0.60080  0.91420  Biso   1.000  C
  H545     1.0000 0.83980  0.59960  0.91400  Biso   1.000  H
  H546     1.0000 0.91850  0.64280  0.93230  Biso   1.000  H
  C295     1.0000 0.91000  0.60620  0.86220  Biso   1.000  C
  H547     1.0000 0.88240  0.56030  0.84650  Biso   1.000  H
  H548     1.0000 0.95880  0.61690  0.86300  Biso   1.000  H
  C296     1.0000 0.90590  0.66100  0.82990  Biso   1.000  C
  H549     1.0000 0.91610  0.65530  0.79600  Biso   1.000  H
  H550     1.0000 0.93990  0.70760  0.84120  Biso   1.000  H
  H551     1.0000 0.85910  0.65480  0.83190  Biso   1.000  H
  C297     1.0000 0.90420  0.64020  0.05090  Biso   1.000  C
  H552     1.0000 0.88470  0.66760  0.03650  Biso   1.000  H
  H553     1.0000 0.88830  0.63210  0.08520  Biso   1.000  H
  C298     1.0000 0.97900  0.68900  0.05400  Biso   1.000  C
  H554     1.0000 0.99650  0.70350  0.02020  Biso   1.000  H
  H555     1.0000 0.00140  0.66320  0.06660  Biso   1.000  H
  C299     1.0000 0.00410  0.75370  0.08410  Biso   1.000  C
  H556     1.0000 0.98980  0.74070  0.11840  Biso   1.000  H
  H557     1.0000 0.98250  0.78050  0.07210  Biso   1.000  H
  C300     1.0000 0.09370  0.78270  0.05500  Biso   1.000  C
  H558     1.0000 0.12150  0.82750  0.07110  Biso   1.000  H
  H559     1.0000 0.09000  0.79010  0.02010  Biso   1.000  H
  H560     1.0000 0.11470  0.75390  0.05940  Biso   1.000  H
  C301     1.0000 0.21360  0.65100  0.01490  Biso   1.000  C
  H561     1.0000 0.23460  0.70140  0.02020  Biso   1.000  H
  H562     1.0000 0.24550  0.64380  0.99390  Biso   1.000  H
  C302     1.0000 0.14710  0.62690  0.98680  Biso   1.000  C
  H563     1.0000 0.13190  0.58010  0.97350  Biso   1.000  H
  H564     1.0000 0.11070  0.62280  0.00960  Biso   1.000  H
  C303     1.0000 0.15320  0.67410  0.94580  Biso   1.000  C
  H565     1.0000 0.11490  0.64740  0.92250  Biso   1.000  H
  H566     1.0000 0.19730  0.68860  0.92840  Biso   1.000  H
  C304     1.0000 0.15090  0.73830  0.96070  Biso   1.000  C
  H567     1.0000 0.18680  0.77860  0.94300  Biso   1.000  H
  H568     1.0000 0.15940  0.74580  0.99580  Biso   1.000  H
  H569     1.0000 0.10520  0.73230  0.95300  Biso   1.000  H
  H570     1.0000 0.36850  0.62390  0.05520  Biso   1.000  H
  H571     1.0000 0.41590  0.77390  0.11900  Biso   1.000  H
  H572     1.0000 0.48630  0.81790  0.08900  Biso   1.000  H
  H573     1.0000 0.48630  0.77880  0.13790  Biso   1.000  H
  H574     1.0000 0.53110  0.70950  0.08630  Biso   1.000  H
  H575     1.0000 0.53240  0.75700  0.04210  Biso   1.000  H
  H576     1.0000 0.48770  0.67430  0.03790  Biso   1.000  H
  Sn9      1.0000 0.69493  0.15100  0.68514  Biso   1.000  Sn
  O41      1.0000 0.29199  0.76797  0.71347  Biso   1.000  O
  O42      1.0000 0.23206  0.80780  0.67240  Biso   1.000  O
  O43      1.0000 0.59023  0.06883  0.70823  Biso   1.000  O
  O44      1.0000 0.54402  0.12850  0.67491  Biso   1.000  O
  N17      1.0000 0.39676  0.89587  0.72624  Biso   1.000  N
  C305     1.0000 0.45573  0.95798  0.73064  Biso   1.000  C
  C306     1.0000 0.46911  0.01178  0.69892  Biso   1.000  C
  C307     1.0000 0.53937  0.07658  0.69342  Biso   1.000  C
  C308     1.0000 0.41640  0.00369  0.66740  Biso   1.000  C
  H577     1.0000 0.42330  0.04070  0.64657  Biso   1.000  H
  C309     1.0000 0.35366  0.94133  0.66641  Biso   1.000  C
  H578     1.0000 0.31640  0.93560  0.64627  Biso   1.000  H
  C310     1.0000 0.34730  0.88822  0.69548  Biso   1.000  C
  C311     1.0000 0.28496  0.81544  0.69375  Biso   1.000  C
  C312     1.0000 0.69302  0.23162  0.72532  Biso   1.000  C
  H579     1.0000 0.68200  0.25900  0.70237  Biso   1.000  H
  H580     1.0000 0.65420  0.20970  0.74887  Biso   1.000  H
  C313     1.0000 0.75770  0.28180  0.75322  Biso   1.000  C
  H581     1.0000 0.79610  0.30710  0.72987  Biso   1.000  H
  H582     1.0000 0.77100  0.25500  0.77517  Biso   1.000  H
  C314     1.0000 0.74850  0.33500  0.78387  Biso   1.000  C
  H583     1.0000 0.73680  0.36290  0.76187  Biso   1.000  H
  H584     1.0000 0.70910  0.30980  0.80657  Biso   1.000  H
  C315     1.0000 0.81350  0.38400  0.81327  Biso   1.000  C
  H585     1.0000 0.80490  0.41670  0.83167  Biso   1.000  H
  H586     1.0000 0.85260  0.40970  0.79097  Biso   1.000  H
  H587     1.0000 0.82450  0.35680  0.83597  Biso   1.000  H
  C316     1.0000 0.67070  0.11950  0.61407  Biso   1.000  C
  H588     1.0000 0.63920  0.06870  0.61577  Biso   1.000  H
  H589     1.0000 0.64170  0.13910  0.60297  Biso   1.000  H
  C317     1.0000 0.71850  0.13020  0.57177  Biso   1.000  C
  H590     1.0000 0.69090  0.11180  0.54157  Biso   1.000  H
  H591     1.0000 0.75090  0.18040  0.56717  Biso   1.000  H
  C318     1.0000 0.75930  0.09380  0.58107  Biso   1.000  C
  H592     1.0000 0.72700  0.04480  0.58977  Biso   1.000  H
  H593     1.0000 0.79120  0.11620  0.60877  Biso   1.000  H
  C319     1.0000 0.80180  0.09660  0.53547  Biso   1.000  C
  H594     1.0000 0.82210  0.06690  0.54057  Biso   1.000  H
  H595     1.0000 0.83900  0.14450  0.52997  Biso   1.000  H
  H596     1.0000 0.77120  0.08020  0.50697  Biso   1.000  H
  O45      1.0000 0.34380  0.67240  0.75257  Biso   1.000  O
  C320     1.0000 0.28740  0.62260  0.73877  Biso   1.000  C
  N18      1.0000 0.27110  0.55610  0.74747  Biso   1.000  N
  C321     1.0000 0.31710  0.54070  0.77557  Biso   1.000  C
  C322     1.0000 0.21020  0.49630  0.72677  Biso   1.000  C
  C323     1.0000 0.74000  0.10100  0.73067  Biso   1.000  C
  H597     1.0000 0.79090  0.12470  0.72607  Biso   1.000  H
  H598     1.0000 0.73040  0.10400  0.76557  Biso   1.000  H
  C324     1.0000 0.70800  0.02700  0.71567  Biso   1.000  C
  H599     1.0000 0.72110  0.02680  0.68157  Biso   1.000  H
  H600     1.0000 0.65740  0.00730  0.71707  Biso   1.000  H
  C325     1.0000 0.72550  0.97960  0.74397  Biso   1.000  C
  H601     1.0000 0.71040  0.97670  0.77827  Biso   1.000  H
  H602     1.0000 0.77630  0.99850  0.74377  Biso   1.000  H
  C326     1.0000 0.71600  0.91760  0.74787  Biso   1.000  C
  H603     1.0000 0.74190  0.90180  0.76787  Biso   1.000  H
  H604     1.0000 0.71540  0.90330  0.71397  Biso   1.000  H
  H605     1.0000 0.66790  0.89600  0.75997  Biso   1.000  H
  C327     1.0000 0.43540  0.78240  0.68087  Biso   1.000  C
  H606     1.0000 0.44430  0.74330  0.68247  Biso   1.000  H
  H607     1.0000 0.39900  0.77110  0.65597  Biso   1.000  H
  C328     1.0000 0.50060  0.84590  0.66417  Biso   1.000  C
  H608     1.0000 0.49020  0.88350  0.65797  Biso   1.000  H
  H609     1.0000 0.53530  0.86130  0.69067  Biso   1.000  H
  C329     1.0000 0.53150  0.83450  0.61907  Biso   1.000  C
  H610     1.0000 0.49360  0.80560  0.59607  Biso   1.000  H
  H611     1.0000 0.55520  0.80840  0.62777  Biso   1.000  H
  C330     1.0000 0.58410  0.90260  0.59287  Biso   1.000  C
  H612     1.0000 0.61470  0.89370  0.57217  Biso   1.000  H
  H613     1.0000 0.61190  0.93790  0.61717  Biso   1.000  H
  H614     1.0000 0.55890  0.91910  0.57277  Biso   1.000  H
  C331     1.0000 0.66020  0.12370  0.60737  Biso   1.000  C
  H615     1.0000 0.61500  0.08000  0.60587  Biso   1.000  H
  H616     1.0000 0.65480  0.16100  0.59197  Biso   1.000  H
  C332     1.0000 0.71590  0.11510  0.58087  Biso   1.000  C
  H617     1.0000 0.75980  0.16020  0.58067  Biso   1.000  H
  H618     1.0000 0.72430  0.08150  0.59897  Biso   1.000  H
  C333     1.0000 0.69620  0.09000  0.52887  Biso   1.000  C
  H619     1.0000 0.67790  0.11760  0.51317  Biso   1.000  H
  H620     1.0000 0.65810  0.04120  0.52967  Biso   1.000  H
  C334     1.0000 0.75510  0.09410  0.49657  Biso   1.000  C
  H621     1.0000 0.73920  0.08390  0.46267  Biso   1.000  H
  H622     1.0000 0.76770  0.06010  0.50787  Biso   1.000  H
  H623     1.0000 0.79570  0.14090  0.49857  Biso   1.000  H
  C335     1.0000 0.73600  0.09580  0.71757  Biso   1.000  C
  H624     1.0000 0.78290  0.11530  0.70317  Biso   1.000  H
  H625     1.0000 0.74380  0.11170  0.75187  Biso   1.000  H
  C336     1.0000 0.71000  0.02100  0.72067  Biso   1.000  C
  H626     1.0000 0.70700  0.00350  0.68687  Biso   1.000  H
  H627     1.0000 0.66180  0.99860  0.73327  Biso   1.000  H
  C337     1.0000 0.74960  0.99590  0.75077  Biso   1.000  C
  H628     1.0000 0.75090  0.01020  0.78507  Biso   1.000  H
  H629     1.0000 0.79800  0.01750  0.73877  Biso   1.000  H
  C338     1.0000 0.68900  0.90630  0.72167  Biso   1.000  C
  H630     1.0000 0.70600  0.87850  0.73777  Biso   1.000  H
  H631     1.0000 0.70010  0.91000  0.68677  Biso   1.000  H
  H632     1.0000 0.63920  0.88530  0.72607  Biso   1.000  H
  C339     1.0000 0.43740  0.78640  0.68157  Biso   1.000  C
  H633     1.0000 0.46680  0.76540  0.68687  Biso   1.000  H
  H634     1.0000 0.39830  0.75450  0.66057  Biso   1.000  H
  C340     1.0000 0.47980  0.85290  0.65347  Biso   1.000  C
  H635     1.0000 0.44820  0.86810  0.64017  Biso   1.000  H
  H636     1.0000 0.51210  0.88930  0.67627  Biso   1.000  H
  C341     1.0000 0.52090  0.84680  0.61247  Biso   1.000  C
  H637     1.0000 0.53250  0.88510  0.58917  Biso   1.000  H
  H638     1.0000 0.49130  0.80270  0.59507  Biso   1.000  H
  C342     1.0000 0.58740  0.84910  0.62737  Biso   1.000  C
  H639     1.0000 0.59180  0.81320  0.60967  Biso   1.000  H
  H640     1.0000 0.58640  0.84060  0.66247  Biso   1.000  H
  H641     1.0000 0.62710  0.89480  0.61967  Biso   1.000  H
  H642     1.0000 0.25540  0.63150  0.72187  Biso   1.000  H
  H643     1.0000 0.35800  0.58410  0.78567  Biso   1.000  H
  H644     1.0000 0.33160  0.51370  0.75567  Biso   1.000  H
  H645     1.0000 0.29250  0.51370  0.80457  Biso   1.000  H
  H646     1.0000 0.17840  0.46890  0.75297  Biso   1.000  H
  H647     1.0000 0.22460  0.46760  0.70877  Biso   1.000  H
  H648     1.0000 0.18660  0.51230  0.70457  Biso   1.000  H
  Sn10     1.0000 0.54393  0.69493  0.85180  Biso   1.000  Sn
  O46      1.0000 0.52402  0.29199  0.88013  Biso   1.000  O
  O47      1.0000 0.42426  0.23206  0.83906  Biso   1.000  O
  O48      1.0000 0.52140  0.59023  0.87489  Biso   1.000  O
  O49      1.0000 0.41552  0.54402  0.84157  Biso   1.000  O
  N19      1.0000 0.50089  0.39676  0.89290  Biso   1.000  N
  C343     1.0000 0.49775  0.45573  0.89730  Biso   1.000  C
  C344     1.0000 0.45733  0.46911  0.86558  Biso   1.000  C
  C345     1.0000 0.46279  0.53937  0.86008  Biso   1.000  C
  C346     1.0000 0.41271  0.41640  0.83406  Biso   1.000  C
  H649     1.0000 0.38260  0.42330  0.81323  Biso   1.000  H
  C347     1.0000 0.41233  0.35366  0.83307  Biso   1.000  C
  H650     1.0000 0.38080  0.31640  0.81293  Biso   1.000  H
  C348     1.0000 0.45908  0.34730  0.86214  Biso   1.000  C
  C349     1.0000 0.46952  0.28496  0.86041  Biso   1.000  C
  C350     1.0000 0.46140  0.69302  0.89198  Biso   1.000  C
  H651     1.0000 0.42300  0.68200  0.86903  Biso   1.000  H
  H652     1.0000 0.44450  0.65420  0.91553  Biso   1.000  H
  C351     1.0000 0.47590  0.75770  0.91988  Biso   1.000  C
  H653     1.0000 0.48900  0.79610  0.89653  Biso   1.000  H
  H654     1.0000 0.51600  0.77100  0.94183  Biso   1.000  H
  C352     1.0000 0.41350  0.74850  0.95053  Biso   1.000  C
  H655     1.0000 0.37390  0.73680  0.92853  Biso   1.000  H
  H656     1.0000 0.39930  0.70910  0.97323  Biso   1.000  H
  C353     1.0000 0.42950  0.81350  0.97993  Biso   1.000  C
  H657     1.0000 0.38820  0.80490  0.99833  Biso   1.000  H
  H658     1.0000 0.44290  0.85260  0.95763  Biso   1.000  H
  H659     1.0000 0.46770  0.82450  0.00263  Biso   1.000  H
  C354     1.0000 0.55120  0.67070  0.78073  Biso   1.000  C
  H660     1.0000 0.57050  0.63920  0.78243  Biso   1.000  H
  H661     1.0000 0.50260  0.64170  0.76963  Biso   1.000  H
  C355     1.0000 0.58830  0.71850  0.73843  Biso   1.000  C
  H662     1.0000 0.57910  0.69090  0.70823  Biso   1.000  H
  H663     1.0000 0.57050  0.75090  0.73383  Biso   1.000  H
  C356     1.0000 0.66550  0.75930  0.74773  Biso   1.000  C
  H664     1.0000 0.68220  0.72700  0.75643  Biso   1.000  H
  H665     1.0000 0.67500  0.79120  0.77543  Biso   1.000  H
  C357     1.0000 0.70520  0.80180  0.70213  Biso   1.000  C
  H666     1.0000 0.75520  0.82210  0.70723  Biso   1.000  H
  H667     1.0000 0.69450  0.83900  0.69663  Biso   1.000  H
  H668     1.0000 0.69100  0.77120  0.67363  Biso   1.000  H
  O50      1.0000 0.67140  0.34380  0.91923  Biso   1.000  O
  C358     1.0000 0.66480  0.28740  0.90543  Biso   1.000  C
  N20      1.0000 0.71500  0.27110  0.91413  Biso   1.000  N
  C359     1.0000 0.77640  0.31710  0.94223  Biso   1.000  C
  C360     1.0000 0.71390  0.21020  0.89343  Biso   1.000  C
  C361     1.0000 0.63900  0.74000  0.89733  Biso   1.000  C
  H669     1.0000 0.66620  0.79090  0.89273  Biso   1.000  H
  H670     1.0000 0.62640  0.73040  0.93223  Biso   1.000  H
  C362     1.0000 0.68100  0.70800  0.88233  Biso   1.000  C
  H671     1.0000 0.69430  0.72110  0.84823  Biso   1.000  H
  H672     1.0000 0.65010  0.65740  0.88373  Biso   1.000  H
  C363     1.0000 0.74590  0.72550  0.91063  Biso   1.000  C
  H673     1.0000 0.73370  0.71040  0.94493  Biso   1.000  H
  H674     1.0000 0.77780  0.77630  0.91043  Biso   1.000  H
  C364     1.0000 0.79840  0.71600  0.91453  Biso   1.000  C
  H675     1.0000 0.84010  0.74190  0.93453  Biso   1.000  H
  H676     1.0000 0.81210  0.71540  0.88063  Biso   1.000  H
  H677     1.0000 0.77190  0.66790  0.92663  Biso   1.000  H
  C365     1.0000 0.65300  0.43540  0.84753  Biso   1.000  C
  H678     1.0000 0.70100  0.44430  0.84913  Biso   1.000  H
  H679     1.0000 0.62790  0.39900  0.82263  Biso   1.000  H
  C366     1.0000 0.65470  0.50060  0.83083  Biso   1.000  C
  H680     1.0000 0.60670  0.49020  0.82463  Biso   1.000  H
  H681     1.0000 0.67400  0.53530  0.85733  Biso   1.000  H
  C367     1.0000 0.69700  0.53150  0.78573  Biso   1.000  C
  H682     1.0000 0.68800  0.49360  0.76273  Biso   1.000  H
  H683     1.0000 0.74680  0.55520  0.79443  Biso   1.000  H
  C368     1.0000 0.68150  0.58410  0.75953  Biso   1.000  C
  H684     1.0000 0.72100  0.61470  0.73883  Biso   1.000  H
  H685     1.0000 0.67400  0.61190  0.78383  Biso   1.000  H
  H686     1.0000 0.63980  0.55890  0.73943  Biso   1.000  H
  C369     1.0000 0.53650  0.66020  0.77403  Biso   1.000  C
  H687     1.0000 0.53500  0.61500  0.77253  Biso   1.000  H
  H688     1.0000 0.49380  0.65480  0.75863  Biso   1.000  H
  C370     1.0000 0.60080  0.71590  0.74753  Biso   1.000  C
  H689     1.0000 0.59960  0.75980  0.74733  Biso   1.000  H
  H690     1.0000 0.64280  0.72430  0.76563  Biso   1.000  H
  C371     1.0000 0.60620  0.69620  0.69553  Biso   1.000  C
  H691     1.0000 0.56030  0.67790  0.67983  Biso   1.000  H
  H692     1.0000 0.61690  0.65810  0.69633  Biso   1.000  H
  C372     1.0000 0.66100  0.75510  0.66323  Biso   1.000  C
  H693     1.0000 0.65530  0.73920  0.62933  Biso   1.000  H
  H694     1.0000 0.70760  0.76770  0.67453  Biso   1.000  H
  H695     1.0000 0.65480  0.79570  0.66523  Biso   1.000  H
  C373     1.0000 0.64020  0.73600  0.88423  Biso   1.000  C
  H696     1.0000 0.66760  0.78290  0.86983  Biso   1.000  H
  H697     1.0000 0.63210  0.74380  0.91853  Biso   1.000  H
  C374     1.0000 0.68900  0.71000  0.88733  Biso   1.000  C
  H698     1.0000 0.70350  0.70700  0.85353  Biso   1.000  H
  H699     1.0000 0.66320  0.66180  0.89993  Biso   1.000  H
  C375     1.0000 0.75370  0.74960  0.91743  Biso   1.000  C
  H700     1.0000 0.74070  0.75090  0.95173  Biso   1.000  H
  H701     1.0000 0.78050  0.79800  0.90543  Biso   1.000  H
  C376     1.0000 0.78270  0.68900  0.88833  Biso   1.000  C
  H702     1.0000 0.82750  0.70600  0.90443  Biso   1.000  H
  H703     1.0000 0.79010  0.70010  0.85343  Biso   1.000  H
  H704     1.0000 0.75390  0.63920  0.89273  Biso   1.000  H
  C377     1.0000 0.65100  0.43740  0.84823  Biso   1.000  C
  H705     1.0000 0.70140  0.46680  0.85353  Biso   1.000  H
  H706     1.0000 0.64380  0.39830  0.82723  Biso   1.000  H
  C378     1.0000 0.62690  0.47980  0.82013  Biso   1.000  C
  H707     1.0000 0.58010  0.44820  0.80683  Biso   1.000  H
  H708     1.0000 0.62280  0.51210  0.84293  Biso   1.000  H
  C379     1.0000 0.67410  0.52090  0.77913  Biso   1.000  C
  H709     1.0000 0.64740  0.53250  0.75583  Biso   1.000  H
  H710     1.0000 0.68860  0.49130  0.76173  Biso   1.000  H
  C380     1.0000 0.73830  0.58740  0.79403  Biso   1.000  C
  H711     1.0000 0.77860  0.59180  0.77633  Biso   1.000  H
  H712     1.0000 0.74580  0.58640  0.82913  Biso   1.000  H
  H713     1.0000 0.73230  0.62710  0.78633  Biso   1.000  H
  H714     1.0000 0.62390  0.25540  0.88853  Biso   1.000  H
  H715     1.0000 0.77390  0.35800  0.95233  Biso   1.000  H
  H716     1.0000 0.81790  0.33160  0.92233  Biso   1.000  H
  H717     1.0000 0.77880  0.29250  0.97123  Biso   1.000  H
  H718     1.0000 0.70950  0.17840  0.91963  Biso   1.000  H
  H719     1.0000 0.75700  0.22460  0.87543  Biso   1.000  H
  H720     1.0000 0.67430  0.18660  0.87123  Biso   1.000  H
  Sn11     1.0000 0.15100  0.45607  0.51847  Biso   1.000  Sn
  O51      1.0000 0.76797  0.47598  0.54680  Biso   1.000  O
  O52      1.0000 0.80780  0.57574  0.50573  Biso   1.000  O
  O53      1.0000 0.06883  0.47860  0.54156  Biso   1.000  O
  O54      1.0000 0.12850  0.58448  0.50824  Biso   1.000  O
  N21      1.0000 0.89587  0.49911  0.55957  Biso   1.000  N
  C381     1.0000 0.95798  0.50225  0.56397  Biso   1.000  C
  C382     1.0000 0.01178  0.54267  0.53225  Biso   1.000  C
  C383     1.0000 0.07658  0.53721  0.52675  Biso   1.000  C
  C384     1.0000 0.00369  0.58729  0.50073  Biso   1.000  C
  H721     1.0000 0.04070  0.61740  0.47990  Biso   1.000  H
  C385     1.0000 0.94133  0.58767  0.49974  Biso   1.000  C
  H722     1.0000 0.93560  0.61920  0.47960  Biso   1.000  H
  C386     1.0000 0.88822  0.54092  0.52881  Biso   1.000  C
  C387     1.0000 0.81544  0.53048  0.52708  Biso   1.000  C
  C388     1.0000 0.23162  0.53860  0.55865  Biso   1.000  C
  H723     1.0000 0.25900  0.57700  0.53570  Biso   1.000  H
  H724     1.0000 0.20970  0.55550  0.58220  Biso   1.000  H
  C389     1.0000 0.28180  0.52410  0.58655  Biso   1.000  C
  H725     1.0000 0.30710  0.51100  0.56320  Biso   1.000  H
  H726     1.0000 0.25500  0.48400  0.60850  Biso   1.000  H
  C390     1.0000 0.33500  0.58650  0.61720  Biso   1.000  C
  H727     1.0000 0.36290  0.62610  0.59520  Biso   1.000  H
  H728     1.0000 0.30980  0.60070  0.63990  Biso   1.000  H
  C391     1.0000 0.38400  0.57050  0.64660  Biso   1.000  C
  H729     1.0000 0.41670  0.61180  0.66500  Biso   1.000  H
  H730     1.0000 0.40970  0.55710  0.62430  Biso   1.000  H
  H731     1.0000 0.35680  0.53230  0.66930  Biso   1.000  H
  C392     1.0000 0.11950  0.44880  0.44740  Biso   1.000  C
  H732     1.0000 0.06870  0.42950  0.44910  Biso   1.000  H
  H733     1.0000 0.13910  0.49740  0.43630  Biso   1.000  H
  C393     1.0000 0.13020  0.41170  0.40510  Biso   1.000  C
  H734     1.0000 0.11180  0.42090  0.37490  Biso   1.000  H
  H735     1.0000 0.18040  0.42950  0.40050  Biso   1.000  H
  C394     1.0000 0.09380  0.33450  0.41440  Biso   1.000  C
  H736     1.0000 0.04480  0.31780  0.42310  Biso   1.000  H
  H737     1.0000 0.11620  0.32500  0.44210  Biso   1.000  H
  C395     1.0000 0.09660  0.29480  0.36880  Biso   1.000  C
  H738     1.0000 0.06690  0.24480  0.37390  Biso   1.000  H
  H739     1.0000 0.14450  0.30550  0.36330  Biso   1.000  H
  H740     1.0000 0.08020  0.30900  0.34030  Biso   1.000  H
  O55      1.0000 0.67240  0.32860  0.58590  Biso   1.000  O
  C396     1.0000 0.62260  0.33520  0.57210  Biso   1.000  C
  N22      1.0000 0.55610  0.28500  0.58080  Biso   1.000  N
  C397     1.0000 0.54070  0.22360  0.60890  Biso   1.000  C
  C398     1.0000 0.49630  0.28610  0.56010  Biso   1.000  C
  C399     1.0000 0.10100  0.36100  0.56400  Biso   1.000  C
  H741     1.0000 0.12470  0.33380  0.55940  Biso   1.000  H
  H742     1.0000 0.10400  0.37360  0.59890  Biso   1.000  H
  C400     1.0000 0.02700  0.31900  0.54900  Biso   1.000  C
  H743     1.0000 0.02680  0.30570  0.51490  Biso   1.000  H
  H744     1.0000 0.00730  0.34990  0.55040  Biso   1.000  H
  C401     1.0000 0.97960  0.25410  0.57730  Biso   1.000  C
  H745     1.0000 0.97670  0.26630  0.61160  Biso   1.000  H
  H746     1.0000 0.99850  0.22220  0.57710  Biso   1.000  H
  C402     1.0000 0.91760  0.20160  0.58120  Biso   1.000  C
  H747     1.0000 0.90180  0.15990  0.60120  Biso   1.000  H
  H748     1.0000 0.90330  0.18790  0.54730  Biso   1.000  H
  H749     1.0000 0.89600  0.22810  0.59330  Biso   1.000  H
  C403     1.0000 0.78240  0.34700  0.51420  Biso   1.000  C
  H750     1.0000 0.74330  0.29900  0.51580  Biso   1.000  H
  H751     1.0000 0.77110  0.37210  0.48930  Biso   1.000  H
  C404     1.0000 0.84590  0.34530  0.49750  Biso   1.000  C
  H752     1.0000 0.88350  0.39330  0.49130  Biso   1.000  H
  H753     1.0000 0.86130  0.32600  0.52400  Biso   1.000  H
  C405     1.0000 0.83450  0.30300  0.45240  Biso   1.000  C
  H754     1.0000 0.80560  0.31200  0.42940  Biso   1.000  H
  H755     1.0000 0.80840  0.25320  0.46110  Biso   1.000  H
  C406     1.0000 0.90260  0.31850  0.42620  Biso   1.000  C
  H756     1.0000 0.89370  0.27900  0.40550  Biso   1.000  H
  H757     1.0000 0.93790  0.32600  0.45050  Biso   1.000  H
  H758     1.0000 0.91910  0.36020  0.40610  Biso   1.000  H
  C407     1.0000 0.12370  0.46350  0.44070  Biso   1.000  C
  H759     1.0000 0.08000  0.46500  0.43920  Biso   1.000  H
  H760     1.0000 0.16100  0.50620  0.42530  Biso   1.000  H
  C408     1.0000 0.11510  0.39920  0.41420  Biso   1.000  C
  H761     1.0000 0.16020  0.40040  0.41400  Biso   1.000  H
  H762     1.0000 0.08150  0.35720  0.43230  Biso   1.000  H
  C409     1.0000 0.09000  0.39380  0.36220  Biso   1.000  C
  H763     1.0000 0.11760  0.43970  0.34650  Biso   1.000  H
  H764     1.0000 0.04120  0.38310  0.36300  Biso   1.000  H
  C410     1.0000 0.09410  0.33900  0.32990  Biso   1.000  C
  H765     1.0000 0.08390  0.34470  0.29600  Biso   1.000  H
  H766     1.0000 0.06010  0.29240  0.34120  Biso   1.000  H
  H767     1.0000 0.14090  0.34520  0.33190  Biso   1.000  H
  C411     1.0000 0.09580  0.35980  0.55090  Biso   1.000  C
  H768     1.0000 0.11530  0.33240  0.53650  Biso   1.000  H
  H769     1.0000 0.11170  0.36790  0.58520  Biso   1.000  H
  C412     1.0000 0.02100  0.31100  0.55400  Biso   1.000  C
  H770     1.0000 0.00350  0.29650  0.52020  Biso   1.000  H
  H771     1.0000 0.99860  0.33680  0.56660  Biso   1.000  H
  C413     1.0000 0.99590  0.24630  0.58410  Biso   1.000  C
  H772     1.0000 0.01020  0.25930  0.61840  Biso   1.000  H
  H773     1.0000 0.01750  0.21950  0.57210  Biso   1.000  H
  C414     1.0000 0.90630  0.21730  0.55500  Biso   1.000  C
  H774     1.0000 0.87850  0.17250  0.57110  Biso   1.000  H
  H775     1.0000 0.91000  0.20990  0.52010  Biso   1.000  H
  H776     1.0000 0.88530  0.24610  0.55940  Biso   1.000  H
  C415     1.0000 0.78640  0.34900  0.51490  Biso   1.000  C
  H777     1.0000 0.76540  0.29860  0.52020  Biso   1.000  H
  H778     1.0000 0.75450  0.35620  0.49390  Biso   1.000  H
  C416     1.0000 0.85290  0.37310  0.48680  Biso   1.000  C
  H779     1.0000 0.86810  0.41990  0.47350  Biso   1.000  H
  H780     1.0000 0.88930  0.37720  0.50960  Biso   1.000  H
  C417     1.0000 0.84680  0.32590  0.44580  Biso   1.000  C
  H781     1.0000 0.88510  0.35260  0.42250  Biso   1.000  H
  H782     1.0000 0.80270  0.31140  0.42840  Biso   1.000  H
  C418     1.0000 0.84910  0.26170  0.46070  Biso   1.000  C
  H783     1.0000 0.81320  0.22140  0.44300  Biso   1.000  H
  H784     1.0000 0.84060  0.25420  0.49580  Biso   1.000  H
  H785     1.0000 0.89480  0.26770  0.45300  Biso   1.000  H
  H786     1.0000 0.63150  0.37610  0.55520  Biso   1.000  H
  H787     1.0000 0.58410  0.22610  0.61900  Biso   1.000  H
  H788     1.0000 0.51370  0.18210  0.58900  Biso   1.000  H
  H789     1.0000 0.51370  0.22120  0.63790  Biso   1.000  H
  H790     1.0000 0.46890  0.29050  0.58630  Biso   1.000  H
  H791     1.0000 0.46760  0.24300  0.54210  Biso   1.000  H
  H792     1.0000 0.51230  0.32570  0.53790  Biso   1.000  H
  Sn12     1.0000 0.30507  0.84900  0.18514  Biso   1.000  Sn
  O56      1.0000 0.70801  0.23203  0.21347  Biso   1.000  O
  O57      1.0000 0.76794  0.19220  0.17240  Biso   1.000  O
  O58      1.0000 0.40977  0.93117  0.20823  Biso   1.000  O
  O59      1.0000 0.45598  0.87150  0.17491  Biso   1.000  O
  N23      1.0000 0.60324  0.10413  0.22624  Biso   1.000  N
  C419     1.0000 0.54427  0.04202  0.23064  Biso   1.000  C
  C420     1.0000 0.53089  0.98822  0.19892  Biso   1.000  C
  C421     1.0000 0.46063  0.92342  0.19342  Biso   1.000  C
  C422     1.0000 0.58360  0.99631  0.16740  Biso   1.000  C
  H793     1.0000 0.57670  0.95930  0.14657  Biso   1.000  H
  C423     1.0000 0.64634  0.05867  0.16641  Biso   1.000  C
  H794     1.0000 0.68360  0.06440  0.14627  Biso   1.000  H
  C424     1.0000 0.65270  0.11178  0.19548  Biso   1.000  C
  C425     1.0000 0.71504  0.18456  0.19375  Biso   1.000  C
  C426     1.0000 0.30698  0.76838  0.22532  Biso   1.000  C
  H795     1.0000 0.31800  0.74100  0.20237  Biso   1.000  H
  H796     1.0000 0.34580  0.79030  0.24887  Biso   1.000  H
  C427     1.0000 0.24230  0.71820  0.25322  Biso   1.000  C
  H797     1.0000 0.20390  0.69290  0.22987  Biso   1.000  H
  H798     1.0000 0.22900  0.74500  0.27517  Biso   1.000  H
  C428     1.0000 0.25150  0.66500  0.28387  Biso   1.000  C
  H799     1.0000 0.26320  0.63710  0.26187  Biso   1.000  H
  H800     1.0000 0.29090  0.69020  0.30657  Biso   1.000  H
  C429     1.0000 0.18650  0.61600  0.31327  Biso   1.000  C
  H801     1.0000 0.19510  0.58330  0.33167  Biso   1.000  H
  H802     1.0000 0.14740  0.59030  0.29097  Biso   1.000  H
  H803     1.0000 0.17550  0.64320  0.33597  Biso   1.000  H
  C430     1.0000 0.32930  0.88050  0.11407  Biso   1.000  C
  H804     1.0000 0.36080  0.93130  0.11577  Biso   1.000  H
  H805     1.0000 0.35830  0.86090  0.10297  Biso   1.000  H
  C431     1.0000 0.28150  0.86980  0.07177  Biso   1.000  C
  H806     1.0000 0.30910  0.88820  0.04157  Biso   1.000  H
  H807     1.0000 0.24910  0.81960  0.06717  Biso   1.000  H
  C432     1.0000 0.24070  0.90620  0.08107  Biso   1.000  C
  H808     1.0000 0.27300  0.95520  0.08977  Biso   1.000  H
  H809     1.0000 0.20880  0.88380  0.10877  Biso   1.000  H
  C433     1.0000 0.19820  0.90340  0.03547  Biso   1.000  C
  H810     1.0000 0.17790  0.93310  0.04057  Biso   1.000  H
  H811     1.0000 0.16100  0.85550  0.02997  Biso   1.000  H
  H812     1.0000 0.22880  0.91980  0.00697  Biso   1.000  H
  O60      1.0000 0.65620  0.32760  0.25257  Biso   1.000  O
  C434     1.0000 0.71260  0.37740  0.23877  Biso   1.000  C
  N24      1.0000 0.72890  0.44390  0.24747  Biso   1.000  N
  C435     1.0000 0.68290  0.45930  0.27557  Biso   1.000  C
  C436     1.0000 0.78980  0.50370  0.22677  Biso   1.000  C
  C437     1.0000 0.26000  0.89900  0.23067  Biso   1.000  C
  H813     1.0000 0.20910  0.87530  0.22607  Biso   1.000  H
  H814     1.0000 0.26960  0.89600  0.26557  Biso   1.000  H
  C438     1.0000 0.29200  0.97300  0.21567  Biso   1.000  C
  H815     1.0000 0.27890  0.97320  0.18157  Biso   1.000  H
  H816     1.0000 0.34260  0.99270  0.21707  Biso   1.000  H
  C439     1.0000 0.27450  0.02040  0.24397  Biso   1.000  C
  H817     1.0000 0.28960  0.02330  0.27827  Biso   1.000  H
  H818     1.0000 0.22370  0.00150  0.24377  Biso   1.000  H
  C440     1.0000 0.28400  0.08240  0.24787  Biso   1.000  C
  H819     1.0000 0.25810  0.09820  0.26787  Biso   1.000  H
  H820     1.0000 0.28460  0.09670  0.21397  Biso   1.000  H
  H821     1.0000 0.33210  0.10400  0.25997  Biso   1.000  H
  C441     1.0000 0.56460  0.21760  0.18087  Biso   1.000  C
  H822     1.0000 0.55570  0.25670  0.18247  Biso   1.000  H
  H823     1.0000 0.60100  0.22890  0.15597  Biso   1.000  H
  C442     1.0000 0.49940  0.15410  0.16417  Biso   1.000  C
  H824     1.0000 0.50980  0.11650  0.15797  Biso   1.000  H
  H825     1.0000 0.46470  0.13870  0.19067  Biso   1.000  H
  C443     1.0000 0.46850  0.16550  0.11907  Biso   1.000  C
  H826     1.0000 0.50640  0.19440  0.09607  Biso   1.000  H
  H827     1.0000 0.44480  0.19160  0.12777  Biso   1.000  H
  C444     1.0000 0.41590  0.09740  0.09287  Biso   1.000  C
  H828     1.0000 0.38530  0.10630  0.07217  Biso   1.000  H
  H829     1.0000 0.38810  0.06210  0.11717  Biso   1.000  H
  H830     1.0000 0.44110  0.08090  0.07277  Biso   1.000  H
  C445     1.0000 0.33980  0.87630  0.10737  Biso   1.000  C
  H831     1.0000 0.38500  0.92000  0.10587  Biso   1.000  H
  H832     1.0000 0.34520  0.83900  0.09197  Biso   1.000  H
  C446     1.0000 0.28410  0.88490  0.08087  Biso   1.000  C
  H833     1.0000 0.24020  0.83980  0.08067  Biso   1.000  H
  H834     1.0000 0.27570  0.91850  0.09897  Biso   1.000  H
  C447     1.0000 0.30380  0.91000  0.02887  Biso   1.000  C
  H835     1.0000 0.32210  0.88240  0.01317  Biso   1.000  H
  H836     1.0000 0.34190  0.95880  0.02967  Biso   1.000  H
  C448     1.0000 0.24490  0.90590  0.99657  Biso   1.000  C
  H837     1.0000 0.26080  0.91610  0.96267  Biso   1.000  H
  H838     1.0000 0.23230  0.93990  0.00787  Biso   1.000  H
  H839     1.0000 0.20430  0.85910  0.99857  Biso   1.000  H
  C449     1.0000 0.26400  0.90420  0.21757  Biso   1.000  C
  H840     1.0000 0.21710  0.88470  0.20317  Biso   1.000  H
  H841     1.0000 0.25620  0.88830  0.25187  Biso   1.000  H
  C450     1.0000 0.29000  0.97900  0.22067  Biso   1.000  C
  H842     1.0000 0.29300  0.99650  0.18687  Biso   1.000  H
  H843     1.0000 0.33820  0.00140  0.23327  Biso   1.000  H
  C451     1.0000 0.25040  0.00410  0.25077  Biso   1.000  C
  H844     1.0000 0.24910  0.98980  0.28507  Biso   1.000  H
  H845     1.0000 0.20200  0.98250  0.23877  Biso   1.000  H
  C452     1.0000 0.31100  0.09370  0.22167  Biso   1.000  C
  H846     1.0000 0.29400  0.12150  0.23777  Biso   1.000  H
  H847     1.0000 0.29990  0.09000  0.18677  Biso   1.000  H
  H848     1.0000 0.36080  0.11470  0.22607  Biso   1.000  H
  C453     1.0000 0.56260  0.21360  0.18157  Biso   1.000  C
  H849     1.0000 0.53320  0.23460  0.18687  Biso   1.000  H
  H850     1.0000 0.60170  0.24550  0.16057  Biso   1.000  H
  C454     1.0000 0.52020  0.14710  0.15347  Biso   1.000  C
  H851     1.0000 0.55180  0.13190  0.14017  Biso   1.000  H
  H852     1.0000 0.48790  0.11070  0.17627  Biso   1.000  H
  C455     1.0000 0.47910  0.15320  0.11247  Biso   1.000  C
  H853     1.0000 0.46750  0.11490  0.08917  Biso   1.000  H
  H854     1.0000 0.50870  0.19730  0.09507  Biso   1.000  H
  C456     1.0000 0.41260  0.15090  0.12737  Biso   1.000  C
  H855     1.0000 0.40820  0.18680  0.10967  Biso   1.000  H
  H856     1.0000 0.41360  0.15940  0.16247  Biso   1.000  H
  H857     1.0000 0.37290  0.10520  0.11967  Biso   1.000  H
  H858     1.0000 0.74460  0.36850  0.22187  Biso   1.000  H
  H859     1.0000 0.64200  0.41590  0.28567  Biso   1.000  H
  H860     1.0000 0.66840  0.48630  0.25567  Biso   1.000  H
  H861     1.0000 0.70750  0.48630  0.30457  Biso   1.000  H
  H862     1.0000 0.82160  0.53110  0.25297  Biso   1.000  H
  H863     1.0000 0.77540  0.53240  0.20877  Biso   1.000  H
  H864     1.0000 0.81340  0.48770  0.20457  Biso   1.000  H
  Sn13     1.0000 0.60439  0.39561  0.91667  Biso   1.000  Sn
  Sn14     1.0000 0.60439  0.20879  0.25000  Biso   1.000  Sn
  Sn15     1.0000 0.79121  0.39561  0.58333  Biso   1.000  Sn
  Sn16     1.0000 0.39561  0.60439  0.41667  Biso   1.000  Sn
  Sn17     1.0000 0.39561  0.79121  0.75000  Biso   1.000  Sn
  Sn18     1.0000 0.20879  0.60439  0.08333  Biso   1.000  Sn
