data_image0
_cell_length_a       34.502
_cell_length_b       34.502
_cell_length_c       34.502
_cell_angle_alpha    90
_cell_angle_beta     90
_cell_angle_gamma    90

_symmetry_space_group_name_H-M    "P 1"
_symmetry_int_tables_number       1

loop_
  _symmetry_equiv_pos_as_xyz
  'x, y, z'

loop_
  _atom_site_label
  _atom_site_occupancy
  _atom_site_fract_x
  _atom_site_fract_y
  _atom_site_fract_z
  _atom_site_thermal_displace_type
  _atom_site_B_iso_or_equiv
  _atom_site_type_symbol
  C1       1.0000 0.01880  0.71720  0.07470  Biso   1.000  C
  C2       1.0000 0.05120  0.77880  0.10520  Biso   1.000  C
  C3       1.0000 0.10630  0.90020  0.04480  Biso   1.000  C
  H1       1.0000 0.12170  0.89340  0.02310  Biso   1.000  H
  C4       1.0000 0.09180  0.93840  0.04690  Biso   1.000  C
  C5       1.0000 0.06840  0.94770  0.07740  Biso   1.000  C
  H2       1.0000 0.05740  0.97280  0.07960  Biso   1.000  H
  C6       1.0000 0.06120  0.91960  0.10540  Biso   1.000  C
  H3       1.0000 0.04510  0.92540  0.12690  Biso   1.000  H
  C7       1.0000 0.07750  0.88320  0.10180  Biso   1.000  C
  H4       1.0000 0.07290  0.86450  0.12150  Biso   1.000  H
  C8       1.0000 0.12810  0.73010  0.05060  Biso   1.000  C
  H5       1.0000 0.10060  0.73190  0.05220  Biso   1.000  H
  C9       1.0000 0.14540  0.69600  0.03970  Biso   1.000  C
  C10      1.0000 0.18500  0.69220  0.03870  Biso   1.000  C
  H6       1.0000 0.19670  0.66830  0.03150  Biso   1.000  H
  C11      1.0000 0.20610  0.72210  0.04790  Biso   1.000  C
  H7       1.0000 0.23350  0.72010  0.04710  Biso   1.000  H
  C12      1.0000 0.18930  0.75630  0.05860  Biso   1.000  C
  H8       1.0000 0.20550  0.77730  0.06600  Biso   1.000  H
  C13      1.0000 0.10250  0.96800  0.01560  Biso   1.000  C
  H9       1.0000 0.12980  0.97270  0.01790  Biso   1.000  H
  H10      1.0000 0.09750  0.95790  0.99020  Biso   1.000  H
  C14      1.0000 0.12590  0.66010  0.02430  Biso   1.000  C
  H11      1.0000 0.14380  0.64570  0.00700  Biso   1.000  H
  H12      1.0000 0.11840  0.64280  0.04600  Biso   1.000  H
  N1       1.0000 0.02970  0.69980  0.04860  Biso   1.000  N
  N2       1.0000 0.07760  0.79350  0.09250  Biso   1.000  N
  N3       1.0000 0.09970  0.87330  0.07140  Biso   1.000  N
  N4       1.0000 0.15070  0.76120  0.05900  Biso   1.000  N
  O1       1.0000 0.09210  0.67180  0.00330  Biso   1.000  O
  H13      1.0000 0.07200  0.68000  0.99300  Biso   1.000  H
  O2       1.0000 0.08050  0.00150  0.01750  Biso   1.000  O
  H14      1.0000 0.06130  0.01600  0.02300  Biso   1.000  H
  H15      1.0000 0.11200  0.95450  0.99330  Biso   1.000  H
  H16      1.0000 0.07990  0.98220  0.00780  Biso   1.000  H
  C15      1.0000 0.11820  0.66260  0.03530  Biso   1.000  C
  H17      1.0000 0.13280  0.63860  0.02960  Biso   1.000  H
  H18      1.0000 0.10320  0.65870  0.05940  Biso   1.000  H
  O3       1.0000 0.12970  0.99580  0.02820  Biso   1.000  O
  H19      1.0000 0.14980  0.99300  0.01400  Biso   1.000  H
  C16      1.0000 0.51880  0.21720  0.57470  Biso   1.000  C
  C17      1.0000 0.55120  0.27880  0.60520  Biso   1.000  C
  C18      1.0000 0.60630  0.40020  0.54480  Biso   1.000  C
  H20      1.0000 0.62170  0.39340  0.52310  Biso   1.000  H
  C19      1.0000 0.59180  0.43840  0.54690  Biso   1.000  C
  C20      1.0000 0.56840  0.44770  0.57740  Biso   1.000  C
  H21      1.0000 0.55740  0.47280  0.57960  Biso   1.000  H
  C21      1.0000 0.56120  0.41960  0.60540  Biso   1.000  C
  H22      1.0000 0.54510  0.42540  0.62690  Biso   1.000  H
  C22      1.0000 0.57750  0.38320  0.60180  Biso   1.000  C
  H23      1.0000 0.57290  0.36450  0.62150  Biso   1.000  H
  C23      1.0000 0.62810  0.23010  0.55060  Biso   1.000  C
  H24      1.0000 0.60060  0.23190  0.55220  Biso   1.000  H
  C24      1.0000 0.64540  0.19600  0.53970  Biso   1.000  C
  C25      1.0000 0.68500  0.19220  0.53870  Biso   1.000  C
  H25      1.0000 0.69670  0.16830  0.53150  Biso   1.000  H
  C26      1.0000 0.70610  0.22210  0.54790  Biso   1.000  C
  H26      1.0000 0.73350  0.22010  0.54710  Biso   1.000  H
  C27      1.0000 0.68930  0.25630  0.55860  Biso   1.000  C
  H27      1.0000 0.70550  0.27730  0.56600  Biso   1.000  H
  C28      1.0000 0.60250  0.46800  0.51560  Biso   1.000  C
  H28      1.0000 0.62980  0.47270  0.51790  Biso   1.000  H
  H29      1.0000 0.59750  0.45790  0.49020  Biso   1.000  H
  C29      1.0000 0.62590  0.16010  0.52430  Biso   1.000  C
  H30      1.0000 0.64380  0.14570  0.50700  Biso   1.000  H
  H31      1.0000 0.61840  0.14280  0.54600  Biso   1.000  H
  N5       1.0000 0.52970  0.19980  0.54860  Biso   1.000  N
  N6       1.0000 0.57760  0.29350  0.59250  Biso   1.000  N
  N7       1.0000 0.59970  0.37330  0.57140  Biso   1.000  N
  N8       1.0000 0.65070  0.26120  0.55900  Biso   1.000  N
  O4       1.0000 0.59210  0.17180  0.50330  Biso   1.000  O
  H32      1.0000 0.57200  0.18000  0.49300  Biso   1.000  H
  O5       1.0000 0.58050  0.50150  0.51750  Biso   1.000  O
  H33      1.0000 0.56130  0.51600  0.52300  Biso   1.000  H
  H34      1.0000 0.61200  0.45450  0.49330  Biso   1.000  H
  H35      1.0000 0.57990  0.48220  0.50780  Biso   1.000  H
  C30      1.0000 0.61820  0.16260  0.53530  Biso   1.000  C
  H36      1.0000 0.63280  0.13860  0.52960  Biso   1.000  H
  H37      1.0000 0.60320  0.15870  0.55940  Biso   1.000  H
  O6       1.0000 0.62970  0.49580  0.52820  Biso   1.000  O
  H38      1.0000 0.64980  0.49300  0.51400  Biso   1.000  H
  C31      1.0000 0.48120  0.28280  0.57470  Biso   1.000  C
  C32      1.0000 0.44880  0.22120  0.60520  Biso   1.000  C
  C33      1.0000 0.39370  0.09980  0.54480  Biso   1.000  C
  H39      1.0000 0.37830  0.10660  0.52310  Biso   1.000  H
  C34      1.0000 0.40820  0.06160  0.54690  Biso   1.000  C
  C35      1.0000 0.43160  0.05230  0.57740  Biso   1.000  C
  H40      1.0000 0.44260  0.02720  0.57960  Biso   1.000  H
  C36      1.0000 0.43880  0.08040  0.60540  Biso   1.000  C
  H41      1.0000 0.45490  0.07460  0.62690  Biso   1.000  H
  C37      1.0000 0.42250  0.11680  0.60180  Biso   1.000  C
  H42      1.0000 0.42710  0.13550  0.62150  Biso   1.000  H
  C38      1.0000 0.37190  0.26990  0.55060  Biso   1.000  C
  H43      1.0000 0.39940  0.26810  0.55220  Biso   1.000  H
  C39      1.0000 0.35460  0.30400  0.53970  Biso   1.000  C
  C40      1.0000 0.31500  0.30780  0.53870  Biso   1.000  C
  H44      1.0000 0.30330  0.33170  0.53150  Biso   1.000  H
  C41      1.0000 0.29390  0.27790  0.54790  Biso   1.000  C
  H45      1.0000 0.26650  0.27990  0.54710  Biso   1.000  H
  C42      1.0000 0.31070  0.24370  0.55860  Biso   1.000  C
  H46      1.0000 0.29450  0.22270  0.56600  Biso   1.000  H
  C43      1.0000 0.39750  0.03200  0.51560  Biso   1.000  C
  H47      1.0000 0.37020  0.02730  0.51790  Biso   1.000  H
  H48      1.0000 0.40250  0.04210  0.49020  Biso   1.000  H
  C44      1.0000 0.37410  0.33990  0.52430  Biso   1.000  C
  H49      1.0000 0.35620  0.35430  0.50700  Biso   1.000  H
  H50      1.0000 0.38160  0.35720  0.54600  Biso   1.000  H
  N9       1.0000 0.47030  0.30020  0.54860  Biso   1.000  N
  N10      1.0000 0.42240  0.20650  0.59250  Biso   1.000  N
  N11      1.0000 0.40030  0.12670  0.57140  Biso   1.000  N
  N12      1.0000 0.34930  0.23880  0.55900  Biso   1.000  N
  O7       1.0000 0.40790  0.32820  0.50330  Biso   1.000  O
  H51      1.0000 0.42800  0.32000  0.49300  Biso   1.000  H
  O8       1.0000 0.41950  0.99850  0.51750  Biso   1.000  O
  H52      1.0000 0.43870  0.98400  0.52300  Biso   1.000  H
  H53      1.0000 0.38800  0.04550  0.49330  Biso   1.000  H
  H54      1.0000 0.42010  0.01780  0.50780  Biso   1.000  H
  C45      1.0000 0.38180  0.33740  0.53530  Biso   1.000  C
  H55      1.0000 0.36720  0.36140  0.52960  Biso   1.000  H
  H56      1.0000 0.39680  0.34130  0.55940  Biso   1.000  H
  O9       1.0000 0.37030  0.00420  0.52820  Biso   1.000  O
  H57      1.0000 0.35020  0.00700  0.51400  Biso   1.000  H
  C46      1.0000 0.98120  0.78280  0.07470  Biso   1.000  C
  C47      1.0000 0.94880  0.72120  0.10520  Biso   1.000  C
  C48      1.0000 0.89370  0.59980  0.04480  Biso   1.000  C
  H58      1.0000 0.87830  0.60660  0.02310  Biso   1.000  H
  C49      1.0000 0.90820  0.56160  0.04690  Biso   1.000  C
  C50      1.0000 0.93160  0.55230  0.07740  Biso   1.000  C
  H59      1.0000 0.94260  0.52720  0.07960  Biso   1.000  H
  C51      1.0000 0.93880  0.58040  0.10540  Biso   1.000  C
  H60      1.0000 0.95490  0.57460  0.12690  Biso   1.000  H
  C52      1.0000 0.92250  0.61680  0.10180  Biso   1.000  C
  H61      1.0000 0.92710  0.63550  0.12150  Biso   1.000  H
  C53      1.0000 0.87190  0.76990  0.05060  Biso   1.000  C
  H62      1.0000 0.89940  0.76810  0.05220  Biso   1.000  H
  C54      1.0000 0.85460  0.80400  0.03970  Biso   1.000  C
  C55      1.0000 0.81500  0.80780  0.03870  Biso   1.000  C
  H63      1.0000 0.80330  0.83170  0.03150  Biso   1.000  H
  C56      1.0000 0.79390  0.77790  0.04790  Biso   1.000  C
  H64      1.0000 0.76650  0.77990  0.04710  Biso   1.000  H
  C57      1.0000 0.81070  0.74370  0.05860  Biso   1.000  C
  H65      1.0000 0.79450  0.72270  0.06600  Biso   1.000  H
  C58      1.0000 0.89750  0.53200  0.01560  Biso   1.000  C
  H66      1.0000 0.87020  0.52730  0.01790  Biso   1.000  H
  H67      1.0000 0.90250  0.54210  0.99020  Biso   1.000  H
  C59      1.0000 0.87410  0.83990  0.02430  Biso   1.000  C
  H68      1.0000 0.85620  0.85430  0.00700  Biso   1.000  H
  H69      1.0000 0.88160  0.85720  0.04600  Biso   1.000  H
  N13      1.0000 0.97030  0.80020  0.04860  Biso   1.000  N
  N14      1.0000 0.92240  0.70650  0.09250  Biso   1.000  N
  N15      1.0000 0.90030  0.62670  0.07140  Biso   1.000  N
  N16      1.0000 0.84930  0.73880  0.05900  Biso   1.000  N
  O10      1.0000 0.90790  0.82820  0.00330  Biso   1.000  O
  H70      1.0000 0.92800  0.82000  0.99300  Biso   1.000  H
  O11      1.0000 0.91950  0.49850  0.01750  Biso   1.000  O
  H71      1.0000 0.93870  0.48400  0.02300  Biso   1.000  H
  H72      1.0000 0.88800  0.54550  0.99330  Biso   1.000  H
  H73      1.0000 0.92010  0.51780  0.00780  Biso   1.000  H
  C60      1.0000 0.88180  0.83740  0.03530  Biso   1.000  C
  H74      1.0000 0.86720  0.86140  0.02960  Biso   1.000  H
  H75      1.0000 0.89680  0.84130  0.05940  Biso   1.000  H
  O12      1.0000 0.87030  0.50420  0.02820  Biso   1.000  O
  H76      1.0000 0.85020  0.50700  0.01400  Biso   1.000  H
  C61      1.0000 0.98120  0.21720  0.42530  Biso   1.000  C
  C62      1.0000 0.94880  0.27880  0.39480  Biso   1.000  C
  C63      1.0000 0.89370  0.40020  0.45520  Biso   1.000  C
  H77      1.0000 0.87830  0.39340  0.47690  Biso   1.000  H
  C64      1.0000 0.90820  0.43840  0.45310  Biso   1.000  C
  C65      1.0000 0.93160  0.44770  0.42260  Biso   1.000  C
  H78      1.0000 0.94260  0.47280  0.42040  Biso   1.000  H
  C66      1.0000 0.93880  0.41960  0.39460  Biso   1.000  C
  H79      1.0000 0.95490  0.42540  0.37310  Biso   1.000  H
  C67      1.0000 0.92250  0.38320  0.39820  Biso   1.000  C
  H80      1.0000 0.92710  0.36450  0.37850  Biso   1.000  H
  C68      1.0000 0.87190  0.23010  0.44940  Biso   1.000  C
  H81      1.0000 0.89940  0.23190  0.44780  Biso   1.000  H
  C69      1.0000 0.85460  0.19600  0.46030  Biso   1.000  C
  C70      1.0000 0.81500  0.19220  0.46130  Biso   1.000  C
  H82      1.0000 0.80330  0.16830  0.46850  Biso   1.000  H
  C71      1.0000 0.79390  0.22210  0.45210  Biso   1.000  C
  H83      1.0000 0.76650  0.22010  0.45290  Biso   1.000  H
  C72      1.0000 0.81070  0.25630  0.44140  Biso   1.000  C
  H84      1.0000 0.79450  0.27730  0.43400  Biso   1.000  H
  C73      1.0000 0.89750  0.46800  0.48440  Biso   1.000  C
  H85      1.0000 0.87020  0.47270  0.48210  Biso   1.000  H
  H86      1.0000 0.90250  0.45790  0.50980  Biso   1.000  H
  C74      1.0000 0.87410  0.16010  0.47570  Biso   1.000  C
  H87      1.0000 0.85620  0.14570  0.49300  Biso   1.000  H
  H88      1.0000 0.88160  0.14280  0.45400  Biso   1.000  H
  N17      1.0000 0.97030  0.19980  0.45140  Biso   1.000  N
  N18      1.0000 0.92240  0.29350  0.40750  Biso   1.000  N
  N19      1.0000 0.90030  0.37330  0.42860  Biso   1.000  N
  N20      1.0000 0.84930  0.26120  0.44100  Biso   1.000  N
  O13      1.0000 0.90790  0.17180  0.49670  Biso   1.000  O
  H89      1.0000 0.92800  0.18000  0.50700  Biso   1.000  H
  O14      1.0000 0.91950  0.50150  0.48250  Biso   1.000  O
  H90      1.0000 0.93870  0.51600  0.47700  Biso   1.000  H
  H91      1.0000 0.88800  0.45450  0.50670  Biso   1.000  H
  H92      1.0000 0.92010  0.48220  0.49220  Biso   1.000  H
  C75      1.0000 0.88180  0.16260  0.46470  Biso   1.000  C
  H93      1.0000 0.86720  0.13860  0.47040  Biso   1.000  H
  H94      1.0000 0.89680  0.15870  0.44060  Biso   1.000  H
  O15      1.0000 0.87030  0.49580  0.47180  Biso   1.000  O
  H95      1.0000 0.85020  0.49300  0.48600  Biso   1.000  H
  C76      1.0000 0.48120  0.71720  0.92530  Biso   1.000  C
  C77      1.0000 0.44880  0.77880  0.89480  Biso   1.000  C
  C78      1.0000 0.39370  0.90020  0.95520  Biso   1.000  C
  H96      1.0000 0.37830  0.89340  0.97690  Biso   1.000  H
  C79      1.0000 0.40820  0.93840  0.95310  Biso   1.000  C
  C80      1.0000 0.43160  0.94770  0.92260  Biso   1.000  C
  H97      1.0000 0.44260  0.97280  0.92040  Biso   1.000  H
  C81      1.0000 0.43880  0.91960  0.89460  Biso   1.000  C
  H98      1.0000 0.45490  0.92540  0.87310  Biso   1.000  H
  C82      1.0000 0.42250  0.88320  0.89820  Biso   1.000  C
  H99      1.0000 0.42710  0.86450  0.87850  Biso   1.000  H
  C83      1.0000 0.37190  0.73010  0.94940  Biso   1.000  C
  H100     1.0000 0.39940  0.73190  0.94780  Biso   1.000  H
  C84      1.0000 0.35460  0.69600  0.96030  Biso   1.000  C
  C85      1.0000 0.31500  0.69220  0.96130  Biso   1.000  C
  H101     1.0000 0.30330  0.66830  0.96850  Biso   1.000  H
  C86      1.0000 0.29390  0.72210  0.95210  Biso   1.000  C
  H102     1.0000 0.26650  0.72010  0.95290  Biso   1.000  H
  C87      1.0000 0.31070  0.75630  0.94140  Biso   1.000  C
  H103     1.0000 0.29450  0.77730  0.93400  Biso   1.000  H
  C88      1.0000 0.39750  0.96800  0.98440  Biso   1.000  C
  H104     1.0000 0.37020  0.97270  0.98210  Biso   1.000  H
  H105     1.0000 0.40250  0.95790  0.00980  Biso   1.000  H
  C89      1.0000 0.37410  0.66010  0.97570  Biso   1.000  C
  H106     1.0000 0.35620  0.64570  0.99300  Biso   1.000  H
  H107     1.0000 0.38160  0.64280  0.95400  Biso   1.000  H
  N21      1.0000 0.47030  0.69980  0.95140  Biso   1.000  N
  N22      1.0000 0.42240  0.79350  0.90750  Biso   1.000  N
  N23      1.0000 0.40030  0.87330  0.92860  Biso   1.000  N
  N24      1.0000 0.34930  0.76120  0.94100  Biso   1.000  N
  O16      1.0000 0.40790  0.67180  0.99670  Biso   1.000  O
  H108     1.0000 0.42800  0.68000  0.00700  Biso   1.000  H
  O17      1.0000 0.41950  0.00150  0.98250  Biso   1.000  O
  H109     1.0000 0.43870  0.01600  0.97700  Biso   1.000  H
  H110     1.0000 0.38800  0.95450  0.00670  Biso   1.000  H
  H111     1.0000 0.42010  0.98220  0.99220  Biso   1.000  H
  C90      1.0000 0.38180  0.66260  0.96470  Biso   1.000  C
  H112     1.0000 0.36720  0.63860  0.97040  Biso   1.000  H
  H113     1.0000 0.39680  0.65870  0.94060  Biso   1.000  H
  O18      1.0000 0.37030  0.99580  0.97180  Biso   1.000  O
  H114     1.0000 0.35020  0.99300  0.98600  Biso   1.000  H
  C91      1.0000 0.51880  0.78280  0.92530  Biso   1.000  C
  C92      1.0000 0.55120  0.72120  0.89480  Biso   1.000  C
  C93      1.0000 0.60630  0.59980  0.95520  Biso   1.000  C
  H115     1.0000 0.62170  0.60660  0.97690  Biso   1.000  H
  C94      1.0000 0.59180  0.56160  0.95310  Biso   1.000  C
  C95      1.0000 0.56840  0.55230  0.92260  Biso   1.000  C
  H116     1.0000 0.55740  0.52720  0.92040  Biso   1.000  H
  C96      1.0000 0.56120  0.58040  0.89460  Biso   1.000  C
  H117     1.0000 0.54510  0.57460  0.87310  Biso   1.000  H
  C97      1.0000 0.57750  0.61680  0.89820  Biso   1.000  C
  H118     1.0000 0.57290  0.63550  0.87850  Biso   1.000  H
  C98      1.0000 0.62810  0.76990  0.94940  Biso   1.000  C
  H119     1.0000 0.60060  0.76810  0.94780  Biso   1.000  H
  C99      1.0000 0.64540  0.80400  0.96030  Biso   1.000  C
  C100     1.0000 0.68500  0.80780  0.96130  Biso   1.000  C
  H120     1.0000 0.69670  0.83170  0.96850  Biso   1.000  H
  C101     1.0000 0.70610  0.77790  0.95210  Biso   1.000  C
  H121     1.0000 0.73350  0.77990  0.95290  Biso   1.000  H
  C102     1.0000 0.68930  0.74370  0.94140  Biso   1.000  C
  H122     1.0000 0.70550  0.72270  0.93400  Biso   1.000  H
  C103     1.0000 0.60250  0.53200  0.98440  Biso   1.000  C
  H123     1.0000 0.62980  0.52730  0.98210  Biso   1.000  H
  H124     1.0000 0.59750  0.54210  0.00980  Biso   1.000  H
  C104     1.0000 0.62590  0.83990  0.97570  Biso   1.000  C
  H125     1.0000 0.64380  0.85430  0.99300  Biso   1.000  H
  H126     1.0000 0.61840  0.85720  0.95400  Biso   1.000  H
  N25      1.0000 0.52970  0.80020  0.95140  Biso   1.000  N
  N26      1.0000 0.57760  0.70650  0.90750  Biso   1.000  N
  N27      1.0000 0.59970  0.62670  0.92860  Biso   1.000  N
  N28      1.0000 0.65070  0.73880  0.94100  Biso   1.000  N
  O19      1.0000 0.59210  0.82820  0.99670  Biso   1.000  O
  H127     1.0000 0.57200  0.82000  0.00700  Biso   1.000  H
  O20      1.0000 0.58050  0.49850  0.98250  Biso   1.000  O
  H128     1.0000 0.56130  0.48400  0.97700  Biso   1.000  H
  H129     1.0000 0.61200  0.54550  0.00670  Biso   1.000  H
  H130     1.0000 0.57990  0.51780  0.99220  Biso   1.000  H
  C105     1.0000 0.61820  0.83740  0.96470  Biso   1.000  C
  H131     1.0000 0.63280  0.86140  0.97040  Biso   1.000  H
  H132     1.0000 0.60320  0.84130  0.94060  Biso   1.000  H
  O21      1.0000 0.62970  0.50420  0.97180  Biso   1.000  O
  H133     1.0000 0.64980  0.50700  0.98600  Biso   1.000  H
  C106     1.0000 0.01880  0.28280  0.42530  Biso   1.000  C
  C107     1.0000 0.05120  0.22120  0.39480  Biso   1.000  C
  C108     1.0000 0.10630  0.09980  0.45520  Biso   1.000  C
  H134     1.0000 0.12170  0.10660  0.47690  Biso   1.000  H
  C109     1.0000 0.09180  0.06160  0.45310  Biso   1.000  C
  C110     1.0000 0.06840  0.05230  0.42260  Biso   1.000  C
  H135     1.0000 0.05740  0.02720  0.42040  Biso   1.000  H
  C111     1.0000 0.06120  0.08040  0.39460  Biso   1.000  C
  H136     1.0000 0.04510  0.07460  0.37310  Biso   1.000  H
  C112     1.0000 0.07750  0.11680  0.39820  Biso   1.000  C
  H137     1.0000 0.07290  0.13550  0.37850  Biso   1.000  H
  C113     1.0000 0.12810  0.26990  0.44940  Biso   1.000  C
  H138     1.0000 0.10060  0.26810  0.44780  Biso   1.000  H
  C114     1.0000 0.14540  0.30400  0.46030  Biso   1.000  C
  C115     1.0000 0.18500  0.30780  0.46130  Biso   1.000  C
  H139     1.0000 0.19670  0.33170  0.46850  Biso   1.000  H
  C116     1.0000 0.20610  0.27790  0.45210  Biso   1.000  C
  H140     1.0000 0.23350  0.27990  0.45290  Biso   1.000  H
  C117     1.0000 0.18930  0.24370  0.44140  Biso   1.000  C
  H141     1.0000 0.20550  0.22270  0.43400  Biso   1.000  H
  C118     1.0000 0.10250  0.03200  0.48440  Biso   1.000  C
  H142     1.0000 0.12980  0.02730  0.48210  Biso   1.000  H
  H143     1.0000 0.09750  0.04210  0.50980  Biso   1.000  H
  C119     1.0000 0.12590  0.33990  0.47570  Biso   1.000  C
  H144     1.0000 0.14380  0.35430  0.49300  Biso   1.000  H
  H145     1.0000 0.11840  0.35720  0.45400  Biso   1.000  H
  N29      1.0000 0.02970  0.30020  0.45140  Biso   1.000  N
  N30      1.0000 0.07760  0.20650  0.40750  Biso   1.000  N
  N31      1.0000 0.09970  0.12670  0.42860  Biso   1.000  N
  N32      1.0000 0.15070  0.23880  0.44100  Biso   1.000  N
  O22      1.0000 0.09210  0.32820  0.49670  Biso   1.000  O
  H146     1.0000 0.07200  0.32000  0.50700  Biso   1.000  H
  O23      1.0000 0.08050  0.99850  0.48250  Biso   1.000  O
  H147     1.0000 0.06130  0.98400  0.47700  Biso   1.000  H
  H148     1.0000 0.11200  0.04550  0.50670  Biso   1.000  H
  H149     1.0000 0.07990  0.01780  0.49220  Biso   1.000  H
  C120     1.0000 0.11820  0.33740  0.46470  Biso   1.000  C
  H150     1.0000 0.13280  0.36140  0.47040  Biso   1.000  H
  H151     1.0000 0.10320  0.34130  0.44060  Biso   1.000  H
  O24      1.0000 0.12970  0.00420  0.47180  Biso   1.000  O
  H152     1.0000 0.14980  0.00700  0.48600  Biso   1.000  H
  C121     1.0000 0.07470  0.01880  0.71720  Biso   1.000  C
  C122     1.0000 0.10520  0.05120  0.77880  Biso   1.000  C
  C123     1.0000 0.04480  0.10630  0.90020  Biso   1.000  C
  H153     1.0000 0.02310  0.12170  0.89340  Biso   1.000  H
  C124     1.0000 0.04690  0.09180  0.93840  Biso   1.000  C
  C125     1.0000 0.07740  0.06840  0.94770  Biso   1.000  C
  H154     1.0000 0.07960  0.05740  0.97280  Biso   1.000  H
  C126     1.0000 0.10540  0.06120  0.91960  Biso   1.000  C
  H155     1.0000 0.12690  0.04510  0.92540  Biso   1.000  H
  C127     1.0000 0.10180  0.07750  0.88320  Biso   1.000  C
  H156     1.0000 0.12150  0.07290  0.86450  Biso   1.000  H
  C128     1.0000 0.05060  0.12810  0.73010  Biso   1.000  C
  H157     1.0000 0.05220  0.10060  0.73190  Biso   1.000  H
  C129     1.0000 0.03970  0.14540  0.69600  Biso   1.000  C
  C130     1.0000 0.03870  0.18500  0.69220  Biso   1.000  C
  H158     1.0000 0.03150  0.19670  0.66830  Biso   1.000  H
  C131     1.0000 0.04790  0.20610  0.72210  Biso   1.000  C
  H159     1.0000 0.04710  0.23350  0.72010  Biso   1.000  H
  C132     1.0000 0.05860  0.18930  0.75630  Biso   1.000  C
  H160     1.0000 0.06600  0.20550  0.77730  Biso   1.000  H
  C133     1.0000 0.01560  0.10250  0.96800  Biso   1.000  C
  H161     1.0000 0.01790  0.12980  0.97270  Biso   1.000  H
  H162     1.0000 0.99020  0.09750  0.95790  Biso   1.000  H
  C134     1.0000 0.02430  0.12590  0.66010  Biso   1.000  C
  H163     1.0000 0.00700  0.14380  0.64570  Biso   1.000  H
  H164     1.0000 0.04600  0.11840  0.64280  Biso   1.000  H
  N33      1.0000 0.04860  0.02970  0.69980  Biso   1.000  N
  N34      1.0000 0.09250  0.07760  0.79350  Biso   1.000  N
  N35      1.0000 0.07140  0.09970  0.87330  Biso   1.000  N
  N36      1.0000 0.05900  0.15070  0.76120  Biso   1.000  N
  O25      1.0000 0.00330  0.09210  0.67180  Biso   1.000  O
  H165     1.0000 0.99300  0.07200  0.68000  Biso   1.000  H
  O26      1.0000 0.01750  0.08050  0.00150  Biso   1.000  O
  H166     1.0000 0.02300  0.06130  0.01600  Biso   1.000  H
  H167     1.0000 0.99330  0.11200  0.95450  Biso   1.000  H
  H168     1.0000 0.00780  0.07990  0.98220  Biso   1.000  H
  C135     1.0000 0.03530  0.11820  0.66260  Biso   1.000  C
  H169     1.0000 0.02960  0.13280  0.63860  Biso   1.000  H
  H170     1.0000 0.05940  0.10320  0.65870  Biso   1.000  H
  O27      1.0000 0.02820  0.12970  0.99580  Biso   1.000  O
  H171     1.0000 0.01400  0.14980  0.99300  Biso   1.000  H
  C136     1.0000 0.57470  0.51880  0.21720  Biso   1.000  C
  C137     1.0000 0.60520  0.55120  0.27880  Biso   1.000  C
  C138     1.0000 0.54480  0.60630  0.40020  Biso   1.000  C
  H172     1.0000 0.52310  0.62170  0.39340  Biso   1.000  H
  C139     1.0000 0.54690  0.59180  0.43840  Biso   1.000  C
  C140     1.0000 0.57740  0.56840  0.44770  Biso   1.000  C
  H173     1.0000 0.57960  0.55740  0.47280  Biso   1.000  H
  C141     1.0000 0.60540  0.56120  0.41960  Biso   1.000  C
  H174     1.0000 0.62690  0.54510  0.42540  Biso   1.000  H
  C142     1.0000 0.60180  0.57750  0.38320  Biso   1.000  C
  H175     1.0000 0.62150  0.57290  0.36450  Biso   1.000  H
  C143     1.0000 0.55060  0.62810  0.23010  Biso   1.000  C
  H176     1.0000 0.55220  0.60060  0.23190  Biso   1.000  H
  C144     1.0000 0.53970  0.64540  0.19600  Biso   1.000  C
  C145     1.0000 0.53870  0.68500  0.19220  Biso   1.000  C
  H177     1.0000 0.53150  0.69670  0.16830  Biso   1.000  H
  C146     1.0000 0.54790  0.70610  0.22210  Biso   1.000  C
  H178     1.0000 0.54710  0.73350  0.22010  Biso   1.000  H
  C147     1.0000 0.55860  0.68930  0.25630  Biso   1.000  C
  H179     1.0000 0.56600  0.70550  0.27730  Biso   1.000  H
  C148     1.0000 0.51560  0.60250  0.46800  Biso   1.000  C
  H180     1.0000 0.51790  0.62980  0.47270  Biso   1.000  H
  H181     1.0000 0.49020  0.59750  0.45790  Biso   1.000  H
  C149     1.0000 0.52430  0.62590  0.16010  Biso   1.000  C
  H182     1.0000 0.50700  0.64380  0.14570  Biso   1.000  H
  H183     1.0000 0.54600  0.61840  0.14280  Biso   1.000  H
  N37      1.0000 0.54860  0.52970  0.19980  Biso   1.000  N
  N38      1.0000 0.59250  0.57760  0.29350  Biso   1.000  N
  N39      1.0000 0.57140  0.59970  0.37330  Biso   1.000  N
  N40      1.0000 0.55900  0.65070  0.26120  Biso   1.000  N
  O28      1.0000 0.50330  0.59210  0.17180  Biso   1.000  O
  H184     1.0000 0.49300  0.57200  0.18000  Biso   1.000  H
  O29      1.0000 0.51750  0.58050  0.50150  Biso   1.000  O
  H185     1.0000 0.52300  0.56130  0.51600  Biso   1.000  H
  H186     1.0000 0.49330  0.61200  0.45450  Biso   1.000  H
  H187     1.0000 0.50780  0.57990  0.48220  Biso   1.000  H
  C150     1.0000 0.53530  0.61820  0.16260  Biso   1.000  C
  H188     1.0000 0.52960  0.63280  0.13860  Biso   1.000  H
  H189     1.0000 0.55940  0.60320  0.15870  Biso   1.000  H
  O30      1.0000 0.52820  0.62970  0.49580  Biso   1.000  O
  H190     1.0000 0.51400  0.64980  0.49300  Biso   1.000  H
  C151     1.0000 0.57470  0.48120  0.28280  Biso   1.000  C
  C152     1.0000 0.60520  0.44880  0.22120  Biso   1.000  C
  C153     1.0000 0.54480  0.39370  0.09980  Biso   1.000  C
  H191     1.0000 0.52310  0.37830  0.10660  Biso   1.000  H
  C154     1.0000 0.54690  0.40820  0.06160  Biso   1.000  C
  C155     1.0000 0.57740  0.43160  0.05230  Biso   1.000  C
  H192     1.0000 0.57960  0.44260  0.02720  Biso   1.000  H
  C156     1.0000 0.60540  0.43880  0.08040  Biso   1.000  C
  H193     1.0000 0.62690  0.45490  0.07460  Biso   1.000  H
  C157     1.0000 0.60180  0.42250  0.11680  Biso   1.000  C
  H194     1.0000 0.62150  0.42710  0.13550  Biso   1.000  H
  C158     1.0000 0.55060  0.37190  0.26990  Biso   1.000  C
  H195     1.0000 0.55220  0.39940  0.26810  Biso   1.000  H
  C159     1.0000 0.53970  0.35460  0.30400  Biso   1.000  C
  C160     1.0000 0.53870  0.31500  0.30780  Biso   1.000  C
  H196     1.0000 0.53150  0.30330  0.33170  Biso   1.000  H
  C161     1.0000 0.54790  0.29390  0.27790  Biso   1.000  C
  H197     1.0000 0.54710  0.26650  0.27990  Biso   1.000  H
  C162     1.0000 0.55860  0.31070  0.24370  Biso   1.000  C
  H198     1.0000 0.56600  0.29450  0.22270  Biso   1.000  H
  C163     1.0000 0.51560  0.39750  0.03200  Biso   1.000  C
  H199     1.0000 0.51790  0.37020  0.02730  Biso   1.000  H
  H200     1.0000 0.49020  0.40250  0.04210  Biso   1.000  H
  C164     1.0000 0.52430  0.37410  0.33990  Biso   1.000  C
  H201     1.0000 0.50700  0.35620  0.35430  Biso   1.000  H
  H202     1.0000 0.54600  0.38160  0.35720  Biso   1.000  H
  N41      1.0000 0.54860  0.47030  0.30020  Biso   1.000  N
  N42      1.0000 0.59250  0.42240  0.20650  Biso   1.000  N
  N43      1.0000 0.57140  0.40030  0.12670  Biso   1.000  N
  N44      1.0000 0.55900  0.34930  0.23880  Biso   1.000  N
  O31      1.0000 0.50330  0.40790  0.32820  Biso   1.000  O
  H203     1.0000 0.49300  0.42800  0.32000  Biso   1.000  H
  O32      1.0000 0.51750  0.41950  0.99850  Biso   1.000  O
  H204     1.0000 0.52300  0.43870  0.98400  Biso   1.000  H
  H205     1.0000 0.49330  0.38800  0.04550  Biso   1.000  H
  H206     1.0000 0.50780  0.42010  0.01780  Biso   1.000  H
  C165     1.0000 0.53530  0.38180  0.33740  Biso   1.000  C
  H207     1.0000 0.52960  0.36720  0.36140  Biso   1.000  H
  H208     1.0000 0.55940  0.39680  0.34130  Biso   1.000  H
  O33      1.0000 0.52820  0.37030  0.00420  Biso   1.000  O
  H209     1.0000 0.51400  0.35020  0.00700  Biso   1.000  H
  C166     1.0000 0.07470  0.98120  0.78280  Biso   1.000  C
  C167     1.0000 0.10520  0.94880  0.72120  Biso   1.000  C
  C168     1.0000 0.04480  0.89370  0.59980  Biso   1.000  C
  H210     1.0000 0.02310  0.87830  0.60660  Biso   1.000  H
  C169     1.0000 0.04690  0.90820  0.56160  Biso   1.000  C
  C170     1.0000 0.07740  0.93160  0.55230  Biso   1.000  C
  H211     1.0000 0.07960  0.94260  0.52720  Biso   1.000  H
  C171     1.0000 0.10540  0.93880  0.58040  Biso   1.000  C
  H212     1.0000 0.12690  0.95490  0.57460  Biso   1.000  H
  C172     1.0000 0.10180  0.92250  0.61680  Biso   1.000  C
  H213     1.0000 0.12150  0.92710  0.63550  Biso   1.000  H
  C173     1.0000 0.05060  0.87190  0.76990  Biso   1.000  C
  H214     1.0000 0.05220  0.89940  0.76810  Biso   1.000  H
  C174     1.0000 0.03970  0.85460  0.80400  Biso   1.000  C
  C175     1.0000 0.03870  0.81500  0.80780  Biso   1.000  C
  H215     1.0000 0.03150  0.80330  0.83170  Biso   1.000  H
  C176     1.0000 0.04790  0.79390  0.77790  Biso   1.000  C
  H216     1.0000 0.04710  0.76650  0.77990  Biso   1.000  H
  C177     1.0000 0.05860  0.81070  0.74370  Biso   1.000  C
  H217     1.0000 0.06600  0.79450  0.72270  Biso   1.000  H
  C178     1.0000 0.01560  0.89750  0.53200  Biso   1.000  C
  H218     1.0000 0.01790  0.87020  0.52730  Biso   1.000  H
  H219     1.0000 0.99020  0.90250  0.54210  Biso   1.000  H
  C179     1.0000 0.02430  0.87410  0.83990  Biso   1.000  C
  H220     1.0000 0.00700  0.85620  0.85430  Biso   1.000  H
  H221     1.0000 0.04600  0.88160  0.85720  Biso   1.000  H
  N45      1.0000 0.04860  0.97030  0.80020  Biso   1.000  N
  N46      1.0000 0.09250  0.92240  0.70650  Biso   1.000  N
  N47      1.0000 0.07140  0.90030  0.62670  Biso   1.000  N
  N48      1.0000 0.05900  0.84930  0.73880  Biso   1.000  N
  O34      1.0000 0.00330  0.90790  0.82820  Biso   1.000  O
  H222     1.0000 0.99300  0.92800  0.82000  Biso   1.000  H
  O35      1.0000 0.01750  0.91950  0.49850  Biso   1.000  O
  H223     1.0000 0.02300  0.93870  0.48400  Biso   1.000  H
  H224     1.0000 0.99330  0.88800  0.54550  Biso   1.000  H
  H225     1.0000 0.00780  0.92010  0.51780  Biso   1.000  H
  C180     1.0000 0.03530  0.88180  0.83740  Biso   1.000  C
  H226     1.0000 0.02960  0.86720  0.86140  Biso   1.000  H
  H227     1.0000 0.05940  0.89680  0.84130  Biso   1.000  H
  O36      1.0000 0.02820  0.87030  0.50420  Biso   1.000  O
  H228     1.0000 0.01400  0.85020  0.50700  Biso   1.000  H
  C181     1.0000 0.42530  0.98120  0.21720  Biso   1.000  C
  C182     1.0000 0.39480  0.94880  0.27880  Biso   1.000  C
  C183     1.0000 0.45520  0.89370  0.40020  Biso   1.000  C
  H229     1.0000 0.47690  0.87830  0.39340  Biso   1.000  H
  C184     1.0000 0.45310  0.90820  0.43840  Biso   1.000  C
  C185     1.0000 0.42260  0.93160  0.44770  Biso   1.000  C
  H230     1.0000 0.42040  0.94260  0.47280  Biso   1.000  H
  C186     1.0000 0.39460  0.93880  0.41960  Biso   1.000  C
  H231     1.0000 0.37310  0.95490  0.42540  Biso   1.000  H
  C187     1.0000 0.39820  0.92250  0.38320  Biso   1.000  C
  H232     1.0000 0.37850  0.92710  0.36450  Biso   1.000  H
  C188     1.0000 0.44940  0.87190  0.23010  Biso   1.000  C
  H233     1.0000 0.44780  0.89940  0.23190  Biso   1.000  H
  C189     1.0000 0.46030  0.85460  0.19600  Biso   1.000  C
  C190     1.0000 0.46130  0.81500  0.19220  Biso   1.000  C
  H234     1.0000 0.46850  0.80330  0.16830  Biso   1.000  H
  C191     1.0000 0.45210  0.79390  0.22210  Biso   1.000  C
  H235     1.0000 0.45290  0.76650  0.22010  Biso   1.000  H
  C192     1.0000 0.44140  0.81070  0.25630  Biso   1.000  C
  H236     1.0000 0.43400  0.79450  0.27730  Biso   1.000  H
  C193     1.0000 0.48440  0.89750  0.46800  Biso   1.000  C
  H237     1.0000 0.48210  0.87020  0.47270  Biso   1.000  H
  H238     1.0000 0.50980  0.90250  0.45790  Biso   1.000  H
  C194     1.0000 0.47570  0.87410  0.16010  Biso   1.000  C
  H239     1.0000 0.49300  0.85620  0.14570  Biso   1.000  H
  H240     1.0000 0.45400  0.88160  0.14280  Biso   1.000  H
  N49      1.0000 0.45140  0.97030  0.19980  Biso   1.000  N
  N50      1.0000 0.40750  0.92240  0.29350  Biso   1.000  N
  N51      1.0000 0.42860  0.90030  0.37330  Biso   1.000  N
  N52      1.0000 0.44100  0.84930  0.26120  Biso   1.000  N
  O37      1.0000 0.49670  0.90790  0.17180  Biso   1.000  O
  H241     1.0000 0.50700  0.92800  0.18000  Biso   1.000  H
  O38      1.0000 0.48250  0.91950  0.50150  Biso   1.000  O
  H242     1.0000 0.47700  0.93870  0.51600  Biso   1.000  H
  H243     1.0000 0.50670  0.88800  0.45450  Biso   1.000  H
  H244     1.0000 0.49220  0.92010  0.48220  Biso   1.000  H
  C195     1.0000 0.46470  0.88180  0.16260  Biso   1.000  C
  H245     1.0000 0.47040  0.86720  0.13860  Biso   1.000  H
  H246     1.0000 0.44060  0.89680  0.15870  Biso   1.000  H
  O39      1.0000 0.47180  0.87030  0.49580  Biso   1.000  O
  H247     1.0000 0.48600  0.85020  0.49300  Biso   1.000  H
  C196     1.0000 0.92530  0.48120  0.71720  Biso   1.000  C
  C197     1.0000 0.89480  0.44880  0.77880  Biso   1.000  C
  C198     1.0000 0.95520  0.39370  0.90020  Biso   1.000  C
  H248     1.0000 0.97690  0.37830  0.89340  Biso   1.000  H
  C199     1.0000 0.95310  0.40820  0.93840  Biso   1.000  C
  C200     1.0000 0.92260  0.43160  0.94770  Biso   1.000  C
  H249     1.0000 0.92040  0.44260  0.97280  Biso   1.000  H
  C201     1.0000 0.89460  0.43880  0.91960  Biso   1.000  C
  H250     1.0000 0.87310  0.45490  0.92540  Biso   1.000  H
  C202     1.0000 0.89820  0.42250  0.88320  Biso   1.000  C
  H251     1.0000 0.87850  0.42710  0.86450  Biso   1.000  H
  C203     1.0000 0.94940  0.37190  0.73010  Biso   1.000  C
  H252     1.0000 0.94780  0.39940  0.73190  Biso   1.000  H
  C204     1.0000 0.96030  0.35460  0.69600  Biso   1.000  C
  C205     1.0000 0.96130  0.31500  0.69220  Biso   1.000  C
  H253     1.0000 0.96850  0.30330  0.66830  Biso   1.000  H
  C206     1.0000 0.95210  0.29390  0.72210  Biso   1.000  C
  H254     1.0000 0.95290  0.26650  0.72010  Biso   1.000  H
  C207     1.0000 0.94140  0.31070  0.75630  Biso   1.000  C
  H255     1.0000 0.93400  0.29450  0.77730  Biso   1.000  H
  C208     1.0000 0.98440  0.39750  0.96800  Biso   1.000  C
  H256     1.0000 0.98210  0.37020  0.97270  Biso   1.000  H
  H257     1.0000 0.00980  0.40250  0.95790  Biso   1.000  H
  C209     1.0000 0.97570  0.37410  0.66010  Biso   1.000  C
  H258     1.0000 0.99300  0.35620  0.64570  Biso   1.000  H
  H259     1.0000 0.95400  0.38160  0.64280  Biso   1.000  H
  N53      1.0000 0.95140  0.47030  0.69980  Biso   1.000  N
  N54      1.0000 0.90750  0.42240  0.79350  Biso   1.000  N
  N55      1.0000 0.92860  0.40030  0.87330  Biso   1.000  N
  N56      1.0000 0.94100  0.34930  0.76120  Biso   1.000  N
  O40      1.0000 0.99670  0.40790  0.67180  Biso   1.000  O
  H260     1.0000 0.00700  0.42800  0.68000  Biso   1.000  H
  O41      1.0000 0.98250  0.41950  0.00150  Biso   1.000  O
  H261     1.0000 0.97700  0.43870  0.01600  Biso   1.000  H
  H262     1.0000 0.00670  0.38800  0.95450  Biso   1.000  H
  H263     1.0000 0.99220  0.42010  0.98220  Biso   1.000  H
  C210     1.0000 0.96470  0.38180  0.66260  Biso   1.000  C
  H264     1.0000 0.97040  0.36720  0.63860  Biso   1.000  H
  H265     1.0000 0.94060  0.39680  0.65870  Biso   1.000  H
  O42      1.0000 0.97180  0.37030  0.99580  Biso   1.000  O
  H266     1.0000 0.98600  0.35020  0.99300  Biso   1.000  H
  C211     1.0000 0.92530  0.51880  0.78280  Biso   1.000  C
  C212     1.0000 0.89480  0.55120  0.72120  Biso   1.000  C
  C213     1.0000 0.95520  0.60630  0.59980  Biso   1.000  C
  H267     1.0000 0.97690  0.62170  0.60660  Biso   1.000  H
  C214     1.0000 0.95310  0.59180  0.56160  Biso   1.000  C
  C215     1.0000 0.92260  0.56840  0.55230  Biso   1.000  C
  H268     1.0000 0.92040  0.55740  0.52720  Biso   1.000  H
  C216     1.0000 0.89460  0.56120  0.58040  Biso   1.000  C
  H269     1.0000 0.87310  0.54510  0.57460  Biso   1.000  H
  C217     1.0000 0.89820  0.57750  0.61680  Biso   1.000  C
  H270     1.0000 0.87850  0.57290  0.63550  Biso   1.000  H
  C218     1.0000 0.94940  0.62810  0.76990  Biso   1.000  C
  H271     1.0000 0.94780  0.60060  0.76810  Biso   1.000  H
  C219     1.0000 0.96030  0.64540  0.80400  Biso   1.000  C
  C220     1.0000 0.96130  0.68500  0.80780  Biso   1.000  C
  H272     1.0000 0.96850  0.69670  0.83170  Biso   1.000  H
  C221     1.0000 0.95210  0.70610  0.77790  Biso   1.000  C
  H273     1.0000 0.95290  0.73350  0.77990  Biso   1.000  H
  C222     1.0000 0.94140  0.68930  0.74370  Biso   1.000  C
  H274     1.0000 0.93400  0.70550  0.72270  Biso   1.000  H
  C223     1.0000 0.98440  0.60250  0.53200  Biso   1.000  C
  H275     1.0000 0.98210  0.62980  0.52730  Biso   1.000  H
  H276     1.0000 0.00980  0.59750  0.54210  Biso   1.000  H
  C224     1.0000 0.97570  0.62590  0.83990  Biso   1.000  C
  H277     1.0000 0.99300  0.64380  0.85430  Biso   1.000  H
  H278     1.0000 0.95400  0.61840  0.85720  Biso   1.000  H
  N57      1.0000 0.95140  0.52970  0.80020  Biso   1.000  N
  N58      1.0000 0.90750  0.57760  0.70650  Biso   1.000  N
  N59      1.0000 0.92860  0.59970  0.62670  Biso   1.000  N
  N60      1.0000 0.94100  0.65070  0.73880  Biso   1.000  N
  O43      1.0000 0.99670  0.59210  0.82820  Biso   1.000  O
  H279     1.0000 0.00700  0.57200  0.82000  Biso   1.000  H
  O44      1.0000 0.98250  0.58050  0.49850  Biso   1.000  O
  H280     1.0000 0.97700  0.56130  0.48400  Biso   1.000  H
  H281     1.0000 0.00670  0.61200  0.54550  Biso   1.000  H
  H282     1.0000 0.99220  0.57990  0.51780  Biso   1.000  H
  C225     1.0000 0.96470  0.61820  0.83740  Biso   1.000  C
  H283     1.0000 0.97040  0.63280  0.86140  Biso   1.000  H
  H284     1.0000 0.94060  0.60320  0.84130  Biso   1.000  H
  O45      1.0000 0.97180  0.62970  0.50420  Biso   1.000  O
  H285     1.0000 0.98600  0.64980  0.50700  Biso   1.000  H
  C226     1.0000 0.42530  0.01880  0.28280  Biso   1.000  C
  C227     1.0000 0.39480  0.05120  0.22120  Biso   1.000  C
  C228     1.0000 0.45520  0.10630  0.09980  Biso   1.000  C
  H286     1.0000 0.47690  0.12170  0.10660  Biso   1.000  H
  C229     1.0000 0.45310  0.09180  0.06160  Biso   1.000  C
  C230     1.0000 0.42260  0.06840  0.05230  Biso   1.000  C
  H287     1.0000 0.42040  0.05740  0.02720  Biso   1.000  H
  C231     1.0000 0.39460  0.06120  0.08040  Biso   1.000  C
  H288     1.0000 0.37310  0.04510  0.07460  Biso   1.000  H
  C232     1.0000 0.39820  0.07750  0.11680  Biso   1.000  C
  H289     1.0000 0.37850  0.07290  0.13550  Biso   1.000  H
  C233     1.0000 0.44940  0.12810  0.26990  Biso   1.000  C
  H290     1.0000 0.44780  0.10060  0.26810  Biso   1.000  H
  C234     1.0000 0.46030  0.14540  0.30400  Biso   1.000  C
  C235     1.0000 0.46130  0.18500  0.30780  Biso   1.000  C
  H291     1.0000 0.46850  0.19670  0.33170  Biso   1.000  H
  C236     1.0000 0.45210  0.20610  0.27790  Biso   1.000  C
  H292     1.0000 0.45290  0.23350  0.27990  Biso   1.000  H
  C237     1.0000 0.44140  0.18930  0.24370  Biso   1.000  C
  H293     1.0000 0.43400  0.20550  0.22270  Biso   1.000  H
  C238     1.0000 0.48440  0.10250  0.03200  Biso   1.000  C
  H294     1.0000 0.48210  0.12980  0.02730  Biso   1.000  H
  H295     1.0000 0.50980  0.09750  0.04210  Biso   1.000  H
  C239     1.0000 0.47570  0.12590  0.33990  Biso   1.000  C
  H296     1.0000 0.49300  0.14380  0.35430  Biso   1.000  H
  H297     1.0000 0.45400  0.11840  0.35720  Biso   1.000  H
  N61      1.0000 0.45140  0.02970  0.30020  Biso   1.000  N
  N62      1.0000 0.40750  0.07760  0.20650  Biso   1.000  N
  N63      1.0000 0.42860  0.09970  0.12670  Biso   1.000  N
  N64      1.0000 0.44100  0.15070  0.23880  Biso   1.000  N
  O46      1.0000 0.49670  0.09210  0.32820  Biso   1.000  O
  H298     1.0000 0.50700  0.07200  0.32000  Biso   1.000  H
  O47      1.0000 0.48250  0.08050  0.99850  Biso   1.000  O
  H299     1.0000 0.47700  0.06130  0.98400  Biso   1.000  H
  H300     1.0000 0.50670  0.11200  0.04550  Biso   1.000  H
  H301     1.0000 0.49220  0.07990  0.01780  Biso   1.000  H
  C240     1.0000 0.46470  0.11820  0.33740  Biso   1.000  C
  H302     1.0000 0.47040  0.13280  0.36140  Biso   1.000  H
  H303     1.0000 0.44060  0.10320  0.34130  Biso   1.000  H
  O48      1.0000 0.47180  0.12970  0.00420  Biso   1.000  O
  H304     1.0000 0.48600  0.14980  0.00700  Biso   1.000  H
  C241     1.0000 0.71720  0.07470  0.01880  Biso   1.000  C
  C242     1.0000 0.77880  0.10520  0.05120  Biso   1.000  C
  C243     1.0000 0.90020  0.04480  0.10630  Biso   1.000  C
  H305     1.0000 0.89340  0.02310  0.12170  Biso   1.000  H
  C244     1.0000 0.93840  0.04690  0.09180  Biso   1.000  C
  C245     1.0000 0.94770  0.07740  0.06840  Biso   1.000  C
  H306     1.0000 0.97280  0.07960  0.05740  Biso   1.000  H
  C246     1.0000 0.91960  0.10540  0.06120  Biso   1.000  C
  H307     1.0000 0.92540  0.12690  0.04510  Biso   1.000  H
  C247     1.0000 0.88320  0.10180  0.07750  Biso   1.000  C
  H308     1.0000 0.86450  0.12150  0.07290  Biso   1.000  H
  C248     1.0000 0.73010  0.05060  0.12810  Biso   1.000  C
  H309     1.0000 0.73190  0.05220  0.10060  Biso   1.000  H
  C249     1.0000 0.69600  0.03970  0.14540  Biso   1.000  C
  C250     1.0000 0.69220  0.03870  0.18500  Biso   1.000  C
  H310     1.0000 0.66830  0.03150  0.19670  Biso   1.000  H
  C251     1.0000 0.72210  0.04790  0.20610  Biso   1.000  C
  H311     1.0000 0.72010  0.04710  0.23350  Biso   1.000  H
  C252     1.0000 0.75630  0.05860  0.18930  Biso   1.000  C
  H312     1.0000 0.77730  0.06600  0.20550  Biso   1.000  H
  C253     1.0000 0.96800  0.01560  0.10250  Biso   1.000  C
  H313     1.0000 0.97270  0.01790  0.12980  Biso   1.000  H
  H314     1.0000 0.95790  0.99020  0.09750  Biso   1.000  H
  C254     1.0000 0.66010  0.02430  0.12590  Biso   1.000  C
  H315     1.0000 0.64570  0.00700  0.14380  Biso   1.000  H
  H316     1.0000 0.64280  0.04600  0.11840  Biso   1.000  H
  N65      1.0000 0.69980  0.04860  0.02970  Biso   1.000  N
  N66      1.0000 0.79350  0.09250  0.07760  Biso   1.000  N
  N67      1.0000 0.87330  0.07140  0.09970  Biso   1.000  N
  N68      1.0000 0.76120  0.05900  0.15070  Biso   1.000  N
  O49      1.0000 0.67180  0.00330  0.09210  Biso   1.000  O
  H317     1.0000 0.68000  0.99300  0.07200  Biso   1.000  H
  O50      1.0000 0.00150  0.01750  0.08050  Biso   1.000  O
  H318     1.0000 0.01600  0.02300  0.06130  Biso   1.000  H
  H319     1.0000 0.95450  0.99330  0.11200  Biso   1.000  H
  H320     1.0000 0.98220  0.00780  0.07990  Biso   1.000  H
  C255     1.0000 0.66260  0.03530  0.11820  Biso   1.000  C
  H321     1.0000 0.63860  0.02960  0.13280  Biso   1.000  H
  H322     1.0000 0.65870  0.05940  0.10320  Biso   1.000  H
  O51      1.0000 0.99580  0.02820  0.12970  Biso   1.000  O
  H323     1.0000 0.99300  0.01400  0.14980  Biso   1.000  H
  C256     1.0000 0.21720  0.57470  0.51880  Biso   1.000  C
  C257     1.0000 0.27880  0.60520  0.55120  Biso   1.000  C
  C258     1.0000 0.40020  0.54480  0.60630  Biso   1.000  C
  H324     1.0000 0.39340  0.52310  0.62170  Biso   1.000  H
  C259     1.0000 0.43840  0.54690  0.59180  Biso   1.000  C
  C260     1.0000 0.44770  0.57740  0.56840  Biso   1.000  C
  H325     1.0000 0.47280  0.57960  0.55740  Biso   1.000  H
  C261     1.0000 0.41960  0.60540  0.56120  Biso   1.000  C
  H326     1.0000 0.42540  0.62690  0.54510  Biso   1.000  H
  C262     1.0000 0.38320  0.60180  0.57750  Biso   1.000  C
  H327     1.0000 0.36450  0.62150  0.57290  Biso   1.000  H
  C263     1.0000 0.23010  0.55060  0.62810  Biso   1.000  C
  H328     1.0000 0.23190  0.55220  0.60060  Biso   1.000  H
  C264     1.0000 0.19600  0.53970  0.64540  Biso   1.000  C
  C265     1.0000 0.19220  0.53870  0.68500  Biso   1.000  C
  H329     1.0000 0.16830  0.53150  0.69670  Biso   1.000  H
  C266     1.0000 0.22210  0.54790  0.70610  Biso   1.000  C
  H330     1.0000 0.22010  0.54710  0.73350  Biso   1.000  H
  C267     1.0000 0.25630  0.55860  0.68930  Biso   1.000  C
  H331     1.0000 0.27730  0.56600  0.70550  Biso   1.000  H
  C268     1.0000 0.46800  0.51560  0.60250  Biso   1.000  C
  H332     1.0000 0.47270  0.51790  0.62980  Biso   1.000  H
  H333     1.0000 0.45790  0.49020  0.59750  Biso   1.000  H
  C269     1.0000 0.16010  0.52430  0.62590  Biso   1.000  C
  H334     1.0000 0.14570  0.50700  0.64380  Biso   1.000  H
  H335     1.0000 0.14280  0.54600  0.61840  Biso   1.000  H
  N69      1.0000 0.19980  0.54860  0.52970  Biso   1.000  N
  N70      1.0000 0.29350  0.59250  0.57760  Biso   1.000  N
  N71      1.0000 0.37330  0.57140  0.59970  Biso   1.000  N
  N72      1.0000 0.26120  0.55900  0.65070  Biso   1.000  N
  O52      1.0000 0.17180  0.50330  0.59210  Biso   1.000  O
  H336     1.0000 0.18000  0.49300  0.57200  Biso   1.000  H
  O53      1.0000 0.50150  0.51750  0.58050  Biso   1.000  O
  H337     1.0000 0.51600  0.52300  0.56130  Biso   1.000  H
  H338     1.0000 0.45450  0.49330  0.61200  Biso   1.000  H
  H339     1.0000 0.48220  0.50780  0.57990  Biso   1.000  H
  C270     1.0000 0.16260  0.53530  0.61820  Biso   1.000  C
  H340     1.0000 0.13860  0.52960  0.63280  Biso   1.000  H
  H341     1.0000 0.15870  0.55940  0.60320  Biso   1.000  H
  O54      1.0000 0.49580  0.52820  0.62970  Biso   1.000  O
  H342     1.0000 0.49300  0.51400  0.64980  Biso   1.000  H
  C271     1.0000 0.28280  0.57470  0.48120  Biso   1.000  C
  C272     1.0000 0.22120  0.60520  0.44880  Biso   1.000  C
  C273     1.0000 0.09980  0.54480  0.39370  Biso   1.000  C
  H343     1.0000 0.10660  0.52310  0.37830  Biso   1.000  H
  C274     1.0000 0.06160  0.54690  0.40820  Biso   1.000  C
  C275     1.0000 0.05230  0.57740  0.43160  Biso   1.000  C
  H344     1.0000 0.02720  0.57960  0.44260  Biso   1.000  H
  C276     1.0000 0.08040  0.60540  0.43880  Biso   1.000  C
  H345     1.0000 0.07460  0.62690  0.45490  Biso   1.000  H
  C277     1.0000 0.11680  0.60180  0.42250  Biso   1.000  C
  H346     1.0000 0.13550  0.62150  0.42710  Biso   1.000  H
  C278     1.0000 0.26990  0.55060  0.37190  Biso   1.000  C
  H347     1.0000 0.26810  0.55220  0.39940  Biso   1.000  H
  C279     1.0000 0.30400  0.53970  0.35460  Biso   1.000  C
  C280     1.0000 0.30780  0.53870  0.31500  Biso   1.000  C
  H348     1.0000 0.33170  0.53150  0.30330  Biso   1.000  H
  C281     1.0000 0.27790  0.54790  0.29390  Biso   1.000  C
  H349     1.0000 0.27990  0.54710  0.26650  Biso   1.000  H
  C282     1.0000 0.24370  0.55860  0.31070  Biso   1.000  C
  H350     1.0000 0.22270  0.56600  0.29450  Biso   1.000  H
  C283     1.0000 0.03200  0.51560  0.39750  Biso   1.000  C
  H351     1.0000 0.02730  0.51790  0.37020  Biso   1.000  H
  H352     1.0000 0.04210  0.49020  0.40250  Biso   1.000  H
  C284     1.0000 0.33990  0.52430  0.37410  Biso   1.000  C
  H353     1.0000 0.35430  0.50700  0.35620  Biso   1.000  H
  H354     1.0000 0.35720  0.54600  0.38160  Biso   1.000  H
  N73      1.0000 0.30020  0.54860  0.47030  Biso   1.000  N
  N74      1.0000 0.20650  0.59250  0.42240  Biso   1.000  N
  N75      1.0000 0.12670  0.57140  0.40030  Biso   1.000  N
  N76      1.0000 0.23880  0.55900  0.34930  Biso   1.000  N
  O55      1.0000 0.32820  0.50330  0.40790  Biso   1.000  O
  H355     1.0000 0.32000  0.49300  0.42800  Biso   1.000  H
  O56      1.0000 0.99850  0.51750  0.41950  Biso   1.000  O
  H356     1.0000 0.98400  0.52300  0.43870  Biso   1.000  H
  H357     1.0000 0.04550  0.49330  0.38800  Biso   1.000  H
  H358     1.0000 0.01780  0.50780  0.42010  Biso   1.000  H
  C285     1.0000 0.33740  0.53530  0.38180  Biso   1.000  C
  H359     1.0000 0.36140  0.52960  0.36720  Biso   1.000  H
  H360     1.0000 0.34130  0.55940  0.39680  Biso   1.000  H
  O57      1.0000 0.00420  0.52820  0.37030  Biso   1.000  O
  H361     1.0000 0.00700  0.51400  0.35020  Biso   1.000  H
  C286     1.0000 0.78280  0.07470  0.98120  Biso   1.000  C
  C287     1.0000 0.72120  0.10520  0.94880  Biso   1.000  C
  C288     1.0000 0.59980  0.04480  0.89370  Biso   1.000  C
  H362     1.0000 0.60660  0.02310  0.87830  Biso   1.000  H
  C289     1.0000 0.56160  0.04690  0.90820  Biso   1.000  C
  C290     1.0000 0.55230  0.07740  0.93160  Biso   1.000  C
  H363     1.0000 0.52720  0.07960  0.94260  Biso   1.000  H
  C291     1.0000 0.58040  0.10540  0.93880  Biso   1.000  C
  H364     1.0000 0.57460  0.12690  0.95490  Biso   1.000  H
  C292     1.0000 0.61680  0.10180  0.92250  Biso   1.000  C
  H365     1.0000 0.63550  0.12150  0.92710  Biso   1.000  H
  C293     1.0000 0.76990  0.05060  0.87190  Biso   1.000  C
  H366     1.0000 0.76810  0.05220  0.89940  Biso   1.000  H
  C294     1.0000 0.80400  0.03970  0.85460  Biso   1.000  C
  C295     1.0000 0.80780  0.03870  0.81500  Biso   1.000  C
  H367     1.0000 0.83170  0.03150  0.80330  Biso   1.000  H
  C296     1.0000 0.77790  0.04790  0.79390  Biso   1.000  C
  H368     1.0000 0.77990  0.04710  0.76650  Biso   1.000  H
  C297     1.0000 0.74370  0.05860  0.81070  Biso   1.000  C
  H369     1.0000 0.72270  0.06600  0.79450  Biso   1.000  H
  C298     1.0000 0.53200  0.01560  0.89750  Biso   1.000  C
  H370     1.0000 0.52730  0.01790  0.87020  Biso   1.000  H
  H371     1.0000 0.54210  0.99020  0.90250  Biso   1.000  H
  C299     1.0000 0.83990  0.02430  0.87410  Biso   1.000  C
  H372     1.0000 0.85430  0.00700  0.85620  Biso   1.000  H
  H373     1.0000 0.85720  0.04600  0.88160  Biso   1.000  H
  N77      1.0000 0.80020  0.04860  0.97030  Biso   1.000  N
  N78      1.0000 0.70650  0.09250  0.92240  Biso   1.000  N
  N79      1.0000 0.62670  0.07140  0.90030  Biso   1.000  N
  N80      1.0000 0.73880  0.05900  0.84930  Biso   1.000  N
  O58      1.0000 0.82820  0.00330  0.90790  Biso   1.000  O
  H374     1.0000 0.82000  0.99300  0.92800  Biso   1.000  H
  O59      1.0000 0.49850  0.01750  0.91950  Biso   1.000  O
  H375     1.0000 0.48400  0.02300  0.93870  Biso   1.000  H
  H376     1.0000 0.54550  0.99330  0.88800  Biso   1.000  H
  H377     1.0000 0.51780  0.00780  0.92010  Biso   1.000  H
  C300     1.0000 0.83740  0.03530  0.88180  Biso   1.000  C
  H378     1.0000 0.86140  0.02960  0.86720  Biso   1.000  H
  H379     1.0000 0.84130  0.05940  0.89680  Biso   1.000  H
  O60      1.0000 0.50420  0.02820  0.87030  Biso   1.000  O
  H380     1.0000 0.50700  0.01400  0.85020  Biso   1.000  H
  C301     1.0000 0.21720  0.42530  0.98120  Biso   1.000  C
  C302     1.0000 0.27880  0.39480  0.94880  Biso   1.000  C
  C303     1.0000 0.40020  0.45520  0.89370  Biso   1.000  C
  H381     1.0000 0.39340  0.47690  0.87830  Biso   1.000  H
  C304     1.0000 0.43840  0.45310  0.90820  Biso   1.000  C
  C305     1.0000 0.44770  0.42260  0.93160  Biso   1.000  C
  H382     1.0000 0.47280  0.42040  0.94260  Biso   1.000  H
  C306     1.0000 0.41960  0.39460  0.93880  Biso   1.000  C
  H383     1.0000 0.42540  0.37310  0.95490  Biso   1.000  H
  C307     1.0000 0.38320  0.39820  0.92250  Biso   1.000  C
  H384     1.0000 0.36450  0.37850  0.92710  Biso   1.000  H
  C308     1.0000 0.23010  0.44940  0.87190  Biso   1.000  C
  H385     1.0000 0.23190  0.44780  0.89940  Biso   1.000  H
  C309     1.0000 0.19600  0.46030  0.85460  Biso   1.000  C
  C310     1.0000 0.19220  0.46130  0.81500  Biso   1.000  C
  H386     1.0000 0.16830  0.46850  0.80330  Biso   1.000  H
  C311     1.0000 0.22210  0.45210  0.79390  Biso   1.000  C
  H387     1.0000 0.22010  0.45290  0.76650  Biso   1.000  H
  C312     1.0000 0.25630  0.44140  0.81070  Biso   1.000  C
  H388     1.0000 0.27730  0.43400  0.79450  Biso   1.000  H
  C313     1.0000 0.46800  0.48440  0.89750  Biso   1.000  C
  H389     1.0000 0.47270  0.48210  0.87020  Biso   1.000  H
  H390     1.0000 0.45790  0.50980  0.90250  Biso   1.000  H
  C314     1.0000 0.16010  0.47570  0.87410  Biso   1.000  C
  H391     1.0000 0.14570  0.49300  0.85620  Biso   1.000  H
  H392     1.0000 0.14280  0.45400  0.88160  Biso   1.000  H
  N81      1.0000 0.19980  0.45140  0.97030  Biso   1.000  N
  N82      1.0000 0.29350  0.40750  0.92240  Biso   1.000  N
  N83      1.0000 0.37330  0.42860  0.90030  Biso   1.000  N
  N84      1.0000 0.26120  0.44100  0.84930  Biso   1.000  N
  O61      1.0000 0.17180  0.49670  0.90790  Biso   1.000  O
  H393     1.0000 0.18000  0.50700  0.92800  Biso   1.000  H
  O62      1.0000 0.50150  0.48250  0.91950  Biso   1.000  O
  H394     1.0000 0.51600  0.47700  0.93870  Biso   1.000  H
  H395     1.0000 0.45450  0.50670  0.88800  Biso   1.000  H
  H396     1.0000 0.48220  0.49220  0.92010  Biso   1.000  H
  C315     1.0000 0.16260  0.46470  0.88180  Biso   1.000  C
  H397     1.0000 0.13860  0.47040  0.86720  Biso   1.000  H
  H398     1.0000 0.15870  0.44060  0.89680  Biso   1.000  H
  O63      1.0000 0.49580  0.47180  0.87030  Biso   1.000  O
  H399     1.0000 0.49300  0.48600  0.85020  Biso   1.000  H
  C316     1.0000 0.71720  0.92530  0.48120  Biso   1.000  C
  C317     1.0000 0.77880  0.89480  0.44880  Biso   1.000  C
  C318     1.0000 0.90020  0.95520  0.39370  Biso   1.000  C
  H400     1.0000 0.89340  0.97690  0.37830  Biso   1.000  H
  C319     1.0000 0.93840  0.95310  0.40820  Biso   1.000  C
  C320     1.0000 0.94770  0.92260  0.43160  Biso   1.000  C
  H401     1.0000 0.97280  0.92040  0.44260  Biso   1.000  H
  C321     1.0000 0.91960  0.89460  0.43880  Biso   1.000  C
  H402     1.0000 0.92540  0.87310  0.45490  Biso   1.000  H
  C322     1.0000 0.88320  0.89820  0.42250  Biso   1.000  C
  H403     1.0000 0.86450  0.87850  0.42710  Biso   1.000  H
  C323     1.0000 0.73010  0.94940  0.37190  Biso   1.000  C
  H404     1.0000 0.73190  0.94780  0.39940  Biso   1.000  H
  C324     1.0000 0.69600  0.96030  0.35460  Biso   1.000  C
  C325     1.0000 0.69220  0.96130  0.31500  Biso   1.000  C
  H405     1.0000 0.66830  0.96850  0.30330  Biso   1.000  H
  C326     1.0000 0.72210  0.95210  0.29390  Biso   1.000  C
  H406     1.0000 0.72010  0.95290  0.26650  Biso   1.000  H
  C327     1.0000 0.75630  0.94140  0.31070  Biso   1.000  C
  H407     1.0000 0.77730  0.93400  0.29450  Biso   1.000  H
  C328     1.0000 0.96800  0.98440  0.39750  Biso   1.000  C
  H408     1.0000 0.97270  0.98210  0.37020  Biso   1.000  H
  H409     1.0000 0.95790  0.00980  0.40250  Biso   1.000  H
  C329     1.0000 0.66010  0.97570  0.37410  Biso   1.000  C
  H410     1.0000 0.64570  0.99300  0.35620  Biso   1.000  H
  H411     1.0000 0.64280  0.95400  0.38160  Biso   1.000  H
  N85      1.0000 0.69980  0.95140  0.47030  Biso   1.000  N
  N86      1.0000 0.79350  0.90750  0.42240  Biso   1.000  N
  N87      1.0000 0.87330  0.92860  0.40030  Biso   1.000  N
  N88      1.0000 0.76120  0.94100  0.34930  Biso   1.000  N
  O64      1.0000 0.67180  0.99670  0.40790  Biso   1.000  O
  H412     1.0000 0.68000  0.00700  0.42800  Biso   1.000  H
  O65      1.0000 0.00150  0.98250  0.41950  Biso   1.000  O
  H413     1.0000 0.01600  0.97700  0.43870  Biso   1.000  H
  H414     1.0000 0.95450  0.00670  0.38800  Biso   1.000  H
  H415     1.0000 0.98220  0.99220  0.42010  Biso   1.000  H
  C330     1.0000 0.66260  0.96470  0.38180  Biso   1.000  C
  H416     1.0000 0.63860  0.97040  0.36720  Biso   1.000  H
  H417     1.0000 0.65870  0.94060  0.39680  Biso   1.000  H
  O66      1.0000 0.99580  0.97180  0.37030  Biso   1.000  O
  H418     1.0000 0.99300  0.98600  0.35020  Biso   1.000  H
  C331     1.0000 0.78280  0.92530  0.51880  Biso   1.000  C
  C332     1.0000 0.72120  0.89480  0.55120  Biso   1.000  C
  C333     1.0000 0.59980  0.95520  0.60630  Biso   1.000  C
  H419     1.0000 0.60660  0.97690  0.62170  Biso   1.000  H
  C334     1.0000 0.56160  0.95310  0.59180  Biso   1.000  C
  C335     1.0000 0.55230  0.92260  0.56840  Biso   1.000  C
  H420     1.0000 0.52720  0.92040  0.55740  Biso   1.000  H
  C336     1.0000 0.58040  0.89460  0.56120  Biso   1.000  C
  H421     1.0000 0.57460  0.87310  0.54510  Biso   1.000  H
  C337     1.0000 0.61680  0.89820  0.57750  Biso   1.000  C
  H422     1.0000 0.63550  0.87850  0.57290  Biso   1.000  H
  C338     1.0000 0.76990  0.94940  0.62810  Biso   1.000  C
  H423     1.0000 0.76810  0.94780  0.60060  Biso   1.000  H
  C339     1.0000 0.80400  0.96030  0.64540  Biso   1.000  C
  C340     1.0000 0.80780  0.96130  0.68500  Biso   1.000  C
  H424     1.0000 0.83170  0.96850  0.69670  Biso   1.000  H
  C341     1.0000 0.77790  0.95210  0.70610  Biso   1.000  C
  H425     1.0000 0.77990  0.95290  0.73350  Biso   1.000  H
  C342     1.0000 0.74370  0.94140  0.68930  Biso   1.000  C
  H426     1.0000 0.72270  0.93400  0.70550  Biso   1.000  H
  C343     1.0000 0.53200  0.98440  0.60250  Biso   1.000  C
  H427     1.0000 0.52730  0.98210  0.62980  Biso   1.000  H
  H428     1.0000 0.54210  0.00980  0.59750  Biso   1.000  H
  C344     1.0000 0.83990  0.97570  0.62590  Biso   1.000  C
  H429     1.0000 0.85430  0.99300  0.64380  Biso   1.000  H
  H430     1.0000 0.85720  0.95400  0.61840  Biso   1.000  H
  N89      1.0000 0.80020  0.95140  0.52970  Biso   1.000  N
  N90      1.0000 0.70650  0.90750  0.57760  Biso   1.000  N
  N91      1.0000 0.62670  0.92860  0.59970  Biso   1.000  N
  N92      1.0000 0.73880  0.94100  0.65070  Biso   1.000  N
  O67      1.0000 0.82820  0.99670  0.59210  Biso   1.000  O
  H431     1.0000 0.82000  0.00700  0.57200  Biso   1.000  H
  O68      1.0000 0.49850  0.98250  0.58050  Biso   1.000  O
  H432     1.0000 0.48400  0.97700  0.56130  Biso   1.000  H
  H433     1.0000 0.54550  0.00670  0.61200  Biso   1.000  H
  H434     1.0000 0.51780  0.99220  0.57990  Biso   1.000  H
  C345     1.0000 0.83740  0.96470  0.61820  Biso   1.000  C
  H435     1.0000 0.86140  0.97040  0.63280  Biso   1.000  H
  H436     1.0000 0.84130  0.94060  0.60320  Biso   1.000  H
  O69      1.0000 0.50420  0.97180  0.62970  Biso   1.000  O
  H437     1.0000 0.50700  0.98600  0.64980  Biso   1.000  H
  C346     1.0000 0.28280  0.42530  0.01880  Biso   1.000  C
  C347     1.0000 0.22120  0.39480  0.05120  Biso   1.000  C
  C348     1.0000 0.09980  0.45520  0.10630  Biso   1.000  C
  H438     1.0000 0.10660  0.47690  0.12170  Biso   1.000  H
  C349     1.0000 0.06160  0.45310  0.09180  Biso   1.000  C
  C350     1.0000 0.05230  0.42260  0.06840  Biso   1.000  C
  H439     1.0000 0.02720  0.42040  0.05740  Biso   1.000  H
  C351     1.0000 0.08040  0.39460  0.06120  Biso   1.000  C
  H440     1.0000 0.07460  0.37310  0.04510  Biso   1.000  H
  C352     1.0000 0.11680  0.39820  0.07750  Biso   1.000  C
  H441     1.0000 0.13550  0.37850  0.07290  Biso   1.000  H
  C353     1.0000 0.26990  0.44940  0.12810  Biso   1.000  C
  H442     1.0000 0.26810  0.44780  0.10060  Biso   1.000  H
  C354     1.0000 0.30400  0.46030  0.14540  Biso   1.000  C
  C355     1.0000 0.30780  0.46130  0.18500  Biso   1.000  C
  H443     1.0000 0.33170  0.46850  0.19670  Biso   1.000  H
  C356     1.0000 0.27790  0.45210  0.20610  Biso   1.000  C
  H444     1.0000 0.27990  0.45290  0.23350  Biso   1.000  H
  C357     1.0000 0.24370  0.44140  0.18930  Biso   1.000  C
  H445     1.0000 0.22270  0.43400  0.20550  Biso   1.000  H
  C358     1.0000 0.03200  0.48440  0.10250  Biso   1.000  C
  H446     1.0000 0.02730  0.48210  0.12980  Biso   1.000  H
  H447     1.0000 0.04210  0.50980  0.09750  Biso   1.000  H
  C359     1.0000 0.33990  0.47570  0.12590  Biso   1.000  C
  H448     1.0000 0.35430  0.49300  0.14380  Biso   1.000  H
  H449     1.0000 0.35720  0.45400  0.11840  Biso   1.000  H
  N93      1.0000 0.30020  0.45140  0.02970  Biso   1.000  N
  N94      1.0000 0.20650  0.40750  0.07760  Biso   1.000  N
  N95      1.0000 0.12670  0.42860  0.09970  Biso   1.000  N
  N96      1.0000 0.23880  0.44100  0.15070  Biso   1.000  N
  O70      1.0000 0.32820  0.49670  0.09210  Biso   1.000  O
  H450     1.0000 0.32000  0.50700  0.07200  Biso   1.000  H
  O71      1.0000 0.99850  0.48250  0.08050  Biso   1.000  O
  H451     1.0000 0.98400  0.47700  0.06130  Biso   1.000  H
  H452     1.0000 0.04550  0.50670  0.11200  Biso   1.000  H
  H453     1.0000 0.01780  0.49220  0.07990  Biso   1.000  H
  C360     1.0000 0.33740  0.46470  0.11820  Biso   1.000  C
  H454     1.0000 0.36140  0.47040  0.13280  Biso   1.000  H
  H455     1.0000 0.34130  0.44060  0.10320  Biso   1.000  H
  O72      1.0000 0.00420  0.47180  0.12970  Biso   1.000  O
  H456     1.0000 0.00700  0.48600  0.14980  Biso   1.000  H
  C361     1.0000 0.46720  0.26880  0.17530  Biso   1.000  C
  C362     1.0000 0.52880  0.30120  0.14480  Biso   1.000  C
  C363     1.0000 0.65020  0.35630  0.20520  Biso   1.000  C
  H457     1.0000 0.64340  0.37170  0.22690  Biso   1.000  H
  C364     1.0000 0.68840  0.34180  0.20310  Biso   1.000  C
  C365     1.0000 0.69770  0.31840  0.17260  Biso   1.000  C
  H458     1.0000 0.72280  0.30740  0.17040  Biso   1.000  H
  C366     1.0000 0.66960  0.31120  0.14460  Biso   1.000  C
  H459     1.0000 0.67540  0.29510  0.12310  Biso   1.000  H
  C367     1.0000 0.63320  0.32750  0.14820  Biso   1.000  C
  H460     1.0000 0.61450  0.32290  0.12850  Biso   1.000  H
  C368     1.0000 0.48010  0.37810  0.19940  Biso   1.000  C
  H461     1.0000 0.48190  0.35060  0.19780  Biso   1.000  H
  C369     1.0000 0.44600  0.39540  0.21030  Biso   1.000  C
  C370     1.0000 0.44220  0.43500  0.21130  Biso   1.000  C
  H462     1.0000 0.41830  0.44670  0.21850  Biso   1.000  H
  C371     1.0000 0.47210  0.45610  0.20210  Biso   1.000  C
  H463     1.0000 0.47010  0.48350  0.20290  Biso   1.000  H
  C372     1.0000 0.50630  0.43930  0.19140  Biso   1.000  C
  H464     1.0000 0.52730  0.45550  0.18400  Biso   1.000  H
  C373     1.0000 0.71800  0.35250  0.23440  Biso   1.000  C
  H465     1.0000 0.72270  0.37980  0.23210  Biso   1.000  H
  H466     1.0000 0.70790  0.34750  0.25980  Biso   1.000  H
  C374     1.0000 0.41010  0.37590  0.22570  Biso   1.000  C
  H467     1.0000 0.39570  0.39380  0.24300  Biso   1.000  H
  H468     1.0000 0.39280  0.36840  0.20400  Biso   1.000  H
  N97      1.0000 0.44980  0.27970  0.20140  Biso   1.000  N
  N98      1.0000 0.54350  0.32760  0.15750  Biso   1.000  N
  N99      1.0000 0.62330  0.34970  0.17860  Biso   1.000  N
  N100     1.0000 0.51120  0.40070  0.19100  Biso   1.000  N
  O73      1.0000 0.42180  0.34210  0.24670  Biso   1.000  O
  H469     1.0000 0.43000  0.32200  0.25700  Biso   1.000  H
  O74      1.0000 0.75150  0.33050  0.23250  Biso   1.000  O
  H470     1.0000 0.76600  0.31130  0.22700  Biso   1.000  H
  H471     1.0000 0.70450  0.36200  0.25670  Biso   1.000  H
  H472     1.0000 0.73220  0.32990  0.24220  Biso   1.000  H
  C375     1.0000 0.41260  0.36820  0.21470  Biso   1.000  C
  H473     1.0000 0.38860  0.38280  0.22040  Biso   1.000  H
  H474     1.0000 0.40870  0.35320  0.19060  Biso   1.000  H
  O75      1.0000 0.74580  0.37970  0.22180  Biso   1.000  O
  H475     1.0000 0.74300  0.39980  0.23600  Biso   1.000  H
  C376     1.0000 0.96720  0.76880  0.67530  Biso   1.000  C
  C377     1.0000 0.02880  0.80120  0.64480  Biso   1.000  C
  C378     1.0000 0.15020  0.85630  0.70520  Biso   1.000  C
  H476     1.0000 0.14340  0.87170  0.72690  Biso   1.000  H
  C379     1.0000 0.18840  0.84180  0.70310  Biso   1.000  C
  C380     1.0000 0.19770  0.81840  0.67260  Biso   1.000  C
  H477     1.0000 0.22280  0.80740  0.67040  Biso   1.000  H
  C381     1.0000 0.16960  0.81120  0.64460  Biso   1.000  C
  H478     1.0000 0.17540  0.79510  0.62310  Biso   1.000  H
  C382     1.0000 0.13320  0.82750  0.64820  Biso   1.000  C
  H479     1.0000 0.11450  0.82290  0.62850  Biso   1.000  H
  C383     1.0000 0.98010  0.87810  0.69940  Biso   1.000  C
  H480     1.0000 0.98190  0.85060  0.69780  Biso   1.000  H
  C384     1.0000 0.94600  0.89540  0.71030  Biso   1.000  C
  C385     1.0000 0.94220  0.93500  0.71130  Biso   1.000  C
  H481     1.0000 0.91830  0.94670  0.71850  Biso   1.000  H
  C386     1.0000 0.97210  0.95610  0.70210  Biso   1.000  C
  H482     1.0000 0.97010  0.98350  0.70290  Biso   1.000  H
  C387     1.0000 0.00630  0.93930  0.69140  Biso   1.000  C
  H483     1.0000 0.02730  0.95550  0.68400  Biso   1.000  H
  C388     1.0000 0.21800  0.85250  0.73440  Biso   1.000  C
  H484     1.0000 0.22270  0.87980  0.73210  Biso   1.000  H
  H485     1.0000 0.20790  0.84750  0.75980  Biso   1.000  H
  C389     1.0000 0.91010  0.87590  0.72570  Biso   1.000  C
  H486     1.0000 0.89570  0.89380  0.74300  Biso   1.000  H
  H487     1.0000 0.89280  0.86840  0.70400  Biso   1.000  H
  N101     1.0000 0.94980  0.77970  0.70140  Biso   1.000  N
  N102     1.0000 0.04350  0.82760  0.65750  Biso   1.000  N
  N103     1.0000 0.12330  0.84970  0.67860  Biso   1.000  N
  N104     1.0000 0.01120  0.90070  0.69100  Biso   1.000  N
  O76      1.0000 0.92180  0.84210  0.74670  Biso   1.000  O
  H488     1.0000 0.93000  0.82200  0.75700  Biso   1.000  H
  O77      1.0000 0.25150  0.83050  0.73250  Biso   1.000  O
  H489     1.0000 0.26600  0.81130  0.72700  Biso   1.000  H
  H490     1.0000 0.20450  0.86200  0.75670  Biso   1.000  H
  H491     1.0000 0.23220  0.82990  0.74220  Biso   1.000  H
  C390     1.0000 0.91260  0.86820  0.71470  Biso   1.000  C
  H492     1.0000 0.88860  0.88280  0.72040  Biso   1.000  H
  H493     1.0000 0.90870  0.85320  0.69060  Biso   1.000  H
  O78      1.0000 0.24580  0.87970  0.72180  Biso   1.000  O
  H494     1.0000 0.24300  0.89980  0.73600  Biso   1.000  H
  C391     1.0000 0.03280  0.73120  0.67530  Biso   1.000  C
  C392     1.0000 0.97120  0.69880  0.64480  Biso   1.000  C
  C393     1.0000 0.84980  0.64370  0.70520  Biso   1.000  C
  H495     1.0000 0.85660  0.62830  0.72690  Biso   1.000  H
  C394     1.0000 0.81160  0.65820  0.70310  Biso   1.000  C
  C395     1.0000 0.80230  0.68160  0.67260  Biso   1.000  C
  H496     1.0000 0.77720  0.69260  0.67040  Biso   1.000  H
  C396     1.0000 0.83040  0.68880  0.64460  Biso   1.000  C
  H497     1.0000 0.82460  0.70490  0.62310  Biso   1.000  H
  C397     1.0000 0.86680  0.67250  0.64820  Biso   1.000  C
  H498     1.0000 0.88550  0.67710  0.62850  Biso   1.000  H
  C398     1.0000 0.01990  0.62190  0.69940  Biso   1.000  C
  H499     1.0000 0.01810  0.64940  0.69780  Biso   1.000  H
  C399     1.0000 0.05400  0.60460  0.71030  Biso   1.000  C
  C400     1.0000 0.05780  0.56500  0.71130  Biso   1.000  C
  H500     1.0000 0.08170  0.55330  0.71850  Biso   1.000  H
  C401     1.0000 0.02790  0.54390  0.70210  Biso   1.000  C
  H501     1.0000 0.02990  0.51650  0.70290  Biso   1.000  H
  C402     1.0000 0.99370  0.56070  0.69140  Biso   1.000  C
  H502     1.0000 0.97270  0.54450  0.68400  Biso   1.000  H
  C403     1.0000 0.78200  0.64750  0.73440  Biso   1.000  C
  H503     1.0000 0.77730  0.62020  0.73210  Biso   1.000  H
  H504     1.0000 0.79210  0.65250  0.75980  Biso   1.000  H
  C404     1.0000 0.08990  0.62410  0.72570  Biso   1.000  C
  H505     1.0000 0.10430  0.60620  0.74300  Biso   1.000  H
  H506     1.0000 0.10720  0.63160  0.70400  Biso   1.000  H
  N105     1.0000 0.05020  0.72030  0.70140  Biso   1.000  N
  N106     1.0000 0.95650  0.67240  0.65750  Biso   1.000  N
  N107     1.0000 0.87670  0.65030  0.67860  Biso   1.000  N
  N108     1.0000 0.98880  0.59930  0.69100  Biso   1.000  N
  O79      1.0000 0.07820  0.65790  0.74670  Biso   1.000  O
  H507     1.0000 0.07000  0.67800  0.75700  Biso   1.000  H
  O80      1.0000 0.74850  0.66950  0.73250  Biso   1.000  O
  H508     1.0000 0.73400  0.68870  0.72700  Biso   1.000  H
  H509     1.0000 0.79550  0.63800  0.75670  Biso   1.000  H
  H510     1.0000 0.76780  0.67010  0.74220  Biso   1.000  H
  C405     1.0000 0.08740  0.63180  0.71470  Biso   1.000  C
  H511     1.0000 0.11140  0.61720  0.72040  Biso   1.000  H
  H512     1.0000 0.09130  0.64680  0.69060  Biso   1.000  H
  O81      1.0000 0.75420  0.62030  0.72180  Biso   1.000  O
  H513     1.0000 0.75700  0.60020  0.73600  Biso   1.000  H
  C406     1.0000 0.53280  0.23120  0.17530  Biso   1.000  C
  C407     1.0000 0.47120  0.19880  0.14480  Biso   1.000  C
  C408     1.0000 0.34980  0.14370  0.20520  Biso   1.000  C
  H514     1.0000 0.35660  0.12830  0.22690  Biso   1.000  H
  C409     1.0000 0.31160  0.15820  0.20310  Biso   1.000  C
  C410     1.0000 0.30230  0.18160  0.17260  Biso   1.000  C
  H515     1.0000 0.27720  0.19260  0.17040  Biso   1.000  H
  C411     1.0000 0.33040  0.18880  0.14460  Biso   1.000  C
  H516     1.0000 0.32460  0.20490  0.12310  Biso   1.000  H
  C412     1.0000 0.36680  0.17250  0.14820  Biso   1.000  C
  H517     1.0000 0.38550  0.17710  0.12850  Biso   1.000  H
  C413     1.0000 0.51990  0.12190  0.19940  Biso   1.000  C
  H518     1.0000 0.51810  0.14940  0.19780  Biso   1.000  H
  C414     1.0000 0.55400  0.10460  0.21030  Biso   1.000  C
  C415     1.0000 0.55780  0.06500  0.21130  Biso   1.000  C
  H519     1.0000 0.58170  0.05330  0.21850  Biso   1.000  H
  C416     1.0000 0.52790  0.04390  0.20210  Biso   1.000  C
  H520     1.0000 0.52990  0.01650  0.20290  Biso   1.000  H
  C417     1.0000 0.49370  0.06070  0.19140  Biso   1.000  C
  H521     1.0000 0.47270  0.04450  0.18400  Biso   1.000  H
  C418     1.0000 0.28200  0.14750  0.23440  Biso   1.000  C
  H522     1.0000 0.27730  0.12020  0.23210  Biso   1.000  H
  H523     1.0000 0.29210  0.15250  0.25980  Biso   1.000  H
  C419     1.0000 0.58990  0.12410  0.22570  Biso   1.000  C
  H524     1.0000 0.60430  0.10620  0.24300  Biso   1.000  H
  H525     1.0000 0.60720  0.13160  0.20400  Biso   1.000  H
  N109     1.0000 0.55020  0.22030  0.20140  Biso   1.000  N
  N110     1.0000 0.45650  0.17240  0.15750  Biso   1.000  N
  N111     1.0000 0.37670  0.15030  0.17860  Biso   1.000  N
  N112     1.0000 0.48880  0.09930  0.19100  Biso   1.000  N
  O82      1.0000 0.57820  0.15790  0.24670  Biso   1.000  O
  H526     1.0000 0.57000  0.17800  0.25700  Biso   1.000  H
  O83      1.0000 0.24850  0.16950  0.23250  Biso   1.000  O
  H527     1.0000 0.23400  0.18870  0.22700  Biso   1.000  H
  H528     1.0000 0.29550  0.13800  0.25670  Biso   1.000  H
  H529     1.0000 0.26780  0.17010  0.24220  Biso   1.000  H
  C420     1.0000 0.58740  0.13180  0.21470  Biso   1.000  C
  H530     1.0000 0.61140  0.11720  0.22040  Biso   1.000  H
  H531     1.0000 0.59130  0.14680  0.19060  Biso   1.000  H
  O84      1.0000 0.25420  0.12030  0.22180  Biso   1.000  O
  H532     1.0000 0.25700  0.10020  0.23600  Biso   1.000  H
  C421     1.0000 0.96720  0.23120  0.82470  Biso   1.000  C
  C422     1.0000 0.02880  0.19880  0.85520  Biso   1.000  C
  C423     1.0000 0.15020  0.14370  0.79480  Biso   1.000  C
  H533     1.0000 0.14340  0.12830  0.77310  Biso   1.000  H
  C424     1.0000 0.18840  0.15820  0.79690  Biso   1.000  C
  C425     1.0000 0.19770  0.18160  0.82740  Biso   1.000  C
  H534     1.0000 0.22280  0.19260  0.82960  Biso   1.000  H
  C426     1.0000 0.16960  0.18880  0.85540  Biso   1.000  C
  H535     1.0000 0.17540  0.20490  0.87690  Biso   1.000  H
  C427     1.0000 0.13320  0.17250  0.85180  Biso   1.000  C
  H536     1.0000 0.11450  0.17710  0.87150  Biso   1.000  H
  C428     1.0000 0.98010  0.12190  0.80060  Biso   1.000  C
  H537     1.0000 0.98190  0.14940  0.80220  Biso   1.000  H
  C429     1.0000 0.94600  0.10460  0.78970  Biso   1.000  C
  C430     1.0000 0.94220  0.06500  0.78870  Biso   1.000  C
  H538     1.0000 0.91830  0.05330  0.78150  Biso   1.000  H
  C431     1.0000 0.97210  0.04390  0.79790  Biso   1.000  C
  H539     1.0000 0.97010  0.01650  0.79710  Biso   1.000  H
  C432     1.0000 0.00630  0.06070  0.80860  Biso   1.000  C
  H540     1.0000 0.02730  0.04450  0.81600  Biso   1.000  H
  C433     1.0000 0.21800  0.14750  0.76560  Biso   1.000  C
  H541     1.0000 0.22270  0.12020  0.76790  Biso   1.000  H
  H542     1.0000 0.20790  0.15250  0.74020  Biso   1.000  H
  C434     1.0000 0.91010  0.12410  0.77430  Biso   1.000  C
  H543     1.0000 0.89570  0.10620  0.75700  Biso   1.000  H
  H544     1.0000 0.89280  0.13160  0.79600  Biso   1.000  H
  N113     1.0000 0.94980  0.22030  0.79860  Biso   1.000  N
  N114     1.0000 0.04350  0.17240  0.84250  Biso   1.000  N
  N115     1.0000 0.12330  0.15030  0.82140  Biso   1.000  N
  N116     1.0000 0.01120  0.09930  0.80900  Biso   1.000  N
  O85      1.0000 0.92180  0.15790  0.75330  Biso   1.000  O
  H545     1.0000 0.93000  0.17800  0.74300  Biso   1.000  H
  O86      1.0000 0.25150  0.16950  0.76750  Biso   1.000  O
  H546     1.0000 0.26600  0.18870  0.77300  Biso   1.000  H
  H547     1.0000 0.20450  0.13800  0.74330  Biso   1.000  H
  H548     1.0000 0.23220  0.17010  0.75780  Biso   1.000  H
  C435     1.0000 0.91260  0.13180  0.78530  Biso   1.000  C
  H549     1.0000 0.88860  0.11720  0.77960  Biso   1.000  H
  H550     1.0000 0.90870  0.14680  0.80940  Biso   1.000  H
  O87      1.0000 0.24580  0.12030  0.77820  Biso   1.000  O
  H551     1.0000 0.24300  0.10020  0.76400  Biso   1.000  H
  C436     1.0000 0.46720  0.73120  0.32470  Biso   1.000  C
  C437     1.0000 0.52880  0.69880  0.35520  Biso   1.000  C
  C438     1.0000 0.65020  0.64370  0.29480  Biso   1.000  C
  H552     1.0000 0.64340  0.62830  0.27310  Biso   1.000  H
  C439     1.0000 0.68840  0.65820  0.29690  Biso   1.000  C
  C440     1.0000 0.69770  0.68160  0.32740  Biso   1.000  C
  H553     1.0000 0.72280  0.69260  0.32960  Biso   1.000  H
  C441     1.0000 0.66960  0.68880  0.35540  Biso   1.000  C
  H554     1.0000 0.67540  0.70490  0.37690  Biso   1.000  H
  C442     1.0000 0.63320  0.67250  0.35180  Biso   1.000  C
  H555     1.0000 0.61450  0.67710  0.37150  Biso   1.000  H
  C443     1.0000 0.48010  0.62190  0.30060  Biso   1.000  C
  H556     1.0000 0.48190  0.64940  0.30220  Biso   1.000  H
  C444     1.0000 0.44600  0.60460  0.28970  Biso   1.000  C
  C445     1.0000 0.44220  0.56500  0.28870  Biso   1.000  C
  H557     1.0000 0.41830  0.55330  0.28150  Biso   1.000  H
  C446     1.0000 0.47210  0.54390  0.29790  Biso   1.000  C
  H558     1.0000 0.47010  0.51650  0.29710  Biso   1.000  H
  C447     1.0000 0.50630  0.56070  0.30860  Biso   1.000  C
  H559     1.0000 0.52730  0.54450  0.31600  Biso   1.000  H
  C448     1.0000 0.71800  0.64750  0.26560  Biso   1.000  C
  H560     1.0000 0.72270  0.62020  0.26790  Biso   1.000  H
  H561     1.0000 0.70790  0.65250  0.24020  Biso   1.000  H
  C449     1.0000 0.41010  0.62410  0.27430  Biso   1.000  C
  H562     1.0000 0.39570  0.60620  0.25700  Biso   1.000  H
  H563     1.0000 0.39280  0.63160  0.29600  Biso   1.000  H
  N117     1.0000 0.44980  0.72030  0.29860  Biso   1.000  N
  N118     1.0000 0.54350  0.67240  0.34250  Biso   1.000  N
  N119     1.0000 0.62330  0.65030  0.32140  Biso   1.000  N
  N120     1.0000 0.51120  0.59930  0.30900  Biso   1.000  N
  O88      1.0000 0.42180  0.65790  0.25330  Biso   1.000  O
  H564     1.0000 0.43000  0.67800  0.24300  Biso   1.000  H
  O89      1.0000 0.75150  0.66950  0.26750  Biso   1.000  O
  H565     1.0000 0.76600  0.68870  0.27300  Biso   1.000  H
  H566     1.0000 0.70450  0.63800  0.24330  Biso   1.000  H
  H567     1.0000 0.73220  0.67010  0.25780  Biso   1.000  H
  C450     1.0000 0.41260  0.63180  0.28530  Biso   1.000  C
  H568     1.0000 0.38860  0.61720  0.27960  Biso   1.000  H
  H569     1.0000 0.40870  0.64680  0.30940  Biso   1.000  H
  O90      1.0000 0.74580  0.62030  0.27820  Biso   1.000  O
  H570     1.0000 0.74300  0.60020  0.26400  Biso   1.000  H
  C451     1.0000 0.53280  0.76880  0.32470  Biso   1.000  C
  C452     1.0000 0.47120  0.80120  0.35520  Biso   1.000  C
  C453     1.0000 0.34980  0.85630  0.29480  Biso   1.000  C
  H571     1.0000 0.35660  0.87170  0.27310  Biso   1.000  H
  C454     1.0000 0.31160  0.84180  0.29690  Biso   1.000  C
  C455     1.0000 0.30230  0.81840  0.32740  Biso   1.000  C
  H572     1.0000 0.27720  0.80740  0.32960  Biso   1.000  H
  C456     1.0000 0.33040  0.81120  0.35540  Biso   1.000  C
  H573     1.0000 0.32460  0.79510  0.37690  Biso   1.000  H
  C457     1.0000 0.36680  0.82750  0.35180  Biso   1.000  C
  H574     1.0000 0.38550  0.82290  0.37150  Biso   1.000  H
  C458     1.0000 0.51990  0.87810  0.30060  Biso   1.000  C
  H575     1.0000 0.51810  0.85060  0.30220  Biso   1.000  H
  C459     1.0000 0.55400  0.89540  0.28970  Biso   1.000  C
  C460     1.0000 0.55780  0.93500  0.28870  Biso   1.000  C
  H576     1.0000 0.58170  0.94670  0.28150  Biso   1.000  H
  C461     1.0000 0.52790  0.95610  0.29790  Biso   1.000  C
  H577     1.0000 0.52990  0.98350  0.29710  Biso   1.000  H
  C462     1.0000 0.49370  0.93930  0.30860  Biso   1.000  C
  H578     1.0000 0.47270  0.95550  0.31600  Biso   1.000  H
  C463     1.0000 0.28200  0.85250  0.26560  Biso   1.000  C
  H579     1.0000 0.27730  0.87980  0.26790  Biso   1.000  H
  H580     1.0000 0.29210  0.84750  0.24020  Biso   1.000  H
  C464     1.0000 0.58990  0.87590  0.27430  Biso   1.000  C
  H581     1.0000 0.60430  0.89380  0.25700  Biso   1.000  H
  H582     1.0000 0.60720  0.86840  0.29600  Biso   1.000  H
  N121     1.0000 0.55020  0.77970  0.29860  Biso   1.000  N
  N122     1.0000 0.45650  0.82760  0.34250  Biso   1.000  N
  N123     1.0000 0.37670  0.84970  0.32140  Biso   1.000  N
  N124     1.0000 0.48880  0.90070  0.30900  Biso   1.000  N
  O91      1.0000 0.57820  0.84210  0.25330  Biso   1.000  O
  H583     1.0000 0.57000  0.82200  0.24300  Biso   1.000  H
  O92      1.0000 0.24850  0.83050  0.26750  Biso   1.000  O
  H584     1.0000 0.23400  0.81130  0.27300  Biso   1.000  H
  H585     1.0000 0.29550  0.86200  0.24330  Biso   1.000  H
  H586     1.0000 0.26780  0.82990  0.25780  Biso   1.000  H
  C465     1.0000 0.58740  0.86820  0.28530  Biso   1.000  C
  H587     1.0000 0.61140  0.88280  0.27960  Biso   1.000  H
  H588     1.0000 0.59130  0.85320  0.30940  Biso   1.000  H
  O93      1.0000 0.25420  0.87970  0.27820  Biso   1.000  O
  H589     1.0000 0.25700  0.89980  0.26400  Biso   1.000  H
  C466     1.0000 0.03280  0.26880  0.82470  Biso   1.000  C
  C467     1.0000 0.97120  0.30120  0.85520  Biso   1.000  C
  C468     1.0000 0.84980  0.35630  0.79480  Biso   1.000  C
  H590     1.0000 0.85660  0.37170  0.77310  Biso   1.000  H
  C469     1.0000 0.81160  0.34180  0.79690  Biso   1.000  C
  C470     1.0000 0.80230  0.31840  0.82740  Biso   1.000  C
  H591     1.0000 0.77720  0.30740  0.82960  Biso   1.000  H
  C471     1.0000 0.83040  0.31120  0.85540  Biso   1.000  C
  H592     1.0000 0.82460  0.29510  0.87690  Biso   1.000  H
  C472     1.0000 0.86680  0.32750  0.85180  Biso   1.000  C
  H593     1.0000 0.88550  0.32290  0.87150  Biso   1.000  H
  C473     1.0000 0.01990  0.37810  0.80060  Biso   1.000  C
  H594     1.0000 0.01810  0.35060  0.80220  Biso   1.000  H
  C474     1.0000 0.05400  0.39540  0.78970  Biso   1.000  C
  C475     1.0000 0.05780  0.43500  0.78870  Biso   1.000  C
  H595     1.0000 0.08170  0.44670  0.78150  Biso   1.000  H
  C476     1.0000 0.02790  0.45610  0.79790  Biso   1.000  C
  H596     1.0000 0.02990  0.48350  0.79710  Biso   1.000  H
  C477     1.0000 0.99370  0.43930  0.80860  Biso   1.000  C
  H597     1.0000 0.97270  0.45550  0.81600  Biso   1.000  H
  C478     1.0000 0.78200  0.35250  0.76560  Biso   1.000  C
  H598     1.0000 0.77730  0.37980  0.76790  Biso   1.000  H
  H599     1.0000 0.79210  0.34750  0.74020  Biso   1.000  H
  C479     1.0000 0.08990  0.37590  0.77430  Biso   1.000  C
  H600     1.0000 0.10430  0.39380  0.75700  Biso   1.000  H
  H601     1.0000 0.10720  0.36840  0.79600  Biso   1.000  H
  N125     1.0000 0.05020  0.27970  0.79860  Biso   1.000  N
  N126     1.0000 0.95650  0.32760  0.84250  Biso   1.000  N
  N127     1.0000 0.87670  0.34970  0.82140  Biso   1.000  N
  N128     1.0000 0.98880  0.40070  0.80900  Biso   1.000  N
  O94      1.0000 0.07820  0.34210  0.75330  Biso   1.000  O
  H602     1.0000 0.07000  0.32200  0.74300  Biso   1.000  H
  O95      1.0000 0.74850  0.33050  0.76750  Biso   1.000  O
  H603     1.0000 0.73400  0.31130  0.77300  Biso   1.000  H
  H604     1.0000 0.79550  0.36200  0.74330  Biso   1.000  H
  H605     1.0000 0.76780  0.32990  0.75780  Biso   1.000  H
  C480     1.0000 0.08740  0.36820  0.78530  Biso   1.000  C
  H606     1.0000 0.11140  0.38280  0.77960  Biso   1.000  H
  H607     1.0000 0.09130  0.35320  0.80940  Biso   1.000  H
  O96      1.0000 0.75420  0.37970  0.77820  Biso   1.000  O
  H608     1.0000 0.75700  0.39980  0.76400  Biso   1.000  H
  C481     1.0000 0.76880  0.32470  0.53280  Biso   1.000  C
  C482     1.0000 0.80120  0.35520  0.47120  Biso   1.000  C
  C483     1.0000 0.85630  0.29480  0.34980  Biso   1.000  C
  H609     1.0000 0.87170  0.27310  0.35660  Biso   1.000  H
  C484     1.0000 0.84180  0.29690  0.31160  Biso   1.000  C
  C485     1.0000 0.81840  0.32740  0.30230  Biso   1.000  C
  H610     1.0000 0.80740  0.32960  0.27720  Biso   1.000  H
  C486     1.0000 0.81120  0.35540  0.33040  Biso   1.000  C
  H611     1.0000 0.79510  0.37690  0.32460  Biso   1.000  H
  C487     1.0000 0.82750  0.35180  0.36680  Biso   1.000  C
  H612     1.0000 0.82290  0.37150  0.38550  Biso   1.000  H
  C488     1.0000 0.87810  0.30060  0.51990  Biso   1.000  C
  H613     1.0000 0.85060  0.30220  0.51810  Biso   1.000  H
  C489     1.0000 0.89540  0.28970  0.55400  Biso   1.000  C
  C490     1.0000 0.93500  0.28870  0.55780  Biso   1.000  C
  H614     1.0000 0.94670  0.28150  0.58170  Biso   1.000  H
  C491     1.0000 0.95610  0.29790  0.52790  Biso   1.000  C
  H615     1.0000 0.98350  0.29710  0.52990  Biso   1.000  H
  C492     1.0000 0.93930  0.30860  0.49370  Biso   1.000  C
  H616     1.0000 0.95550  0.31600  0.47270  Biso   1.000  H
  C493     1.0000 0.85250  0.26560  0.28200  Biso   1.000  C
  H617     1.0000 0.87980  0.26790  0.27730  Biso   1.000  H
  H618     1.0000 0.84750  0.24020  0.29210  Biso   1.000  H
  C494     1.0000 0.87590  0.27430  0.58990  Biso   1.000  C
  H619     1.0000 0.89380  0.25700  0.60430  Biso   1.000  H
  H620     1.0000 0.86840  0.29600  0.60720  Biso   1.000  H
  N129     1.0000 0.77970  0.29860  0.55020  Biso   1.000  N
  N130     1.0000 0.82760  0.34250  0.45650  Biso   1.000  N
  N131     1.0000 0.84970  0.32140  0.37670  Biso   1.000  N
  N132     1.0000 0.90070  0.30900  0.48880  Biso   1.000  N
  O97      1.0000 0.84210  0.25330  0.57820  Biso   1.000  O
  H621     1.0000 0.82200  0.24300  0.57000  Biso   1.000  H
  O98      1.0000 0.83050  0.26750  0.24850  Biso   1.000  O
  H622     1.0000 0.81130  0.27300  0.23400  Biso   1.000  H
  H623     1.0000 0.86200  0.24330  0.29550  Biso   1.000  H
  H624     1.0000 0.82990  0.25780  0.26780  Biso   1.000  H
  C495     1.0000 0.86820  0.28530  0.58740  Biso   1.000  C
  H625     1.0000 0.88280  0.27960  0.61140  Biso   1.000  H
  H626     1.0000 0.85320  0.30940  0.59130  Biso   1.000  H
  O99      1.0000 0.87970  0.27820  0.25420  Biso   1.000  O
  H627     1.0000 0.89980  0.26400  0.25700  Biso   1.000  H
  C496     1.0000 0.26880  0.82470  0.03280  Biso   1.000  C
  C497     1.0000 0.30120  0.85520  0.97120  Biso   1.000  C
  C498     1.0000 0.35630  0.79480  0.84980  Biso   1.000  C
  H628     1.0000 0.37170  0.77310  0.85660  Biso   1.000  H
  C499     1.0000 0.34180  0.79690  0.81160  Biso   1.000  C
  C500     1.0000 0.31840  0.82740  0.80230  Biso   1.000  C
  H629     1.0000 0.30740  0.82960  0.77720  Biso   1.000  H
  C501     1.0000 0.31120  0.85540  0.83040  Biso   1.000  C
  H630     1.0000 0.29510  0.87690  0.82460  Biso   1.000  H
  C502     1.0000 0.32750  0.85180  0.86680  Biso   1.000  C
  H631     1.0000 0.32290  0.87150  0.88550  Biso   1.000  H
  C503     1.0000 0.37810  0.80060  0.01990  Biso   1.000  C
  H632     1.0000 0.35060  0.80220  0.01810  Biso   1.000  H
  C504     1.0000 0.39540  0.78970  0.05400  Biso   1.000  C
  C505     1.0000 0.43500  0.78870  0.05780  Biso   1.000  C
  H633     1.0000 0.44670  0.78150  0.08170  Biso   1.000  H
  C506     1.0000 0.45610  0.79790  0.02790  Biso   1.000  C
  H634     1.0000 0.48350  0.79710  0.02990  Biso   1.000  H
  C507     1.0000 0.43930  0.80860  0.99370  Biso   1.000  C
  H635     1.0000 0.45550  0.81600  0.97270  Biso   1.000  H
  C508     1.0000 0.35250  0.76560  0.78200  Biso   1.000  C
  H636     1.0000 0.37980  0.76790  0.77730  Biso   1.000  H
  H637     1.0000 0.34750  0.74020  0.79210  Biso   1.000  H
  C509     1.0000 0.37590  0.77430  0.08990  Biso   1.000  C
  H638     1.0000 0.39380  0.75700  0.10430  Biso   1.000  H
  H639     1.0000 0.36840  0.79600  0.10720  Biso   1.000  H
  N133     1.0000 0.27970  0.79860  0.05020  Biso   1.000  N
  N134     1.0000 0.32760  0.84250  0.95650  Biso   1.000  N
  N135     1.0000 0.34970  0.82140  0.87670  Biso   1.000  N
  N136     1.0000 0.40070  0.80900  0.98880  Biso   1.000  N
  O100     1.0000 0.34210  0.75330  0.07820  Biso   1.000  O
  H640     1.0000 0.32200  0.74300  0.07000  Biso   1.000  H
  O101     1.0000 0.33050  0.76750  0.74850  Biso   1.000  O
  H641     1.0000 0.31130  0.77300  0.73400  Biso   1.000  H
  H642     1.0000 0.36200  0.74330  0.79550  Biso   1.000  H
  H643     1.0000 0.32990  0.75780  0.76780  Biso   1.000  H
  C510     1.0000 0.36820  0.78530  0.08740  Biso   1.000  C
  H644     1.0000 0.38280  0.77960  0.11140  Biso   1.000  H
  H645     1.0000 0.35320  0.80940  0.09130  Biso   1.000  H
  O102     1.0000 0.37970  0.77820  0.75420  Biso   1.000  O
  H646     1.0000 0.39980  0.76400  0.75700  Biso   1.000  H
  C511     1.0000 0.23120  0.82470  0.96720  Biso   1.000  C
  C512     1.0000 0.19880  0.85520  0.02880  Biso   1.000  C
  C513     1.0000 0.14370  0.79480  0.15020  Biso   1.000  C
  H647     1.0000 0.12830  0.77310  0.14340  Biso   1.000  H
  C514     1.0000 0.15820  0.79690  0.18840  Biso   1.000  C
  C515     1.0000 0.18160  0.82740  0.19770  Biso   1.000  C
  H648     1.0000 0.19260  0.82960  0.22280  Biso   1.000  H
  C516     1.0000 0.18880  0.85540  0.16960  Biso   1.000  C
  H649     1.0000 0.20490  0.87690  0.17540  Biso   1.000  H
  C517     1.0000 0.17250  0.85180  0.13320  Biso   1.000  C
  H650     1.0000 0.17710  0.87150  0.11450  Biso   1.000  H
  C518     1.0000 0.12190  0.80060  0.98010  Biso   1.000  C
  H651     1.0000 0.14940  0.80220  0.98190  Biso   1.000  H
  C519     1.0000 0.10460  0.78970  0.94600  Biso   1.000  C
  C520     1.0000 0.06500  0.78870  0.94220  Biso   1.000  C
  H652     1.0000 0.05330  0.78150  0.91830  Biso   1.000  H
  C521     1.0000 0.04390  0.79790  0.97210  Biso   1.000  C
  H653     1.0000 0.01650  0.79710  0.97010  Biso   1.000  H
  C522     1.0000 0.06070  0.80860  0.00630  Biso   1.000  C
  H654     1.0000 0.04450  0.81600  0.02730  Biso   1.000  H
  C523     1.0000 0.14750  0.76560  0.21800  Biso   1.000  C
  H655     1.0000 0.12020  0.76790  0.22270  Biso   1.000  H
  H656     1.0000 0.15250  0.74020  0.20790  Biso   1.000  H
  C524     1.0000 0.12410  0.77430  0.91010  Biso   1.000  C
  H657     1.0000 0.10620  0.75700  0.89570  Biso   1.000  H
  H658     1.0000 0.13160  0.79600  0.89280  Biso   1.000  H
  N137     1.0000 0.22030  0.79860  0.94980  Biso   1.000  N
  N138     1.0000 0.17240  0.84250  0.04350  Biso   1.000  N
  N139     1.0000 0.15030  0.82140  0.12330  Biso   1.000  N
  N140     1.0000 0.09930  0.80900  0.01120  Biso   1.000  N
  O103     1.0000 0.15790  0.75330  0.92180  Biso   1.000  O
  H659     1.0000 0.17800  0.74300  0.93000  Biso   1.000  H
  O104     1.0000 0.16950  0.76750  0.25150  Biso   1.000  O
  H660     1.0000 0.18870  0.77300  0.26600  Biso   1.000  H
  H661     1.0000 0.13800  0.74330  0.20450  Biso   1.000  H
  H662     1.0000 0.17010  0.75780  0.23220  Biso   1.000  H
  C525     1.0000 0.13180  0.78530  0.91260  Biso   1.000  C
  H663     1.0000 0.11720  0.77960  0.88860  Biso   1.000  H
  H664     1.0000 0.14680  0.80940  0.90870  Biso   1.000  H
  O105     1.0000 0.12030  0.77820  0.24580  Biso   1.000  O
  H665     1.0000 0.10020  0.76400  0.24300  Biso   1.000  H
  C526     1.0000 0.73120  0.32470  0.46720  Biso   1.000  C
  C527     1.0000 0.69880  0.35520  0.52880  Biso   1.000  C
  C528     1.0000 0.64370  0.29480  0.65020  Biso   1.000  C
  H666     1.0000 0.62830  0.27310  0.64340  Biso   1.000  H
  C529     1.0000 0.65820  0.29690  0.68840  Biso   1.000  C
  C530     1.0000 0.68160  0.32740  0.69770  Biso   1.000  C
  H667     1.0000 0.69260  0.32960  0.72280  Biso   1.000  H
  C531     1.0000 0.68880  0.35540  0.66960  Biso   1.000  C
  H668     1.0000 0.70490  0.37690  0.67540  Biso   1.000  H
  C532     1.0000 0.67250  0.35180  0.63320  Biso   1.000  C
  H669     1.0000 0.67710  0.37150  0.61450  Biso   1.000  H
  C533     1.0000 0.62190  0.30060  0.48010  Biso   1.000  C
  H670     1.0000 0.64940  0.30220  0.48190  Biso   1.000  H
  C534     1.0000 0.60460  0.28970  0.44600  Biso   1.000  C
  C535     1.0000 0.56500  0.28870  0.44220  Biso   1.000  C
  H671     1.0000 0.55330  0.28150  0.41830  Biso   1.000  H
  C536     1.0000 0.54390  0.29790  0.47210  Biso   1.000  C
  H672     1.0000 0.51650  0.29710  0.47010  Biso   1.000  H
  C537     1.0000 0.56070  0.30860  0.50630  Biso   1.000  C
  H673     1.0000 0.54450  0.31600  0.52730  Biso   1.000  H
  C538     1.0000 0.64750  0.26560  0.71800  Biso   1.000  C
  H674     1.0000 0.62020  0.26790  0.72270  Biso   1.000  H
  H675     1.0000 0.65250  0.24020  0.70790  Biso   1.000  H
  C539     1.0000 0.62410  0.27430  0.41010  Biso   1.000  C
  H676     1.0000 0.60620  0.25700  0.39570  Biso   1.000  H
  H677     1.0000 0.63160  0.29600  0.39280  Biso   1.000  H
  N141     1.0000 0.72030  0.29860  0.44980  Biso   1.000  N
  N142     1.0000 0.67240  0.34250  0.54350  Biso   1.000  N
  N143     1.0000 0.65030  0.32140  0.62330  Biso   1.000  N
  N144     1.0000 0.59930  0.30900  0.51120  Biso   1.000  N
  O106     1.0000 0.65790  0.25330  0.42180  Biso   1.000  O
  H678     1.0000 0.67800  0.24300  0.43000  Biso   1.000  H
  O107     1.0000 0.66950  0.26750  0.75150  Biso   1.000  O
  H679     1.0000 0.68870  0.27300  0.76600  Biso   1.000  H
  H680     1.0000 0.63800  0.24330  0.70450  Biso   1.000  H
  H681     1.0000 0.67010  0.25780  0.73220  Biso   1.000  H
  C540     1.0000 0.63180  0.28530  0.41260  Biso   1.000  C
  H682     1.0000 0.61720  0.27960  0.38860  Biso   1.000  H
  H683     1.0000 0.64680  0.30940  0.40870  Biso   1.000  H
  O108     1.0000 0.62030  0.27820  0.74580  Biso   1.000  O
  H684     1.0000 0.60020  0.26400  0.74300  Biso   1.000  H
  C541     1.0000 0.73120  0.67530  0.03280  Biso   1.000  C
  C542     1.0000 0.69880  0.64480  0.97120  Biso   1.000  C
  C543     1.0000 0.64370  0.70520  0.84980  Biso   1.000  C
  H685     1.0000 0.62830  0.72690  0.85660  Biso   1.000  H
  C544     1.0000 0.65820  0.70310  0.81160  Biso   1.000  C
  C545     1.0000 0.68160  0.67260  0.80230  Biso   1.000  C
  H686     1.0000 0.69260  0.67040  0.77720  Biso   1.000  H
  C546     1.0000 0.68880  0.64460  0.83040  Biso   1.000  C
  H687     1.0000 0.70490  0.62310  0.82460  Biso   1.000  H
  C547     1.0000 0.67250  0.64820  0.86680  Biso   1.000  C
  H688     1.0000 0.67710  0.62850  0.88550  Biso   1.000  H
  C548     1.0000 0.62190  0.69940  0.01990  Biso   1.000  C
  H689     1.0000 0.64940  0.69780  0.01810  Biso   1.000  H
  C549     1.0000 0.60460  0.71030  0.05400  Biso   1.000  C
  C550     1.0000 0.56500  0.71130  0.05780  Biso   1.000  C
  H690     1.0000 0.55330  0.71850  0.08170  Biso   1.000  H
  C551     1.0000 0.54390  0.70210  0.02790  Biso   1.000  C
  H691     1.0000 0.51650  0.70290  0.02990  Biso   1.000  H
  C552     1.0000 0.56070  0.69140  0.99370  Biso   1.000  C
  H692     1.0000 0.54450  0.68400  0.97270  Biso   1.000  H
  C553     1.0000 0.64750  0.73440  0.78200  Biso   1.000  C
  H693     1.0000 0.62020  0.73210  0.77730  Biso   1.000  H
  H694     1.0000 0.65250  0.75980  0.79210  Biso   1.000  H
  C554     1.0000 0.62410  0.72570  0.08990  Biso   1.000  C
  H695     1.0000 0.60620  0.74300  0.10430  Biso   1.000  H
  H696     1.0000 0.63160  0.70400  0.10720  Biso   1.000  H
  N145     1.0000 0.72030  0.70140  0.05020  Biso   1.000  N
  N146     1.0000 0.67240  0.65750  0.95650  Biso   1.000  N
  N147     1.0000 0.65030  0.67860  0.87670  Biso   1.000  N
  N148     1.0000 0.59930  0.69100  0.98880  Biso   1.000  N
  O109     1.0000 0.65790  0.74670  0.07820  Biso   1.000  O
  H697     1.0000 0.67800  0.75700  0.07000  Biso   1.000  H
  O110     1.0000 0.66950  0.73250  0.74850  Biso   1.000  O
  H698     1.0000 0.68870  0.72700  0.73400  Biso   1.000  H
  H699     1.0000 0.63800  0.75670  0.79550  Biso   1.000  H
  H700     1.0000 0.67010  0.74220  0.76780  Biso   1.000  H
  C555     1.0000 0.63180  0.71470  0.08740  Biso   1.000  C
  H701     1.0000 0.61720  0.72040  0.11140  Biso   1.000  H
  H702     1.0000 0.64680  0.69060  0.09130  Biso   1.000  H
  O111     1.0000 0.62030  0.72180  0.75420  Biso   1.000  O
  H703     1.0000 0.60020  0.73600  0.75700  Biso   1.000  H
  C556     1.0000 0.23120  0.17530  0.53280  Biso   1.000  C
  C557     1.0000 0.19880  0.14480  0.47120  Biso   1.000  C
  C558     1.0000 0.14370  0.20520  0.34980  Biso   1.000  C
  H704     1.0000 0.12830  0.22690  0.35660  Biso   1.000  H
  C559     1.0000 0.15820  0.20310  0.31160  Biso   1.000  C
  C560     1.0000 0.18160  0.17260  0.30230  Biso   1.000  C
  H705     1.0000 0.19260  0.17040  0.27720  Biso   1.000  H
  C561     1.0000 0.18880  0.14460  0.33040  Biso   1.000  C
  H706     1.0000 0.20490  0.12310  0.32460  Biso   1.000  H
  C562     1.0000 0.17250  0.14820  0.36680  Biso   1.000  C
  H707     1.0000 0.17710  0.12850  0.38550  Biso   1.000  H
  C563     1.0000 0.12190  0.19940  0.51990  Biso   1.000  C
  H708     1.0000 0.14940  0.19780  0.51810  Biso   1.000  H
  C564     1.0000 0.10460  0.21030  0.55400  Biso   1.000  C
  C565     1.0000 0.06500  0.21130  0.55780  Biso   1.000  C
  H709     1.0000 0.05330  0.21850  0.58170  Biso   1.000  H
  C566     1.0000 0.04390  0.20210  0.52790  Biso   1.000  C
  H710     1.0000 0.01650  0.20290  0.52990  Biso   1.000  H
  C567     1.0000 0.06070  0.19140  0.49370  Biso   1.000  C
  H711     1.0000 0.04450  0.18400  0.47270  Biso   1.000  H
  C568     1.0000 0.14750  0.23440  0.28200  Biso   1.000  C
  H712     1.0000 0.12020  0.23210  0.27730  Biso   1.000  H
  H713     1.0000 0.15250  0.25980  0.29210  Biso   1.000  H
  C569     1.0000 0.12410  0.22570  0.58990  Biso   1.000  C
  H714     1.0000 0.10620  0.24300  0.60430  Biso   1.000  H
  H715     1.0000 0.13160  0.20400  0.60720  Biso   1.000  H
  N149     1.0000 0.22030  0.20140  0.55020  Biso   1.000  N
  N150     1.0000 0.17240  0.15750  0.45650  Biso   1.000  N
  N151     1.0000 0.15030  0.17860  0.37670  Biso   1.000  N
  N152     1.0000 0.09930  0.19100  0.48880  Biso   1.000  N
  O112     1.0000 0.15790  0.24670  0.57820  Biso   1.000  O
  H716     1.0000 0.17800  0.25700  0.57000  Biso   1.000  H
  O113     1.0000 0.16950  0.23250  0.24850  Biso   1.000  O
  H717     1.0000 0.18870  0.22700  0.23400  Biso   1.000  H
  H718     1.0000 0.13800  0.25670  0.29550  Biso   1.000  H
  H719     1.0000 0.17010  0.24220  0.26780  Biso   1.000  H
  C570     1.0000 0.13180  0.21470  0.58740  Biso   1.000  C
  H720     1.0000 0.11720  0.22040  0.61140  Biso   1.000  H
  H721     1.0000 0.14680  0.19060  0.59130  Biso   1.000  H
  O114     1.0000 0.12030  0.22180  0.25420  Biso   1.000  O
  H722     1.0000 0.10020  0.23600  0.25700  Biso   1.000  H
  C571     1.0000 0.26880  0.17530  0.46720  Biso   1.000  C
  C572     1.0000 0.30120  0.14480  0.52880  Biso   1.000  C
  C573     1.0000 0.35630  0.20520  0.65020  Biso   1.000  C
  H723     1.0000 0.37170  0.22690  0.64340  Biso   1.000  H
  C574     1.0000 0.34180  0.20310  0.68840  Biso   1.000  C
  C575     1.0000 0.31840  0.17260  0.69770  Biso   1.000  C
  H724     1.0000 0.30740  0.17040  0.72280  Biso   1.000  H
  C576     1.0000 0.31120  0.14460  0.66960  Biso   1.000  C
  H725     1.0000 0.29510  0.12310  0.67540  Biso   1.000  H
  C577     1.0000 0.32750  0.14820  0.63320  Biso   1.000  C
  H726     1.0000 0.32290  0.12850  0.61450  Biso   1.000  H
  C578     1.0000 0.37810  0.19940  0.48010  Biso   1.000  C
  H727     1.0000 0.35060  0.19780  0.48190  Biso   1.000  H
  C579     1.0000 0.39540  0.21030  0.44600  Biso   1.000  C
  C580     1.0000 0.43500  0.21130  0.44220  Biso   1.000  C
  H728     1.0000 0.44670  0.21850  0.41830  Biso   1.000  H
  C581     1.0000 0.45610  0.20210  0.47210  Biso   1.000  C
  H729     1.0000 0.48350  0.20290  0.47010  Biso   1.000  H
  C582     1.0000 0.43930  0.19140  0.50630  Biso   1.000  C
  H730     1.0000 0.45550  0.18400  0.52730  Biso   1.000  H
  C583     1.0000 0.35250  0.23440  0.71800  Biso   1.000  C
  H731     1.0000 0.37980  0.23210  0.72270  Biso   1.000  H
  H732     1.0000 0.34750  0.25980  0.70790  Biso   1.000  H
  C584     1.0000 0.37590  0.22570  0.41010  Biso   1.000  C
  H733     1.0000 0.39380  0.24300  0.39570  Biso   1.000  H
  H734     1.0000 0.36840  0.20400  0.39280  Biso   1.000  H
  N153     1.0000 0.27970  0.20140  0.44980  Biso   1.000  N
  N154     1.0000 0.32760  0.15750  0.54350  Biso   1.000  N
  N155     1.0000 0.34970  0.17860  0.62330  Biso   1.000  N
  N156     1.0000 0.40070  0.19100  0.51120  Biso   1.000  N
  O115     1.0000 0.34210  0.24670  0.42180  Biso   1.000  O
  H735     1.0000 0.32200  0.25700  0.43000  Biso   1.000  H
  O116     1.0000 0.33050  0.23250  0.75150  Biso   1.000  O
  H736     1.0000 0.31130  0.22700  0.76600  Biso   1.000  H
  H737     1.0000 0.36200  0.25670  0.70450  Biso   1.000  H
  H738     1.0000 0.32990  0.24220  0.73220  Biso   1.000  H
  C585     1.0000 0.36820  0.21470  0.41260  Biso   1.000  C
  H739     1.0000 0.38280  0.22040  0.38860  Biso   1.000  H
  H740     1.0000 0.35320  0.19060  0.40870  Biso   1.000  H
  O117     1.0000 0.37970  0.22180  0.74580  Biso   1.000  O
  H741     1.0000 0.39980  0.23600  0.74300  Biso   1.000  H
  C586     1.0000 0.76880  0.67530  0.96720  Biso   1.000  C
  C587     1.0000 0.80120  0.64480  0.02880  Biso   1.000  C
  C588     1.0000 0.85630  0.70520  0.15020  Biso   1.000  C
  H742     1.0000 0.87170  0.72690  0.14340  Biso   1.000  H
  C589     1.0000 0.84180  0.70310  0.18840  Biso   1.000  C
  C590     1.0000 0.81840  0.67260  0.19770  Biso   1.000  C
  H743     1.0000 0.80740  0.67040  0.22280  Biso   1.000  H
  C591     1.0000 0.81120  0.64460  0.16960  Biso   1.000  C
  H744     1.0000 0.79510  0.62310  0.17540  Biso   1.000  H
  C592     1.0000 0.82750  0.64820  0.13320  Biso   1.000  C
  H745     1.0000 0.82290  0.62850  0.11450  Biso   1.000  H
  C593     1.0000 0.87810  0.69940  0.98010  Biso   1.000  C
  H746     1.0000 0.85060  0.69780  0.98190  Biso   1.000  H
  C594     1.0000 0.89540  0.71030  0.94600  Biso   1.000  C
  C595     1.0000 0.93500  0.71130  0.94220  Biso   1.000  C
  H747     1.0000 0.94670  0.71850  0.91830  Biso   1.000  H
  C596     1.0000 0.95610  0.70210  0.97210  Biso   1.000  C
  H748     1.0000 0.98350  0.70290  0.97010  Biso   1.000  H
  C597     1.0000 0.93930  0.69140  0.00630  Biso   1.000  C
  H749     1.0000 0.95550  0.68400  0.02730  Biso   1.000  H
  C598     1.0000 0.85250  0.73440  0.21800  Biso   1.000  C
  H750     1.0000 0.87980  0.73210  0.22270  Biso   1.000  H
  H751     1.0000 0.84750  0.75980  0.20790  Biso   1.000  H
  C599     1.0000 0.87590  0.72570  0.91010  Biso   1.000  C
  H752     1.0000 0.89380  0.74300  0.89570  Biso   1.000  H
  H753     1.0000 0.86840  0.70400  0.89280  Biso   1.000  H
  N157     1.0000 0.77970  0.70140  0.94980  Biso   1.000  N
  N158     1.0000 0.82760  0.65750  0.04350  Biso   1.000  N
  N159     1.0000 0.84970  0.67860  0.12330  Biso   1.000  N
  N160     1.0000 0.90070  0.69100  0.01120  Biso   1.000  N
  O118     1.0000 0.84210  0.74670  0.92180  Biso   1.000  O
  H754     1.0000 0.82200  0.75700  0.93000  Biso   1.000  H
  O119     1.0000 0.83050  0.73250  0.25150  Biso   1.000  O
  H755     1.0000 0.81130  0.72700  0.26600  Biso   1.000  H
  H756     1.0000 0.86200  0.75670  0.20450  Biso   1.000  H
  H757     1.0000 0.82990  0.74220  0.23220  Biso   1.000  H
  C600     1.0000 0.86820  0.71470  0.91260  Biso   1.000  C
  H758     1.0000 0.88280  0.72040  0.88860  Biso   1.000  H
  H759     1.0000 0.85320  0.69060  0.90870  Biso   1.000  H
  O120     1.0000 0.87970  0.72180  0.24580  Biso   1.000  O
  H760     1.0000 0.89980  0.73600  0.24300  Biso   1.000  H
  C601     1.0000 0.82470  0.96720  0.23120  Biso   1.000  C
  C602     1.0000 0.85520  0.02880  0.19880  Biso   1.000  C
  C603     1.0000 0.79480  0.15020  0.14370  Biso   1.000  C
  H761     1.0000 0.77310  0.14340  0.12830  Biso   1.000  H
  C604     1.0000 0.79690  0.18840  0.15820  Biso   1.000  C
  C605     1.0000 0.82740  0.19770  0.18160  Biso   1.000  C
  H762     1.0000 0.82960  0.22280  0.19260  Biso   1.000  H
  C606     1.0000 0.85540  0.16960  0.18880  Biso   1.000  C
  H763     1.0000 0.87690  0.17540  0.20490  Biso   1.000  H
  C607     1.0000 0.85180  0.13320  0.17250  Biso   1.000  C
  H764     1.0000 0.87150  0.11450  0.17710  Biso   1.000  H
  C608     1.0000 0.80060  0.98010  0.12190  Biso   1.000  C
  H765     1.0000 0.80220  0.98190  0.14940  Biso   1.000  H
  C609     1.0000 0.78970  0.94600  0.10460  Biso   1.000  C
  C610     1.0000 0.78870  0.94220  0.06500  Biso   1.000  C
  H766     1.0000 0.78150  0.91830  0.05330  Biso   1.000  H
  C611     1.0000 0.79790  0.97210  0.04390  Biso   1.000  C
  H767     1.0000 0.79710  0.97010  0.01650  Biso   1.000  H
  C612     1.0000 0.80860  0.00630  0.06070  Biso   1.000  C
  H768     1.0000 0.81600  0.02730  0.04450  Biso   1.000  H
  C613     1.0000 0.76560  0.21800  0.14750  Biso   1.000  C
  H769     1.0000 0.76790  0.22270  0.12020  Biso   1.000  H
  H770     1.0000 0.74020  0.20790  0.15250  Biso   1.000  H
  C614     1.0000 0.77430  0.91010  0.12410  Biso   1.000  C
  H771     1.0000 0.75700  0.89570  0.10620  Biso   1.000  H
  H772     1.0000 0.79600  0.89280  0.13160  Biso   1.000  H
  N161     1.0000 0.79860  0.94980  0.22030  Biso   1.000  N
  N162     1.0000 0.84250  0.04350  0.17240  Biso   1.000  N
  N163     1.0000 0.82140  0.12330  0.15030  Biso   1.000  N
  N164     1.0000 0.80900  0.01120  0.09930  Biso   1.000  N
  O121     1.0000 0.75330  0.92180  0.15790  Biso   1.000  O
  H773     1.0000 0.74300  0.93000  0.17800  Biso   1.000  H
  O122     1.0000 0.76750  0.25150  0.16950  Biso   1.000  O
  H774     1.0000 0.77300  0.26600  0.18870  Biso   1.000  H
  H775     1.0000 0.74330  0.20450  0.13800  Biso   1.000  H
  H776     1.0000 0.75780  0.23220  0.17010  Biso   1.000  H
  C615     1.0000 0.78530  0.91260  0.13180  Biso   1.000  C
  H777     1.0000 0.77960  0.88860  0.11720  Biso   1.000  H
  H778     1.0000 0.80940  0.90870  0.14680  Biso   1.000  H
  O123     1.0000 0.77820  0.24580  0.12030  Biso   1.000  O
  H779     1.0000 0.76400  0.24300  0.10020  Biso   1.000  H
  C616     1.0000 0.32470  0.46720  0.73120  Biso   1.000  C
  C617     1.0000 0.35520  0.52880  0.69880  Biso   1.000  C
  C618     1.0000 0.29480  0.65020  0.64370  Biso   1.000  C
  H780     1.0000 0.27310  0.64340  0.62830  Biso   1.000  H
  C619     1.0000 0.29690  0.68840  0.65820  Biso   1.000  C
  C620     1.0000 0.32740  0.69770  0.68160  Biso   1.000  C
  H781     1.0000 0.32960  0.72280  0.69260  Biso   1.000  H
  C621     1.0000 0.35540  0.66960  0.68880  Biso   1.000  C
  H782     1.0000 0.37690  0.67540  0.70490  Biso   1.000  H
  C622     1.0000 0.35180  0.63320  0.67250  Biso   1.000  C
  H783     1.0000 0.37150  0.61450  0.67710  Biso   1.000  H
  C623     1.0000 0.30060  0.48010  0.62190  Biso   1.000  C
  H784     1.0000 0.30220  0.48190  0.64940  Biso   1.000  H
  C624     1.0000 0.28970  0.44600  0.60460  Biso   1.000  C
  C625     1.0000 0.28870  0.44220  0.56500  Biso   1.000  C
  H785     1.0000 0.28150  0.41830  0.55330  Biso   1.000  H
  C626     1.0000 0.29790  0.47210  0.54390  Biso   1.000  C
  H786     1.0000 0.29710  0.47010  0.51650  Biso   1.000  H
  C627     1.0000 0.30860  0.50630  0.56070  Biso   1.000  C
  H787     1.0000 0.31600  0.52730  0.54450  Biso   1.000  H
  C628     1.0000 0.26560  0.71800  0.64750  Biso   1.000  C
  H788     1.0000 0.26790  0.72270  0.62020  Biso   1.000  H
  H789     1.0000 0.24020  0.70790  0.65250  Biso   1.000  H
  C629     1.0000 0.27430  0.41010  0.62410  Biso   1.000  C
  H790     1.0000 0.25700  0.39570  0.60620  Biso   1.000  H
  H791     1.0000 0.29600  0.39280  0.63160  Biso   1.000  H
  N165     1.0000 0.29860  0.44980  0.72030  Biso   1.000  N
  N166     1.0000 0.34250  0.54350  0.67240  Biso   1.000  N
  N167     1.0000 0.32140  0.62330  0.65030  Biso   1.000  N
  N168     1.0000 0.30900  0.51120  0.59930  Biso   1.000  N
  O124     1.0000 0.25330  0.42180  0.65790  Biso   1.000  O
  H792     1.0000 0.24300  0.43000  0.67800  Biso   1.000  H
  O125     1.0000 0.26750  0.75150  0.66950  Biso   1.000  O
  H793     1.0000 0.27300  0.76600  0.68870  Biso   1.000  H
  H794     1.0000 0.24330  0.70450  0.63800  Biso   1.000  H
  H795     1.0000 0.25780  0.73220  0.67010  Biso   1.000  H
  C630     1.0000 0.28530  0.41260  0.63180  Biso   1.000  C
  H796     1.0000 0.27960  0.38860  0.61720  Biso   1.000  H
  H797     1.0000 0.30940  0.40870  0.64680  Biso   1.000  H
  O126     1.0000 0.27820  0.74580  0.62030  Biso   1.000  O
  H798     1.0000 0.26400  0.74300  0.60020  Biso   1.000  H
  C631     1.0000 0.32470  0.53280  0.76880  Biso   1.000  C
  C632     1.0000 0.35520  0.47120  0.80120  Biso   1.000  C
  C633     1.0000 0.29480  0.34980  0.85630  Biso   1.000  C
  H799     1.0000 0.27310  0.35660  0.87170  Biso   1.000  H
  C634     1.0000 0.29690  0.31160  0.84180  Biso   1.000  C
  C635     1.0000 0.32740  0.30230  0.81840  Biso   1.000  C
  H800     1.0000 0.32960  0.27720  0.80740  Biso   1.000  H
  C636     1.0000 0.35540  0.33040  0.81120  Biso   1.000  C
  H801     1.0000 0.37690  0.32460  0.79510  Biso   1.000  H
  C637     1.0000 0.35180  0.36680  0.82750  Biso   1.000  C
  H802     1.0000 0.37150  0.38550  0.82290  Biso   1.000  H
  C638     1.0000 0.30060  0.51990  0.87810  Biso   1.000  C
  H803     1.0000 0.30220  0.51810  0.85060  Biso   1.000  H
  C639     1.0000 0.28970  0.55400  0.89540  Biso   1.000  C
  C640     1.0000 0.28870  0.55780  0.93500  Biso   1.000  C
  H804     1.0000 0.28150  0.58170  0.94670  Biso   1.000  H
  C641     1.0000 0.29790  0.52790  0.95610  Biso   1.000  C
  H805     1.0000 0.29710  0.52990  0.98350  Biso   1.000  H
  C642     1.0000 0.30860  0.49370  0.93930  Biso   1.000  C
  H806     1.0000 0.31600  0.47270  0.95550  Biso   1.000  H
  C643     1.0000 0.26560  0.28200  0.85250  Biso   1.000  C
  H807     1.0000 0.26790  0.27730  0.87980  Biso   1.000  H
  H808     1.0000 0.24020  0.29210  0.84750  Biso   1.000  H
  C644     1.0000 0.27430  0.58990  0.87590  Biso   1.000  C
  H809     1.0000 0.25700  0.60430  0.89380  Biso   1.000  H
  H810     1.0000 0.29600  0.60720  0.86840  Biso   1.000  H
  N169     1.0000 0.29860  0.55020  0.77970  Biso   1.000  N
  N170     1.0000 0.34250  0.45650  0.82760  Biso   1.000  N
  N171     1.0000 0.32140  0.37670  0.84970  Biso   1.000  N
  N172     1.0000 0.30900  0.48880  0.90070  Biso   1.000  N
  O127     1.0000 0.25330  0.57820  0.84210  Biso   1.000  O
  H811     1.0000 0.24300  0.57000  0.82200  Biso   1.000  H
  O128     1.0000 0.26750  0.24850  0.83050  Biso   1.000  O
  H812     1.0000 0.27300  0.23400  0.81130  Biso   1.000  H
  H813     1.0000 0.24330  0.29550  0.86200  Biso   1.000  H
  H814     1.0000 0.25780  0.26780  0.82990  Biso   1.000  H
  C645     1.0000 0.28530  0.58740  0.86820  Biso   1.000  C
  H815     1.0000 0.27960  0.61140  0.88280  Biso   1.000  H
  H816     1.0000 0.30940  0.59130  0.85320  Biso   1.000  H
  O129     1.0000 0.27820  0.25420  0.87970  Biso   1.000  O
  H817     1.0000 0.26400  0.25700  0.89980  Biso   1.000  H
  C646     1.0000 0.82470  0.03280  0.26880  Biso   1.000  C
  C647     1.0000 0.85520  0.97120  0.30120  Biso   1.000  C
  C648     1.0000 0.79480  0.84980  0.35630  Biso   1.000  C
  H818     1.0000 0.77310  0.85660  0.37170  Biso   1.000  H
  C649     1.0000 0.79690  0.81160  0.34180  Biso   1.000  C
  C650     1.0000 0.82740  0.80230  0.31840  Biso   1.000  C
  H819     1.0000 0.82960  0.77720  0.30740  Biso   1.000  H
  C651     1.0000 0.85540  0.83040  0.31120  Biso   1.000  C
  H820     1.0000 0.87690  0.82460  0.29510  Biso   1.000  H
  C652     1.0000 0.85180  0.86680  0.32750  Biso   1.000  C
  H821     1.0000 0.87150  0.88550  0.32290  Biso   1.000  H
  C653     1.0000 0.80060  0.01990  0.37810  Biso   1.000  C
  H822     1.0000 0.80220  0.01810  0.35060  Biso   1.000  H
  C654     1.0000 0.78970  0.05400  0.39540  Biso   1.000  C
  C655     1.0000 0.78870  0.05780  0.43500  Biso   1.000  C
  H823     1.0000 0.78150  0.08170  0.44670  Biso   1.000  H
  C656     1.0000 0.79790  0.02790  0.45610  Biso   1.000  C
  H824     1.0000 0.79710  0.02990  0.48350  Biso   1.000  H
  C657     1.0000 0.80860  0.99370  0.43930  Biso   1.000  C
  H825     1.0000 0.81600  0.97270  0.45550  Biso   1.000  H
  C658     1.0000 0.76560  0.78200  0.35250  Biso   1.000  C
  H826     1.0000 0.76790  0.77730  0.37980  Biso   1.000  H
  H827     1.0000 0.74020  0.79210  0.34750  Biso   1.000  H
  C659     1.0000 0.77430  0.08990  0.37590  Biso   1.000  C
  H828     1.0000 0.75700  0.10430  0.39380  Biso   1.000  H
  H829     1.0000 0.79600  0.10720  0.36840  Biso   1.000  H
  N173     1.0000 0.79860  0.05020  0.27970  Biso   1.000  N
  N174     1.0000 0.84250  0.95650  0.32760  Biso   1.000  N
  N175     1.0000 0.82140  0.87670  0.34970  Biso   1.000  N
  N176     1.0000 0.80900  0.98880  0.40070  Biso   1.000  N
  O130     1.0000 0.75330  0.07820  0.34210  Biso   1.000  O
  H830     1.0000 0.74300  0.07000  0.32200  Biso   1.000  H
  O131     1.0000 0.76750  0.74850  0.33050  Biso   1.000  O
  H831     1.0000 0.77300  0.73400  0.31130  Biso   1.000  H
  H832     1.0000 0.74330  0.79550  0.36200  Biso   1.000  H
  H833     1.0000 0.75780  0.76780  0.32990  Biso   1.000  H
  C660     1.0000 0.78530  0.08740  0.36820  Biso   1.000  C
  H834     1.0000 0.77960  0.11140  0.38280  Biso   1.000  H
  H835     1.0000 0.80940  0.09130  0.35320  Biso   1.000  H
  O132     1.0000 0.77820  0.75420  0.37970  Biso   1.000  O
  H836     1.0000 0.76400  0.75700  0.39980  Biso   1.000  H
  C661     1.0000 0.17530  0.46720  0.26880  Biso   1.000  C
  C662     1.0000 0.14480  0.52880  0.30120  Biso   1.000  C
  C663     1.0000 0.20520  0.65020  0.35630  Biso   1.000  C
  H837     1.0000 0.22690  0.64340  0.37170  Biso   1.000  H
  C664     1.0000 0.20310  0.68840  0.34180  Biso   1.000  C
  C665     1.0000 0.17260  0.69770  0.31840  Biso   1.000  C
  H838     1.0000 0.17040  0.72280  0.30740  Biso   1.000  H
  C666     1.0000 0.14460  0.66960  0.31120  Biso   1.000  C
  H839     1.0000 0.12310  0.67540  0.29510  Biso   1.000  H
  C667     1.0000 0.14820  0.63320  0.32750  Biso   1.000  C
  H840     1.0000 0.12850  0.61450  0.32290  Biso   1.000  H
  C668     1.0000 0.19940  0.48010  0.37810  Biso   1.000  C
  H841     1.0000 0.19780  0.48190  0.35060  Biso   1.000  H
  C669     1.0000 0.21030  0.44600  0.39540  Biso   1.000  C
  C670     1.0000 0.21130  0.44220  0.43500  Biso   1.000  C
  H842     1.0000 0.21850  0.41830  0.44670  Biso   1.000  H
  C671     1.0000 0.20210  0.47210  0.45610  Biso   1.000  C
  H843     1.0000 0.20290  0.47010  0.48350  Biso   1.000  H
  C672     1.0000 0.19140  0.50630  0.43930  Biso   1.000  C
  H844     1.0000 0.18400  0.52730  0.45550  Biso   1.000  H
  C673     1.0000 0.23440  0.71800  0.35250  Biso   1.000  C
  H845     1.0000 0.23210  0.72270  0.37980  Biso   1.000  H
  H846     1.0000 0.25980  0.70790  0.34750  Biso   1.000  H
  C674     1.0000 0.22570  0.41010  0.37590  Biso   1.000  C
  H847     1.0000 0.24300  0.39570  0.39380  Biso   1.000  H
  H848     1.0000 0.20400  0.39280  0.36840  Biso   1.000  H
  N177     1.0000 0.20140  0.44980  0.27970  Biso   1.000  N
  N178     1.0000 0.15750  0.54350  0.32760  Biso   1.000  N
  N179     1.0000 0.17860  0.62330  0.34970  Biso   1.000  N
  N180     1.0000 0.19100  0.51120  0.40070  Biso   1.000  N
  O133     1.0000 0.24670  0.42180  0.34210  Biso   1.000  O
  H849     1.0000 0.25700  0.43000  0.32200  Biso   1.000  H
  O134     1.0000 0.23250  0.75150  0.33050  Biso   1.000  O
  H850     1.0000 0.22700  0.76600  0.31130  Biso   1.000  H
  H851     1.0000 0.25670  0.70450  0.36200  Biso   1.000  H
  H852     1.0000 0.24220  0.73220  0.32990  Biso   1.000  H
  C675     1.0000 0.21470  0.41260  0.36820  Biso   1.000  C
  H853     1.0000 0.22040  0.38860  0.38280  Biso   1.000  H
  H854     1.0000 0.19060  0.40870  0.35320  Biso   1.000  H
  O135     1.0000 0.22180  0.74580  0.37970  Biso   1.000  O
  H855     1.0000 0.23600  0.74300  0.39980  Biso   1.000  H
  C676     1.0000 0.67530  0.96720  0.76880  Biso   1.000  C
  C677     1.0000 0.64480  0.02880  0.80120  Biso   1.000  C
  C678     1.0000 0.70520  0.15020  0.85630  Biso   1.000  C
  H856     1.0000 0.72690  0.14340  0.87170  Biso   1.000  H
  C679     1.0000 0.70310  0.18840  0.84180  Biso   1.000  C
  C680     1.0000 0.67260  0.19770  0.81840  Biso   1.000  C
  H857     1.0000 0.67040  0.22280  0.80740  Biso   1.000  H
  C681     1.0000 0.64460  0.16960  0.81120  Biso   1.000  C
  H858     1.0000 0.62310  0.17540  0.79510  Biso   1.000  H
  C682     1.0000 0.64820  0.13320  0.82750  Biso   1.000  C
  H859     1.0000 0.62850  0.11450  0.82290  Biso   1.000  H
  C683     1.0000 0.69940  0.98010  0.87810  Biso   1.000  C
  H860     1.0000 0.69780  0.98190  0.85060  Biso   1.000  H
  C684     1.0000 0.71030  0.94600  0.89540  Biso   1.000  C
  C685     1.0000 0.71130  0.94220  0.93500  Biso   1.000  C
  H861     1.0000 0.71850  0.91830  0.94670  Biso   1.000  H
  C686     1.0000 0.70210  0.97210  0.95610  Biso   1.000  C
  H862     1.0000 0.70290  0.97010  0.98350  Biso   1.000  H
  C687     1.0000 0.69140  0.00630  0.93930  Biso   1.000  C
  H863     1.0000 0.68400  0.02730  0.95550  Biso   1.000  H
  C688     1.0000 0.73440  0.21800  0.85250  Biso   1.000  C
  H864     1.0000 0.73210  0.22270  0.87980  Biso   1.000  H
  H865     1.0000 0.75980  0.20790  0.84750  Biso   1.000  H
  C689     1.0000 0.72570  0.91010  0.87590  Biso   1.000  C
  H866     1.0000 0.74300  0.89570  0.89380  Biso   1.000  H
  H867     1.0000 0.70400  0.89280  0.86840  Biso   1.000  H
  N181     1.0000 0.70140  0.94980  0.77970  Biso   1.000  N
  N182     1.0000 0.65750  0.04350  0.82760  Biso   1.000  N
  N183     1.0000 0.67860  0.12330  0.84970  Biso   1.000  N
  N184     1.0000 0.69100  0.01120  0.90070  Biso   1.000  N
  O136     1.0000 0.74670  0.92180  0.84210  Biso   1.000  O
  H868     1.0000 0.75700  0.93000  0.82200  Biso   1.000  H
  O137     1.0000 0.73250  0.25150  0.83050  Biso   1.000  O
  H869     1.0000 0.72700  0.26600  0.81130  Biso   1.000  H
  H870     1.0000 0.75670  0.20450  0.86200  Biso   1.000  H
  H871     1.0000 0.74220  0.23220  0.82990  Biso   1.000  H
  C690     1.0000 0.71470  0.91260  0.86820  Biso   1.000  C
  H872     1.0000 0.72040  0.88860  0.88280  Biso   1.000  H
  H873     1.0000 0.69060  0.90870  0.85320  Biso   1.000  H
  O138     1.0000 0.72180  0.24580  0.87970  Biso   1.000  O
  H874     1.0000 0.73600  0.24300  0.89980  Biso   1.000  H
  C691     1.0000 0.67530  0.03280  0.73120  Biso   1.000  C
  C692     1.0000 0.64480  0.97120  0.69880  Biso   1.000  C
  C693     1.0000 0.70520  0.84980  0.64370  Biso   1.000  C
  H875     1.0000 0.72690  0.85660  0.62830  Biso   1.000  H
  C694     1.0000 0.70310  0.81160  0.65820  Biso   1.000  C
  C695     1.0000 0.67260  0.80230  0.68160  Biso   1.000  C
  H876     1.0000 0.67040  0.77720  0.69260  Biso   1.000  H
  C696     1.0000 0.64460  0.83040  0.68880  Biso   1.000  C
  H877     1.0000 0.62310  0.82460  0.70490  Biso   1.000  H
  C697     1.0000 0.64820  0.86680  0.67250  Biso   1.000  C
  H878     1.0000 0.62850  0.88550  0.67710  Biso   1.000  H
  C698     1.0000 0.69940  0.01990  0.62190  Biso   1.000  C
  H879     1.0000 0.69780  0.01810  0.64940  Biso   1.000  H
  C699     1.0000 0.71030  0.05400  0.60460  Biso   1.000  C
  C700     1.0000 0.71130  0.05780  0.56500  Biso   1.000  C
  H880     1.0000 0.71850  0.08170  0.55330  Biso   1.000  H
  C701     1.0000 0.70210  0.02790  0.54390  Biso   1.000  C
  H881     1.0000 0.70290  0.02990  0.51650  Biso   1.000  H
  C702     1.0000 0.69140  0.99370  0.56070  Biso   1.000  C
  H882     1.0000 0.68400  0.97270  0.54450  Biso   1.000  H
  C703     1.0000 0.73440  0.78200  0.64750  Biso   1.000  C
  H883     1.0000 0.73210  0.77730  0.62020  Biso   1.000  H
  H884     1.0000 0.75980  0.79210  0.65250  Biso   1.000  H
  C704     1.0000 0.72570  0.08990  0.62410  Biso   1.000  C
  H885     1.0000 0.74300  0.10430  0.60620  Biso   1.000  H
  H886     1.0000 0.70400  0.10720  0.63160  Biso   1.000  H
  N185     1.0000 0.70140  0.05020  0.72030  Biso   1.000  N
  N186     1.0000 0.65750  0.95650  0.67240  Biso   1.000  N
  N187     1.0000 0.67860  0.87670  0.65030  Biso   1.000  N
  N188     1.0000 0.69100  0.98880  0.59930  Biso   1.000  N
  O139     1.0000 0.74670  0.07820  0.65790  Biso   1.000  O
  H887     1.0000 0.75700  0.07000  0.67800  Biso   1.000  H
  O140     1.0000 0.73250  0.74850  0.66950  Biso   1.000  O
  H888     1.0000 0.72700  0.73400  0.68870  Biso   1.000  H
  H889     1.0000 0.75670  0.79550  0.63800  Biso   1.000  H
  H890     1.0000 0.74220  0.76780  0.67010  Biso   1.000  H
  C705     1.0000 0.71470  0.08740  0.63180  Biso   1.000  C
  H891     1.0000 0.72040  0.11140  0.61720  Biso   1.000  H
  H892     1.0000 0.69060  0.09130  0.64680  Biso   1.000  H
  O141     1.0000 0.72180  0.75420  0.62030  Biso   1.000  O
  H893     1.0000 0.73600  0.75700  0.60020  Biso   1.000  H
  C706     1.0000 0.17530  0.53280  0.23120  Biso   1.000  C
  C707     1.0000 0.14480  0.47120  0.19880  Biso   1.000  C
  C708     1.0000 0.20520  0.34980  0.14370  Biso   1.000  C
  H894     1.0000 0.22690  0.35660  0.12830  Biso   1.000  H
  C709     1.0000 0.20310  0.31160  0.15820  Biso   1.000  C
  C710     1.0000 0.17260  0.30230  0.18160  Biso   1.000  C
  H895     1.0000 0.17040  0.27720  0.19260  Biso   1.000  H
  C711     1.0000 0.14460  0.33040  0.18880  Biso   1.000  C
  H896     1.0000 0.12310  0.32460  0.20490  Biso   1.000  H
  C712     1.0000 0.14820  0.36680  0.17250  Biso   1.000  C
  H897     1.0000 0.12850  0.38550  0.17710  Biso   1.000  H
  C713     1.0000 0.19940  0.51990  0.12190  Biso   1.000  C
  H898     1.0000 0.19780  0.51810  0.14940  Biso   1.000  H
  C714     1.0000 0.21030  0.55400  0.10460  Biso   1.000  C
  C715     1.0000 0.21130  0.55780  0.06500  Biso   1.000  C
  H899     1.0000 0.21850  0.58170  0.05330  Biso   1.000  H
  C716     1.0000 0.20210  0.52790  0.04390  Biso   1.000  C
  H900     1.0000 0.20290  0.52990  0.01650  Biso   1.000  H
  C717     1.0000 0.19140  0.49370  0.06070  Biso   1.000  C
  H901     1.0000 0.18400  0.47270  0.04450  Biso   1.000  H
  C718     1.0000 0.23440  0.28200  0.14750  Biso   1.000  C
  H902     1.0000 0.23210  0.27730  0.12020  Biso   1.000  H
  H903     1.0000 0.25980  0.29210  0.15250  Biso   1.000  H
  C719     1.0000 0.22570  0.58990  0.12410  Biso   1.000  C
  H904     1.0000 0.24300  0.60430  0.10620  Biso   1.000  H
  H905     1.0000 0.20400  0.60720  0.13160  Biso   1.000  H
  N189     1.0000 0.20140  0.55020  0.22030  Biso   1.000  N
  N190     1.0000 0.15750  0.45650  0.17240  Biso   1.000  N
  N191     1.0000 0.17860  0.37670  0.15030  Biso   1.000  N
  N192     1.0000 0.19100  0.48880  0.09930  Biso   1.000  N
  O142     1.0000 0.24670  0.57820  0.15790  Biso   1.000  O
  H906     1.0000 0.25700  0.57000  0.17800  Biso   1.000  H
  O143     1.0000 0.23250  0.24850  0.16950  Biso   1.000  O
  H907     1.0000 0.22700  0.23400  0.18870  Biso   1.000  H
  H908     1.0000 0.25670  0.29550  0.13800  Biso   1.000  H
  H909     1.0000 0.24220  0.26780  0.17010  Biso   1.000  H
  C720     1.0000 0.21470  0.58740  0.13180  Biso   1.000  C
  H910     1.0000 0.22040  0.61140  0.11720  Biso   1.000  H
  H911     1.0000 0.19060  0.59130  0.14680  Biso   1.000  H
  O144     1.0000 0.22180  0.25420  0.12030  Biso   1.000  O
  H912     1.0000 0.23600  0.25700  0.10020  Biso   1.000  H
  C721     1.0000 0.98120  0.28280  0.92530  Biso   1.000  C
  C722     1.0000 0.94880  0.22120  0.89480  Biso   1.000  C
  C723     1.0000 0.89370  0.09980  0.95520  Biso   1.000  C
  H913     1.0000 0.87830  0.10660  0.97690  Biso   1.000  H
  C724     1.0000 0.90820  0.06160  0.95310  Biso   1.000  C
  C725     1.0000 0.93160  0.05230  0.92260  Biso   1.000  C
  H914     1.0000 0.94260  0.02720  0.92040  Biso   1.000  H
  C726     1.0000 0.93880  0.08040  0.89460  Biso   1.000  C
  H915     1.0000 0.95490  0.07460  0.87310  Biso   1.000  H
  C727     1.0000 0.92250  0.11680  0.89820  Biso   1.000  C
  H916     1.0000 0.92710  0.13550  0.87850  Biso   1.000  H
  C728     1.0000 0.87190  0.26990  0.94940  Biso   1.000  C
  H917     1.0000 0.89940  0.26810  0.94780  Biso   1.000  H
  C729     1.0000 0.85460  0.30400  0.96030  Biso   1.000  C
  C730     1.0000 0.81500  0.30780  0.96130  Biso   1.000  C
  H918     1.0000 0.80330  0.33170  0.96850  Biso   1.000  H
  C731     1.0000 0.79390  0.27790  0.95210  Biso   1.000  C
  H919     1.0000 0.76650  0.27990  0.95290  Biso   1.000  H
  C732     1.0000 0.81070  0.24370  0.94140  Biso   1.000  C
  H920     1.0000 0.79450  0.22270  0.93400  Biso   1.000  H
  C733     1.0000 0.89750  0.03200  0.98440  Biso   1.000  C
  H921     1.0000 0.87020  0.02730  0.98210  Biso   1.000  H
  H922     1.0000 0.90250  0.04210  0.00980  Biso   1.000  H
  C734     1.0000 0.87410  0.33990  0.97570  Biso   1.000  C
  H923     1.0000 0.85620  0.35430  0.99300  Biso   1.000  H
  H924     1.0000 0.88160  0.35720  0.95400  Biso   1.000  H
  N193     1.0000 0.97030  0.30020  0.95140  Biso   1.000  N
  N194     1.0000 0.92240  0.20650  0.90750  Biso   1.000  N
  N195     1.0000 0.90030  0.12670  0.92860  Biso   1.000  N
  N196     1.0000 0.84930  0.23880  0.94100  Biso   1.000  N
  O145     1.0000 0.90790  0.32820  0.99670  Biso   1.000  O
  H925     1.0000 0.92800  0.32000  0.00700  Biso   1.000  H
  O146     1.0000 0.91950  0.99850  0.98250  Biso   1.000  O
  H926     1.0000 0.93870  0.98400  0.97700  Biso   1.000  H
  H927     1.0000 0.88800  0.04550  0.00670  Biso   1.000  H
  H928     1.0000 0.92010  0.01780  0.99220  Biso   1.000  H
  C735     1.0000 0.88180  0.33740  0.96470  Biso   1.000  C
  H929     1.0000 0.86720  0.36140  0.97040  Biso   1.000  H
  H930     1.0000 0.89680  0.34130  0.94060  Biso   1.000  H
  O147     1.0000 0.87030  0.00420  0.97180  Biso   1.000  O
  H931     1.0000 0.85020  0.00700  0.98600  Biso   1.000  H
  C736     1.0000 0.48120  0.78280  0.42530  Biso   1.000  C
  C737     1.0000 0.44880  0.72120  0.39480  Biso   1.000  C
  C738     1.0000 0.39370  0.59980  0.45520  Biso   1.000  C
  H932     1.0000 0.37830  0.60660  0.47690  Biso   1.000  H
  C739     1.0000 0.40820  0.56160  0.45310  Biso   1.000  C
  C740     1.0000 0.43160  0.55230  0.42260  Biso   1.000  C
  H933     1.0000 0.44260  0.52720  0.42040  Biso   1.000  H
  C741     1.0000 0.43880  0.58040  0.39460  Biso   1.000  C
  H934     1.0000 0.45490  0.57460  0.37310  Biso   1.000  H
  C742     1.0000 0.42250  0.61680  0.39820  Biso   1.000  C
  H935     1.0000 0.42710  0.63550  0.37850  Biso   1.000  H
  C743     1.0000 0.37190  0.76990  0.44940  Biso   1.000  C
  H936     1.0000 0.39940  0.76810  0.44780  Biso   1.000  H
  C744     1.0000 0.35460  0.80400  0.46030  Biso   1.000  C
  C745     1.0000 0.31500  0.80780  0.46130  Biso   1.000  C
  H937     1.0000 0.30330  0.83170  0.46850  Biso   1.000  H
  C746     1.0000 0.29390  0.77790  0.45210  Biso   1.000  C
  H938     1.0000 0.26650  0.77990  0.45290  Biso   1.000  H
  C747     1.0000 0.31070  0.74370  0.44140  Biso   1.000  C
  H939     1.0000 0.29450  0.72270  0.43400  Biso   1.000  H
  C748     1.0000 0.39750  0.53200  0.48440  Biso   1.000  C
  H940     1.0000 0.37020  0.52730  0.48210  Biso   1.000  H
  H941     1.0000 0.40250  0.54210  0.50980  Biso   1.000  H
  C749     1.0000 0.37410  0.83990  0.47570  Biso   1.000  C
  H942     1.0000 0.35620  0.85430  0.49300  Biso   1.000  H
  H943     1.0000 0.38160  0.85720  0.45400  Biso   1.000  H
  N197     1.0000 0.47030  0.80020  0.45140  Biso   1.000  N
  N198     1.0000 0.42240  0.70650  0.40750  Biso   1.000  N
  N199     1.0000 0.40030  0.62670  0.42860  Biso   1.000  N
  N200     1.0000 0.34930  0.73880  0.44100  Biso   1.000  N
  O148     1.0000 0.40790  0.82820  0.49670  Biso   1.000  O
  H944     1.0000 0.42800  0.82000  0.50700  Biso   1.000  H
  O149     1.0000 0.41950  0.49850  0.48250  Biso   1.000  O
  H945     1.0000 0.43870  0.48400  0.47700  Biso   1.000  H
  H946     1.0000 0.38800  0.54550  0.50670  Biso   1.000  H
  H947     1.0000 0.42010  0.51780  0.49220  Biso   1.000  H
  C750     1.0000 0.38180  0.83740  0.46470  Biso   1.000  C
  H948     1.0000 0.36720  0.86140  0.47040  Biso   1.000  H
  H949     1.0000 0.39680  0.84130  0.44060  Biso   1.000  H
  O150     1.0000 0.37030  0.50420  0.47180  Biso   1.000  O
  H950     1.0000 0.35020  0.50700  0.48600  Biso   1.000  H
  C751     1.0000 0.51880  0.71720  0.42530  Biso   1.000  C
  C752     1.0000 0.55120  0.77880  0.39480  Biso   1.000  C
  C753     1.0000 0.60630  0.90020  0.45520  Biso   1.000  C
  H951     1.0000 0.62170  0.89340  0.47690  Biso   1.000  H
  C754     1.0000 0.59180  0.93840  0.45310  Biso   1.000  C
  C755     1.0000 0.56840  0.94770  0.42260  Biso   1.000  C
  H952     1.0000 0.55740  0.97280  0.42040  Biso   1.000  H
  C756     1.0000 0.56120  0.91960  0.39460  Biso   1.000  C
  H953     1.0000 0.54510  0.92540  0.37310  Biso   1.000  H
  C757     1.0000 0.57750  0.88320  0.39820  Biso   1.000  C
  H954     1.0000 0.57290  0.86450  0.37850  Biso   1.000  H
  C758     1.0000 0.62810  0.73010  0.44940  Biso   1.000  C
  H955     1.0000 0.60060  0.73190  0.44780  Biso   1.000  H
  C759     1.0000 0.64540  0.69600  0.46030  Biso   1.000  C
  C760     1.0000 0.68500  0.69220  0.46130  Biso   1.000  C
  H956     1.0000 0.69670  0.66830  0.46850  Biso   1.000  H
  C761     1.0000 0.70610  0.72210  0.45210  Biso   1.000  C
  H957     1.0000 0.73350  0.72010  0.45290  Biso   1.000  H
  C762     1.0000 0.68930  0.75630  0.44140  Biso   1.000  C
  H958     1.0000 0.70550  0.77730  0.43400  Biso   1.000  H
  C763     1.0000 0.60250  0.96800  0.48440  Biso   1.000  C
  H959     1.0000 0.62980  0.97270  0.48210  Biso   1.000  H
  H960     1.0000 0.59750  0.95790  0.50980  Biso   1.000  H
  C764     1.0000 0.62590  0.66010  0.47570  Biso   1.000  C
  H961     1.0000 0.64380  0.64570  0.49300  Biso   1.000  H
  H962     1.0000 0.61840  0.64280  0.45400  Biso   1.000  H
  N201     1.0000 0.52970  0.69980  0.45140  Biso   1.000  N
  N202     1.0000 0.57760  0.79350  0.40750  Biso   1.000  N
  N203     1.0000 0.59970  0.87330  0.42860  Biso   1.000  N
  N204     1.0000 0.65070  0.76120  0.44100  Biso   1.000  N
  O151     1.0000 0.59210  0.67180  0.49670  Biso   1.000  O
  H963     1.0000 0.57200  0.68000  0.50700  Biso   1.000  H
  O152     1.0000 0.58050  0.00150  0.48250  Biso   1.000  O
  H964     1.0000 0.56130  0.01600  0.47700  Biso   1.000  H
  H965     1.0000 0.61200  0.95450  0.50670  Biso   1.000  H
  H966     1.0000 0.57990  0.98220  0.49220  Biso   1.000  H
  C765     1.0000 0.61820  0.66260  0.46470  Biso   1.000  C
  H967     1.0000 0.63280  0.63860  0.47040  Biso   1.000  H
  H968     1.0000 0.60320  0.65870  0.44060  Biso   1.000  H
  O153     1.0000 0.62970  0.99580  0.47180  Biso   1.000  O
  H969     1.0000 0.64980  0.99300  0.48600  Biso   1.000  H
  C766     1.0000 0.01880  0.21720  0.92530  Biso   1.000  C
  C767     1.0000 0.05120  0.27880  0.89480  Biso   1.000  C
  C768     1.0000 0.10630  0.40020  0.95520  Biso   1.000  C
  H970     1.0000 0.12170  0.39340  0.97690  Biso   1.000  H
  C769     1.0000 0.09180  0.43840  0.95310  Biso   1.000  C
  C770     1.0000 0.06840  0.44770  0.92260  Biso   1.000  C
  H971     1.0000 0.05740  0.47280  0.92040  Biso   1.000  H
  C771     1.0000 0.06120  0.41960  0.89460  Biso   1.000  C
  H972     1.0000 0.04510  0.42540  0.87310  Biso   1.000  H
  C772     1.0000 0.07750  0.38320  0.89820  Biso   1.000  C
  H973     1.0000 0.07290  0.36450  0.87850  Biso   1.000  H
  C773     1.0000 0.12810  0.23010  0.94940  Biso   1.000  C
  H974     1.0000 0.10060  0.23190  0.94780  Biso   1.000  H
  C774     1.0000 0.14540  0.19600  0.96030  Biso   1.000  C
  C775     1.0000 0.18500  0.19220  0.96130  Biso   1.000  C
  H975     1.0000 0.19670  0.16830  0.96850  Biso   1.000  H
  C776     1.0000 0.20610  0.22210  0.95210  Biso   1.000  C
  H976     1.0000 0.23350  0.22010  0.95290  Biso   1.000  H
  C777     1.0000 0.18930  0.25630  0.94140  Biso   1.000  C
  H977     1.0000 0.20550  0.27730  0.93400  Biso   1.000  H
  C778     1.0000 0.10250  0.46800  0.98440  Biso   1.000  C
  H978     1.0000 0.12980  0.47270  0.98210  Biso   1.000  H
  H979     1.0000 0.09750  0.45790  0.00980  Biso   1.000  H
  C779     1.0000 0.12590  0.16010  0.97570  Biso   1.000  C
  H980     1.0000 0.14380  0.14570  0.99300  Biso   1.000  H
  H981     1.0000 0.11840  0.14280  0.95400  Biso   1.000  H
  N205     1.0000 0.02970  0.19980  0.95140  Biso   1.000  N
  N206     1.0000 0.07760  0.29350  0.90750  Biso   1.000  N
  N207     1.0000 0.09970  0.37330  0.92860  Biso   1.000  N
  N208     1.0000 0.15070  0.26120  0.94100  Biso   1.000  N
  O154     1.0000 0.09210  0.17180  0.99670  Biso   1.000  O
  H982     1.0000 0.07200  0.18000  0.00700  Biso   1.000  H
  O155     1.0000 0.08050  0.50150  0.98250  Biso   1.000  O
  H983     1.0000 0.06130  0.51600  0.97700  Biso   1.000  H
  H984     1.0000 0.11200  0.45450  0.00670  Biso   1.000  H
  H985     1.0000 0.07990  0.48220  0.99220  Biso   1.000  H
  C780     1.0000 0.11820  0.16260  0.96470  Biso   1.000  C
  H986     1.0000 0.13280  0.13860  0.97040  Biso   1.000  H
  H987     1.0000 0.10320  0.15870  0.94060  Biso   1.000  H
  O156     1.0000 0.12970  0.49580  0.97180  Biso   1.000  O
  H988     1.0000 0.14980  0.49300  0.98600  Biso   1.000  H
  C781     1.0000 0.01880  0.78280  0.57470  Biso   1.000  C
  C782     1.0000 0.05120  0.72120  0.60520  Biso   1.000  C
  C783     1.0000 0.10630  0.59980  0.54480  Biso   1.000  C
  H989     1.0000 0.12170  0.60660  0.52310  Biso   1.000  H
  C784     1.0000 0.09180  0.56160  0.54690  Biso   1.000  C
  C785     1.0000 0.06840  0.55230  0.57740  Biso   1.000  C
  H990     1.0000 0.05740  0.52720  0.57960  Biso   1.000  H
  C786     1.0000 0.06120  0.58040  0.60540  Biso   1.000  C
  H991     1.0000 0.04510  0.57460  0.62690  Biso   1.000  H
  C787     1.0000 0.07750  0.61680  0.60180  Biso   1.000  C
  H992     1.0000 0.07290  0.63550  0.62150  Biso   1.000  H
  C788     1.0000 0.12810  0.76990  0.55060  Biso   1.000  C
  H993     1.0000 0.10060  0.76810  0.55220  Biso   1.000  H
  C789     1.0000 0.14540  0.80400  0.53970  Biso   1.000  C
  C790     1.0000 0.18500  0.80780  0.53870  Biso   1.000  C
  H994     1.0000 0.19670  0.83170  0.53150  Biso   1.000  H
  C791     1.0000 0.20610  0.77790  0.54790  Biso   1.000  C
  H995     1.0000 0.23350  0.77990  0.54710  Biso   1.000  H
  C792     1.0000 0.18930  0.74370  0.55860  Biso   1.000  C
  H996     1.0000 0.20550  0.72270  0.56600  Biso   1.000  H
  C793     1.0000 0.10250  0.53200  0.51560  Biso   1.000  C
  H997     1.0000 0.12980  0.52730  0.51790  Biso   1.000  H
  H998     1.0000 0.09750  0.54210  0.49020  Biso   1.000  H
  C794     1.0000 0.12590  0.83990  0.52430  Biso   1.000  C
  H999     1.0000 0.14380  0.85430  0.50700  Biso   1.000  H
  H1000    1.0000 0.11840  0.85720  0.54600  Biso   1.000  H
  N209     1.0000 0.02970  0.80020  0.54860  Biso   1.000  N
  N210     1.0000 0.07760  0.70650  0.59250  Biso   1.000  N
  N211     1.0000 0.09970  0.62670  0.57140  Biso   1.000  N
  N212     1.0000 0.15070  0.73880  0.55900  Biso   1.000  N
  O157     1.0000 0.09210  0.82820  0.50330  Biso   1.000  O
  H1001    1.0000 0.07200  0.82000  0.49300  Biso   1.000  H
  O158     1.0000 0.08050  0.49850  0.51750  Biso   1.000  O
  H1002    1.0000 0.06130  0.48400  0.52300  Biso   1.000  H
  H1003    1.0000 0.11200  0.54550  0.49330  Biso   1.000  H
  H1004    1.0000 0.07990  0.51780  0.50780  Biso   1.000  H
  C795     1.0000 0.11820  0.83740  0.53530  Biso   1.000  C
  H1005    1.0000 0.13280  0.86140  0.52960  Biso   1.000  H
  H1006    1.0000 0.10320  0.84130  0.55940  Biso   1.000  H
  O159     1.0000 0.12970  0.50420  0.52820  Biso   1.000  O
  H1007    1.0000 0.14980  0.50700  0.51400  Biso   1.000  H
  C796     1.0000 0.51880  0.28280  0.07470  Biso   1.000  C
  C797     1.0000 0.55120  0.22120  0.10520  Biso   1.000  C
  C798     1.0000 0.60630  0.09980  0.04480  Biso   1.000  C
  H1008    1.0000 0.62170  0.10660  0.02310  Biso   1.000  H
  C799     1.0000 0.59180  0.06160  0.04690  Biso   1.000  C
  C800     1.0000 0.56840  0.05230  0.07740  Biso   1.000  C
  H1009    1.0000 0.55740  0.02720  0.07960  Biso   1.000  H
  C801     1.0000 0.56120  0.08040  0.10540  Biso   1.000  C
  H1010    1.0000 0.54510  0.07460  0.12690  Biso   1.000  H
  C802     1.0000 0.57750  0.11680  0.10180  Biso   1.000  C
  H1011    1.0000 0.57290  0.13550  0.12150  Biso   1.000  H
  C803     1.0000 0.62810  0.26990  0.05060  Biso   1.000  C
  H1012    1.0000 0.60060  0.26810  0.05220  Biso   1.000  H
  C804     1.0000 0.64540  0.30400  0.03970  Biso   1.000  C
  C805     1.0000 0.68500  0.30780  0.03870  Biso   1.000  C
  H1013    1.0000 0.69670  0.33170  0.03150  Biso   1.000  H
  C806     1.0000 0.70610  0.27790  0.04790  Biso   1.000  C
  H1014    1.0000 0.73350  0.27990  0.04710  Biso   1.000  H
  C807     1.0000 0.68930  0.24370  0.05860  Biso   1.000  C
  H1015    1.0000 0.70550  0.22270  0.06600  Biso   1.000  H
  C808     1.0000 0.60250  0.03200  0.01560  Biso   1.000  C
  H1016    1.0000 0.62980  0.02730  0.01790  Biso   1.000  H
  H1017    1.0000 0.59750  0.04210  0.99020  Biso   1.000  H
  C809     1.0000 0.62590  0.33990  0.02430  Biso   1.000  C
  H1018    1.0000 0.64380  0.35430  0.00700  Biso   1.000  H
  H1019    1.0000 0.61840  0.35720  0.04600  Biso   1.000  H
  N213     1.0000 0.52970  0.30020  0.04860  Biso   1.000  N
  N214     1.0000 0.57760  0.20650  0.09250  Biso   1.000  N
  N215     1.0000 0.59970  0.12670  0.07140  Biso   1.000  N
  N216     1.0000 0.65070  0.23880  0.05900  Biso   1.000  N
  O160     1.0000 0.59210  0.32820  0.00330  Biso   1.000  O
  H1020    1.0000 0.57200  0.32000  0.99300  Biso   1.000  H
  O161     1.0000 0.58050  0.99850  0.01750  Biso   1.000  O
  H1021    1.0000 0.56130  0.98400  0.02300  Biso   1.000  H
  H1022    1.0000 0.61200  0.04550  0.99330  Biso   1.000  H
  H1023    1.0000 0.57990  0.01780  0.00780  Biso   1.000  H
  C810     1.0000 0.61820  0.33740  0.03530  Biso   1.000  C
  H1024    1.0000 0.63280  0.36140  0.02960  Biso   1.000  H
  H1025    1.0000 0.60320  0.34130  0.05940  Biso   1.000  H
  O162     1.0000 0.62970  0.00420  0.02820  Biso   1.000  O
  H1026    1.0000 0.64980  0.00700  0.01400  Biso   1.000  H
  C811     1.0000 0.48120  0.21720  0.07470  Biso   1.000  C
  C812     1.0000 0.44880  0.27880  0.10520  Biso   1.000  C
  C813     1.0000 0.39370  0.40020  0.04480  Biso   1.000  C
  H1027    1.0000 0.37830  0.39340  0.02310  Biso   1.000  H
  C814     1.0000 0.40820  0.43840  0.04690  Biso   1.000  C
  C815     1.0000 0.43160  0.44770  0.07740  Biso   1.000  C
  H1028    1.0000 0.44260  0.47280  0.07960  Biso   1.000  H
  C816     1.0000 0.43880  0.41960  0.10540  Biso   1.000  C
  H1029    1.0000 0.45490  0.42540  0.12690  Biso   1.000  H
  C817     1.0000 0.42250  0.38320  0.10180  Biso   1.000  C
  H1030    1.0000 0.42710  0.36450  0.12150  Biso   1.000  H
  C818     1.0000 0.37190  0.23010  0.05060  Biso   1.000  C
  H1031    1.0000 0.39940  0.23190  0.05220  Biso   1.000  H
  C819     1.0000 0.35460  0.19600  0.03970  Biso   1.000  C
  C820     1.0000 0.31500  0.19220  0.03870  Biso   1.000  C
  H1032    1.0000 0.30330  0.16830  0.03150  Biso   1.000  H
  C821     1.0000 0.29390  0.22210  0.04790  Biso   1.000  C
  H1033    1.0000 0.26650  0.22010  0.04710  Biso   1.000  H
  C822     1.0000 0.31070  0.25630  0.05860  Biso   1.000  C
  H1034    1.0000 0.29450  0.27730  0.06600  Biso   1.000  H
  C823     1.0000 0.39750  0.46800  0.01560  Biso   1.000  C
  H1035    1.0000 0.37020  0.47270  0.01790  Biso   1.000  H
  H1036    1.0000 0.40250  0.45790  0.99020  Biso   1.000  H
  C824     1.0000 0.37410  0.16010  0.02430  Biso   1.000  C
  H1037    1.0000 0.35620  0.14570  0.00700  Biso   1.000  H
  H1038    1.0000 0.38160  0.14280  0.04600  Biso   1.000  H
  N217     1.0000 0.47030  0.19980  0.04860  Biso   1.000  N
  N218     1.0000 0.42240  0.29350  0.09250  Biso   1.000  N
  N219     1.0000 0.40030  0.37330  0.07140  Biso   1.000  N
  N220     1.0000 0.34930  0.26120  0.05900  Biso   1.000  N
  O163     1.0000 0.40790  0.17180  0.00330  Biso   1.000  O
  H1039    1.0000 0.42800  0.18000  0.99300  Biso   1.000  H
  O164     1.0000 0.41950  0.50150  0.01750  Biso   1.000  O
  H1040    1.0000 0.43870  0.51600  0.02300  Biso   1.000  H
  H1041    1.0000 0.38800  0.45450  0.99330  Biso   1.000  H
  H1042    1.0000 0.42010  0.48220  0.00780  Biso   1.000  H
  C825     1.0000 0.38180  0.16260  0.03530  Biso   1.000  C
  H1043    1.0000 0.36720  0.13860  0.02960  Biso   1.000  H
  H1044    1.0000 0.39680  0.15870  0.05940  Biso   1.000  H
  O165     1.0000 0.37030  0.49580  0.02820  Biso   1.000  O
  H1045    1.0000 0.35020  0.49300  0.01400  Biso   1.000  H
  C826     1.0000 0.98120  0.71720  0.57470  Biso   1.000  C
  C827     1.0000 0.94880  0.77880  0.60520  Biso   1.000  C
  C828     1.0000 0.89370  0.90020  0.54480  Biso   1.000  C
  H1046    1.0000 0.87830  0.89340  0.52310  Biso   1.000  H
  C829     1.0000 0.90820  0.93840  0.54690  Biso   1.000  C
  C830     1.0000 0.93160  0.94770  0.57740  Biso   1.000  C
  H1047    1.0000 0.94260  0.97280  0.57960  Biso   1.000  H
  C831     1.0000 0.93880  0.91960  0.60540  Biso   1.000  C
  H1048    1.0000 0.95490  0.92540  0.62690  Biso   1.000  H
  C832     1.0000 0.92250  0.88320  0.60180  Biso   1.000  C
  H1049    1.0000 0.92710  0.86450  0.62150  Biso   1.000  H
  C833     1.0000 0.87190  0.73010  0.55060  Biso   1.000  C
  H1050    1.0000 0.89940  0.73190  0.55220  Biso   1.000  H
  C834     1.0000 0.85460  0.69600  0.53970  Biso   1.000  C
  C835     1.0000 0.81500  0.69220  0.53870  Biso   1.000  C
  H1051    1.0000 0.80330  0.66830  0.53150  Biso   1.000  H
  C836     1.0000 0.79390  0.72210  0.54790  Biso   1.000  C
  H1052    1.0000 0.76650  0.72010  0.54710  Biso   1.000  H
  C837     1.0000 0.81070  0.75630  0.55860  Biso   1.000  C
  H1053    1.0000 0.79450  0.77730  0.56600  Biso   1.000  H
  C838     1.0000 0.89750  0.96800  0.51560  Biso   1.000  C
  H1054    1.0000 0.87020  0.97270  0.51790  Biso   1.000  H
  H1055    1.0000 0.90250  0.95790  0.49020  Biso   1.000  H
  C839     1.0000 0.87410  0.66010  0.52430  Biso   1.000  C
  H1056    1.0000 0.85620  0.64570  0.50700  Biso   1.000  H
  H1057    1.0000 0.88160  0.64280  0.54600  Biso   1.000  H
  N221     1.0000 0.97030  0.69980  0.54860  Biso   1.000  N
  N222     1.0000 0.92240  0.79350  0.59250  Biso   1.000  N
  N223     1.0000 0.90030  0.87330  0.57140  Biso   1.000  N
  N224     1.0000 0.84930  0.76120  0.55900  Biso   1.000  N
  O166     1.0000 0.90790  0.67180  0.50330  Biso   1.000  O
  H1058    1.0000 0.92800  0.68000  0.49300  Biso   1.000  H
  O167     1.0000 0.91950  0.00150  0.51750  Biso   1.000  O
  H1059    1.0000 0.93870  0.01600  0.52300  Biso   1.000  H
  H1060    1.0000 0.88800  0.95450  0.49330  Biso   1.000  H
  H1061    1.0000 0.92010  0.98220  0.50780  Biso   1.000  H
  C840     1.0000 0.88180  0.66260  0.53530  Biso   1.000  C
  H1062    1.0000 0.86720  0.63860  0.52960  Biso   1.000  H
  H1063    1.0000 0.89680  0.65870  0.55940  Biso   1.000  H
  O168     1.0000 0.87030  0.99580  0.52820  Biso   1.000  O
  H1064    1.0000 0.85020  0.99300  0.51400  Biso   1.000  H
  C841     1.0000 0.92530  0.98120  0.28280  Biso   1.000  C
  C842     1.0000 0.89480  0.94880  0.22120  Biso   1.000  C
  C843     1.0000 0.95520  0.89370  0.09980  Biso   1.000  C
  H1065    1.0000 0.97690  0.87830  0.10660  Biso   1.000  H
  C844     1.0000 0.95310  0.90820  0.06160  Biso   1.000  C
  C845     1.0000 0.92260  0.93160  0.05230  Biso   1.000  C
  H1066    1.0000 0.92040  0.94260  0.02720  Biso   1.000  H
  C846     1.0000 0.89460  0.93880  0.08040  Biso   1.000  C
  H1067    1.0000 0.87310  0.95490  0.07460  Biso   1.000  H
  C847     1.0000 0.89820  0.92250  0.11680  Biso   1.000  C
  H1068    1.0000 0.87850  0.92710  0.13550  Biso   1.000  H
  C848     1.0000 0.94940  0.87190  0.26990  Biso   1.000  C
  H1069    1.0000 0.94780  0.89940  0.26810  Biso   1.000  H
  C849     1.0000 0.96030  0.85460  0.30400  Biso   1.000  C
  C850     1.0000 0.96130  0.81500  0.30780  Biso   1.000  C
  H1070    1.0000 0.96850  0.80330  0.33170  Biso   1.000  H
  C851     1.0000 0.95210  0.79390  0.27790  Biso   1.000  C
  H1071    1.0000 0.95290  0.76650  0.27990  Biso   1.000  H
  C852     1.0000 0.94140  0.81070  0.24370  Biso   1.000  C
  H1072    1.0000 0.93400  0.79450  0.22270  Biso   1.000  H
  C853     1.0000 0.98440  0.89750  0.03200  Biso   1.000  C
  H1073    1.0000 0.98210  0.87020  0.02730  Biso   1.000  H
  H1074    1.0000 0.00980  0.90250  0.04210  Biso   1.000  H
  C854     1.0000 0.97570  0.87410  0.33990  Biso   1.000  C
  H1075    1.0000 0.99300  0.85620  0.35430  Biso   1.000  H
  H1076    1.0000 0.95400  0.88160  0.35720  Biso   1.000  H
  N225     1.0000 0.95140  0.97030  0.30020  Biso   1.000  N
  N226     1.0000 0.90750  0.92240  0.20650  Biso   1.000  N
  N227     1.0000 0.92860  0.90030  0.12670  Biso   1.000  N
  N228     1.0000 0.94100  0.84930  0.23880  Biso   1.000  N
  O169     1.0000 0.99670  0.90790  0.32820  Biso   1.000  O
  H1077    1.0000 0.00700  0.92800  0.32000  Biso   1.000  H
  O170     1.0000 0.98250  0.91950  0.99850  Biso   1.000  O
  H1078    1.0000 0.97700  0.93870  0.98400  Biso   1.000  H
  H1079    1.0000 0.00670  0.88800  0.04550  Biso   1.000  H
  H1080    1.0000 0.99220  0.92010  0.01780  Biso   1.000  H
  C855     1.0000 0.96470  0.88180  0.33740  Biso   1.000  C
  H1081    1.0000 0.97040  0.86720  0.36140  Biso   1.000  H
  H1082    1.0000 0.94060  0.89680  0.34130  Biso   1.000  H
  O171     1.0000 0.97180  0.87030  0.00420  Biso   1.000  O
  H1083    1.0000 0.98600  0.85020  0.00700  Biso   1.000  H
  C856     1.0000 0.42530  0.48120  0.78280  Biso   1.000  C
  C857     1.0000 0.39480  0.44880  0.72120  Biso   1.000  C
  C858     1.0000 0.45520  0.39370  0.59980  Biso   1.000  C
  H1084    1.0000 0.47690  0.37830  0.60660  Biso   1.000  H
  C859     1.0000 0.45310  0.40820  0.56160  Biso   1.000  C
  C860     1.0000 0.42260  0.43160  0.55230  Biso   1.000  C
  H1085    1.0000 0.42040  0.44260  0.52720  Biso   1.000  H
  C861     1.0000 0.39460  0.43880  0.58040  Biso   1.000  C
  H1086    1.0000 0.37310  0.45490  0.57460  Biso   1.000  H
  C862     1.0000 0.39820  0.42250  0.61680  Biso   1.000  C
  H1087    1.0000 0.37850  0.42710  0.63550  Biso   1.000  H
  C863     1.0000 0.44940  0.37190  0.76990  Biso   1.000  C
  H1088    1.0000 0.44780  0.39940  0.76810  Biso   1.000  H
  C864     1.0000 0.46030  0.35460  0.80400  Biso   1.000  C
  C865     1.0000 0.46130  0.31500  0.80780  Biso   1.000  C
  H1089    1.0000 0.46850  0.30330  0.83170  Biso   1.000  H
  C866     1.0000 0.45210  0.29390  0.77790  Biso   1.000  C
  H1090    1.0000 0.45290  0.26650  0.77990  Biso   1.000  H
  C867     1.0000 0.44140  0.31070  0.74370  Biso   1.000  C
  H1091    1.0000 0.43400  0.29450  0.72270  Biso   1.000  H
  C868     1.0000 0.48440  0.39750  0.53200  Biso   1.000  C
  H1092    1.0000 0.48210  0.37020  0.52730  Biso   1.000  H
  H1093    1.0000 0.50980  0.40250  0.54210  Biso   1.000  H
  C869     1.0000 0.47570  0.37410  0.83990  Biso   1.000  C
  H1094    1.0000 0.49300  0.35620  0.85430  Biso   1.000  H
  H1095    1.0000 0.45400  0.38160  0.85720  Biso   1.000  H
  N229     1.0000 0.45140  0.47030  0.80020  Biso   1.000  N
  N230     1.0000 0.40750  0.42240  0.70650  Biso   1.000  N
  N231     1.0000 0.42860  0.40030  0.62670  Biso   1.000  N
  N232     1.0000 0.44100  0.34930  0.73880  Biso   1.000  N
  O172     1.0000 0.49670  0.40790  0.82820  Biso   1.000  O
  H1096    1.0000 0.50700  0.42800  0.82000  Biso   1.000  H
  O173     1.0000 0.48250  0.41950  0.49850  Biso   1.000  O
  H1097    1.0000 0.47700  0.43870  0.48400  Biso   1.000  H
  H1098    1.0000 0.50670  0.38800  0.54550  Biso   1.000  H
  H1099    1.0000 0.49220  0.42010  0.51780  Biso   1.000  H
  C870     1.0000 0.46470  0.38180  0.83740  Biso   1.000  C
  H1100    1.0000 0.47040  0.36720  0.86140  Biso   1.000  H
  H1101    1.0000 0.44060  0.39680  0.84130  Biso   1.000  H
  O174     1.0000 0.47180  0.37030  0.50420  Biso   1.000  O
  H1102    1.0000 0.48600  0.35020  0.50700  Biso   1.000  H
  C871     1.0000 0.42530  0.51880  0.71720  Biso   1.000  C
  C872     1.0000 0.39480  0.55120  0.77880  Biso   1.000  C
  C873     1.0000 0.45520  0.60630  0.90020  Biso   1.000  C
  H1103    1.0000 0.47690  0.62170  0.89340  Biso   1.000  H
  C874     1.0000 0.45310  0.59180  0.93840  Biso   1.000  C
  C875     1.0000 0.42260  0.56840  0.94770  Biso   1.000  C
  H1104    1.0000 0.42040  0.55740  0.97280  Biso   1.000  H
  C876     1.0000 0.39460  0.56120  0.91960  Biso   1.000  C
  H1105    1.0000 0.37310  0.54510  0.92540  Biso   1.000  H
  C877     1.0000 0.39820  0.57750  0.88320  Biso   1.000  C
  H1106    1.0000 0.37850  0.57290  0.86450  Biso   1.000  H
  C878     1.0000 0.44940  0.62810  0.73010  Biso   1.000  C
  H1107    1.0000 0.44780  0.60060  0.73190  Biso   1.000  H
  C879     1.0000 0.46030  0.64540  0.69600  Biso   1.000  C
  C880     1.0000 0.46130  0.68500  0.69220  Biso   1.000  C
  H1108    1.0000 0.46850  0.69670  0.66830  Biso   1.000  H
  C881     1.0000 0.45210  0.70610  0.72210  Biso   1.000  C
  H1109    1.0000 0.45290  0.73350  0.72010  Biso   1.000  H
  C882     1.0000 0.44140  0.68930  0.75630  Biso   1.000  C
  H1110    1.0000 0.43400  0.70550  0.77730  Biso   1.000  H
  C883     1.0000 0.48440  0.60250  0.96800  Biso   1.000  C
  H1111    1.0000 0.48210  0.62980  0.97270  Biso   1.000  H
  H1112    1.0000 0.50980  0.59750  0.95790  Biso   1.000  H
  C884     1.0000 0.47570  0.62590  0.66010  Biso   1.000  C
  H1113    1.0000 0.49300  0.64380  0.64570  Biso   1.000  H
  H1114    1.0000 0.45400  0.61840  0.64280  Biso   1.000  H
  N233     1.0000 0.45140  0.52970  0.69980  Biso   1.000  N
  N234     1.0000 0.40750  0.57760  0.79350  Biso   1.000  N
  N235     1.0000 0.42860  0.59970  0.87330  Biso   1.000  N
  N236     1.0000 0.44100  0.65070  0.76120  Biso   1.000  N
  O175     1.0000 0.49670  0.59210  0.67180  Biso   1.000  O
  H1115    1.0000 0.50700  0.57200  0.68000  Biso   1.000  H
  O176     1.0000 0.48250  0.58050  0.00150  Biso   1.000  O
  H1116    1.0000 0.47700  0.56130  0.01600  Biso   1.000  H
  H1117    1.0000 0.50670  0.61200  0.95450  Biso   1.000  H
  H1118    1.0000 0.49220  0.57990  0.98220  Biso   1.000  H
  C885     1.0000 0.46470  0.61820  0.66260  Biso   1.000  C
  H1119    1.0000 0.47040  0.63280  0.63860  Biso   1.000  H
  H1120    1.0000 0.44060  0.60320  0.65870  Biso   1.000  H
  O177     1.0000 0.47180  0.62970  0.99580  Biso   1.000  O
  H1121    1.0000 0.48600  0.64980  0.99300  Biso   1.000  H
  C886     1.0000 0.92530  0.01880  0.21720  Biso   1.000  C
  C887     1.0000 0.89480  0.05120  0.27880  Biso   1.000  C
  C888     1.0000 0.95520  0.10630  0.40020  Biso   1.000  C
  H1122    1.0000 0.97690  0.12170  0.39340  Biso   1.000  H
  C889     1.0000 0.95310  0.09180  0.43840  Biso   1.000  C
  C890     1.0000 0.92260  0.06840  0.44770  Biso   1.000  C
  H1123    1.0000 0.92040  0.05740  0.47280  Biso   1.000  H
  C891     1.0000 0.89460  0.06120  0.41960  Biso   1.000  C
  H1124    1.0000 0.87310  0.04510  0.42540  Biso   1.000  H
  C892     1.0000 0.89820  0.07750  0.38320  Biso   1.000  C
  H1125    1.0000 0.87850  0.07290  0.36450  Biso   1.000  H
  C893     1.0000 0.94940  0.12810  0.23010  Biso   1.000  C
  H1126    1.0000 0.94780  0.10060  0.23190  Biso   1.000  H
  C894     1.0000 0.96030  0.14540  0.19600  Biso   1.000  C
  C895     1.0000 0.96130  0.18500  0.19220  Biso   1.000  C
  H1127    1.0000 0.96850  0.19670  0.16830  Biso   1.000  H
  C896     1.0000 0.95210  0.20610  0.22210  Biso   1.000  C
  H1128    1.0000 0.95290  0.23350  0.22010  Biso   1.000  H
  C897     1.0000 0.94140  0.18930  0.25630  Biso   1.000  C
  H1129    1.0000 0.93400  0.20550  0.27730  Biso   1.000  H
  C898     1.0000 0.98440  0.10250  0.46800  Biso   1.000  C
  H1130    1.0000 0.98210  0.12980  0.47270  Biso   1.000  H
  H1131    1.0000 0.00980  0.09750  0.45790  Biso   1.000  H
  C899     1.0000 0.97570  0.12590  0.16010  Biso   1.000  C
  H1132    1.0000 0.99300  0.14380  0.14570  Biso   1.000  H
  H1133    1.0000 0.95400  0.11840  0.14280  Biso   1.000  H
  N237     1.0000 0.95140  0.02970  0.19980  Biso   1.000  N
  N238     1.0000 0.90750  0.07760  0.29350  Biso   1.000  N
  N239     1.0000 0.92860  0.09970  0.37330  Biso   1.000  N
  N240     1.0000 0.94100  0.15070  0.26120  Biso   1.000  N
  O178     1.0000 0.99670  0.09210  0.17180  Biso   1.000  O
  H1134    1.0000 0.00700  0.07200  0.18000  Biso   1.000  H
  O179     1.0000 0.98250  0.08050  0.50150  Biso   1.000  O
  H1135    1.0000 0.97700  0.06130  0.51600  Biso   1.000  H
  H1136    1.0000 0.00670  0.11200  0.45450  Biso   1.000  H
  H1137    1.0000 0.99220  0.07990  0.48220  Biso   1.000  H
  C900     1.0000 0.96470  0.11820  0.16260  Biso   1.000  C
  H1138    1.0000 0.97040  0.13280  0.13860  Biso   1.000  H
  H1139    1.0000 0.94060  0.10320  0.15870  Biso   1.000  H
  O180     1.0000 0.97180  0.12970  0.49580  Biso   1.000  O
  H1140    1.0000 0.98600  0.14980  0.49300  Biso   1.000  H
  C901     1.0000 0.57470  0.01880  0.78280  Biso   1.000  C
  C902     1.0000 0.60520  0.05120  0.72120  Biso   1.000  C
  C903     1.0000 0.54480  0.10630  0.59980  Biso   1.000  C
  H1141    1.0000 0.52310  0.12170  0.60660  Biso   1.000  H
  C904     1.0000 0.54690  0.09180  0.56160  Biso   1.000  C
  C905     1.0000 0.57740  0.06840  0.55230  Biso   1.000  C
  H1142    1.0000 0.57960  0.05740  0.52720  Biso   1.000  H
  C906     1.0000 0.60540  0.06120  0.58040  Biso   1.000  C
  H1143    1.0000 0.62690  0.04510  0.57460  Biso   1.000  H
  C907     1.0000 0.60180  0.07750  0.61680  Biso   1.000  C
  H1144    1.0000 0.62150  0.07290  0.63550  Biso   1.000  H
  C908     1.0000 0.55060  0.12810  0.76990  Biso   1.000  C
  H1145    1.0000 0.55220  0.10060  0.76810  Biso   1.000  H
  C909     1.0000 0.53970  0.14540  0.80400  Biso   1.000  C
  C910     1.0000 0.53870  0.18500  0.80780  Biso   1.000  C
  H1146    1.0000 0.53150  0.19670  0.83170  Biso   1.000  H
  C911     1.0000 0.54790  0.20610  0.77790  Biso   1.000  C
  H1147    1.0000 0.54710  0.23350  0.77990  Biso   1.000  H
  C912     1.0000 0.55860  0.18930  0.74370  Biso   1.000  C
  H1148    1.0000 0.56600  0.20550  0.72270  Biso   1.000  H
  C913     1.0000 0.51560  0.10250  0.53200  Biso   1.000  C
  H1149    1.0000 0.51790  0.12980  0.52730  Biso   1.000  H
  H1150    1.0000 0.49020  0.09750  0.54210  Biso   1.000  H
  C914     1.0000 0.52430  0.12590  0.83990  Biso   1.000  C
  H1151    1.0000 0.50700  0.14380  0.85430  Biso   1.000  H
  H1152    1.0000 0.54600  0.11840  0.85720  Biso   1.000  H
  N241     1.0000 0.54860  0.02970  0.80020  Biso   1.000  N
  N242     1.0000 0.59250  0.07760  0.70650  Biso   1.000  N
  N243     1.0000 0.57140  0.09970  0.62670  Biso   1.000  N
  N244     1.0000 0.55900  0.15070  0.73880  Biso   1.000  N
  O181     1.0000 0.50330  0.09210  0.82820  Biso   1.000  O
  H1153    1.0000 0.49300  0.07200  0.82000  Biso   1.000  H
  O182     1.0000 0.51750  0.08050  0.49850  Biso   1.000  O
  H1154    1.0000 0.52300  0.06130  0.48400  Biso   1.000  H
  H1155    1.0000 0.49330  0.11200  0.54550  Biso   1.000  H
  H1156    1.0000 0.50780  0.07990  0.51780  Biso   1.000  H
  C915     1.0000 0.53530  0.11820  0.83740  Biso   1.000  C
  H1157    1.0000 0.52960  0.13280  0.86140  Biso   1.000  H
  H1158    1.0000 0.55940  0.10320  0.84130  Biso   1.000  H
  O183     1.0000 0.52820  0.12970  0.50420  Biso   1.000  O
  H1159    1.0000 0.51400  0.14980  0.50700  Biso   1.000  H
  C916     1.0000 0.07470  0.51880  0.28280  Biso   1.000  C
  C917     1.0000 0.10520  0.55120  0.22120  Biso   1.000  C
  C918     1.0000 0.04480  0.60630  0.09980  Biso   1.000  C
  H1160    1.0000 0.02310  0.62170  0.10660  Biso   1.000  H
  C919     1.0000 0.04690  0.59180  0.06160  Biso   1.000  C
  C920     1.0000 0.07740  0.56840  0.05230  Biso   1.000  C
  H1161    1.0000 0.07960  0.55740  0.02720  Biso   1.000  H
  C921     1.0000 0.10540  0.56120  0.08040  Biso   1.000  C
  H1162    1.0000 0.12690  0.54510  0.07460  Biso   1.000  H
  C922     1.0000 0.10180  0.57750  0.11680  Biso   1.000  C
  H1163    1.0000 0.12150  0.57290  0.13550  Biso   1.000  H
  C923     1.0000 0.05060  0.62810  0.26990  Biso   1.000  C
  H1164    1.0000 0.05220  0.60060  0.26810  Biso   1.000  H
  C924     1.0000 0.03970  0.64540  0.30400  Biso   1.000  C
  C925     1.0000 0.03870  0.68500  0.30780  Biso   1.000  C
  H1165    1.0000 0.03150  0.69670  0.33170  Biso   1.000  H
  C926     1.0000 0.04790  0.70610  0.27790  Biso   1.000  C
  H1166    1.0000 0.04710  0.73350  0.27990  Biso   1.000  H
  C927     1.0000 0.05860  0.68930  0.24370  Biso   1.000  C
  H1167    1.0000 0.06600  0.70550  0.22270  Biso   1.000  H
  C928     1.0000 0.01560  0.60250  0.03200  Biso   1.000  C
  H1168    1.0000 0.01790  0.62980  0.02730  Biso   1.000  H
  H1169    1.0000 0.99020  0.59750  0.04210  Biso   1.000  H
  C929     1.0000 0.02430  0.62590  0.33990  Biso   1.000  C
  H1170    1.0000 0.00700  0.64380  0.35430  Biso   1.000  H
  H1171    1.0000 0.04600  0.61840  0.35720  Biso   1.000  H
  N245     1.0000 0.04860  0.52970  0.30020  Biso   1.000  N
  N246     1.0000 0.09250  0.57760  0.20650  Biso   1.000  N
  N247     1.0000 0.07140  0.59970  0.12670  Biso   1.000  N
  N248     1.0000 0.05900  0.65070  0.23880  Biso   1.000  N
  O184     1.0000 0.00330  0.59210  0.32820  Biso   1.000  O
  H1172    1.0000 0.99300  0.57200  0.32000  Biso   1.000  H
  O185     1.0000 0.01750  0.58050  0.99850  Biso   1.000  O
  H1173    1.0000 0.02300  0.56130  0.98400  Biso   1.000  H
  H1174    1.0000 0.99330  0.61200  0.04550  Biso   1.000  H
  H1175    1.0000 0.00780  0.57990  0.01780  Biso   1.000  H
  C930     1.0000 0.03530  0.61820  0.33740  Biso   1.000  C
  H1176    1.0000 0.02960  0.63280  0.36140  Biso   1.000  H
  H1177    1.0000 0.05940  0.60320  0.34130  Biso   1.000  H
  O186     1.0000 0.02820  0.62970  0.00420  Biso   1.000  O
  H1178    1.0000 0.01400  0.64980  0.00700  Biso   1.000  H
  C931     1.0000 0.07470  0.48120  0.21720  Biso   1.000  C
  C932     1.0000 0.10520  0.44880  0.27880  Biso   1.000  C
  C933     1.0000 0.04480  0.39370  0.40020  Biso   1.000  C
  H1179    1.0000 0.02310  0.37830  0.39340  Biso   1.000  H
  C934     1.0000 0.04690  0.40820  0.43840  Biso   1.000  C
  C935     1.0000 0.07740  0.43160  0.44770  Biso   1.000  C
  H1180    1.0000 0.07960  0.44260  0.47280  Biso   1.000  H
  C936     1.0000 0.10540  0.43880  0.41960  Biso   1.000  C
  H1181    1.0000 0.12690  0.45490  0.42540  Biso   1.000  H
  C937     1.0000 0.10180  0.42250  0.38320  Biso   1.000  C
  H1182    1.0000 0.12150  0.42710  0.36450  Biso   1.000  H
  C938     1.0000 0.05060  0.37190  0.23010  Biso   1.000  C
  H1183    1.0000 0.05220  0.39940  0.23190  Biso   1.000  H
  C939     1.0000 0.03970  0.35460  0.19600  Biso   1.000  C
  C940     1.0000 0.03870  0.31500  0.19220  Biso   1.000  C
  H1184    1.0000 0.03150  0.30330  0.16830  Biso   1.000  H
  C941     1.0000 0.04790  0.29390  0.22210  Biso   1.000  C
  H1185    1.0000 0.04710  0.26650  0.22010  Biso   1.000  H
  C942     1.0000 0.05860  0.31070  0.25630  Biso   1.000  C
  H1186    1.0000 0.06600  0.29450  0.27730  Biso   1.000  H
  C943     1.0000 0.01560  0.39750  0.46800  Biso   1.000  C
  H1187    1.0000 0.01790  0.37020  0.47270  Biso   1.000  H
  H1188    1.0000 0.99020  0.40250  0.45790  Biso   1.000  H
  C944     1.0000 0.02430  0.37410  0.16010  Biso   1.000  C
  H1189    1.0000 0.00700  0.35620  0.14570  Biso   1.000  H
  H1190    1.0000 0.04600  0.38160  0.14280  Biso   1.000  H
  N249     1.0000 0.04860  0.47030  0.19980  Biso   1.000  N
  N250     1.0000 0.09250  0.42240  0.29350  Biso   1.000  N
  N251     1.0000 0.07140  0.40030  0.37330  Biso   1.000  N
  N252     1.0000 0.05900  0.34930  0.26120  Biso   1.000  N
  O187     1.0000 0.00330  0.40790  0.17180  Biso   1.000  O
  H1191    1.0000 0.99300  0.42800  0.18000  Biso   1.000  H
  O188     1.0000 0.01750  0.41950  0.50150  Biso   1.000  O
  H1192    1.0000 0.02300  0.43870  0.51600  Biso   1.000  H
  H1193    1.0000 0.99330  0.38800  0.45450  Biso   1.000  H
  H1194    1.0000 0.00780  0.42010  0.48220  Biso   1.000  H
  C945     1.0000 0.03530  0.38180  0.16260  Biso   1.000  C
  H1195    1.0000 0.02960  0.36720  0.13860  Biso   1.000  H
  H1196    1.0000 0.05940  0.39680  0.15870  Biso   1.000  H
  O189     1.0000 0.02820  0.37030  0.49580  Biso   1.000  O
  H1197    1.0000 0.01400  0.35020  0.49300  Biso   1.000  H
  C946     1.0000 0.57470  0.98120  0.71720  Biso   1.000  C
  C947     1.0000 0.60520  0.94880  0.77880  Biso   1.000  C
  C948     1.0000 0.54480  0.89370  0.90020  Biso   1.000  C
  H1198    1.0000 0.52310  0.87830  0.89340  Biso   1.000  H
  C949     1.0000 0.54690  0.90820  0.93840  Biso   1.000  C
  C950     1.0000 0.57740  0.93160  0.94770  Biso   1.000  C
  H1199    1.0000 0.57960  0.94260  0.97280  Biso   1.000  H
  C951     1.0000 0.60540  0.93880  0.91960  Biso   1.000  C
  H1200    1.0000 0.62690  0.95490  0.92540  Biso   1.000  H
  C952     1.0000 0.60180  0.92250  0.88320  Biso   1.000  C
  H1201    1.0000 0.62150  0.92710  0.86450  Biso   1.000  H
  C953     1.0000 0.55060  0.87190  0.73010  Biso   1.000  C
  H1202    1.0000 0.55220  0.89940  0.73190  Biso   1.000  H
  C954     1.0000 0.53970  0.85460  0.69600  Biso   1.000  C
  C955     1.0000 0.53870  0.81500  0.69220  Biso   1.000  C
  H1203    1.0000 0.53150  0.80330  0.66830  Biso   1.000  H
  C956     1.0000 0.54790  0.79390  0.72210  Biso   1.000  C
  H1204    1.0000 0.54710  0.76650  0.72010  Biso   1.000  H
  C957     1.0000 0.55860  0.81070  0.75630  Biso   1.000  C
  H1205    1.0000 0.56600  0.79450  0.77730  Biso   1.000  H
  C958     1.0000 0.51560  0.89750  0.96800  Biso   1.000  C
  H1206    1.0000 0.51790  0.87020  0.97270  Biso   1.000  H
  H1207    1.0000 0.49020  0.90250  0.95790  Biso   1.000  H
  C959     1.0000 0.52430  0.87410  0.66010  Biso   1.000  C
  H1208    1.0000 0.50700  0.85620  0.64570  Biso   1.000  H
  H1209    1.0000 0.54600  0.88160  0.64280  Biso   1.000  H
  N253     1.0000 0.54860  0.97030  0.69980  Biso   1.000  N
  N254     1.0000 0.59250  0.92240  0.79350  Biso   1.000  N
  N255     1.0000 0.57140  0.90030  0.87330  Biso   1.000  N
  N256     1.0000 0.55900  0.84930  0.76120  Biso   1.000  N
  O190     1.0000 0.50330  0.90790  0.67180  Biso   1.000  O
  H1210    1.0000 0.49300  0.92800  0.68000  Biso   1.000  H
  O191     1.0000 0.51750  0.91950  0.00150  Biso   1.000  O
  H1211    1.0000 0.52300  0.93870  0.01600  Biso   1.000  H
  H1212    1.0000 0.49330  0.88800  0.95450  Biso   1.000  H
  H1213    1.0000 0.50780  0.92010  0.98220  Biso   1.000  H
  C960     1.0000 0.53530  0.88180  0.66260  Biso   1.000  C
  H1214    1.0000 0.52960  0.86720  0.63860  Biso   1.000  H
  H1215    1.0000 0.55940  0.89680  0.65870  Biso   1.000  H
  O192     1.0000 0.52820  0.87030  0.99580  Biso   1.000  O
  H1216    1.0000 0.51400  0.85020  0.99300  Biso   1.000  H
  C961     1.0000 0.28280  0.92530  0.98120  Biso   1.000  C
  C962     1.0000 0.22120  0.89480  0.94880  Biso   1.000  C
  C963     1.0000 0.09980  0.95520  0.89370  Biso   1.000  C
  H1217    1.0000 0.10660  0.97690  0.87830  Biso   1.000  H
  C964     1.0000 0.06160  0.95310  0.90820  Biso   1.000  C
  C965     1.0000 0.05230  0.92260  0.93160  Biso   1.000  C
  H1218    1.0000 0.02720  0.92040  0.94260  Biso   1.000  H
  C966     1.0000 0.08040  0.89460  0.93880  Biso   1.000  C
  H1219    1.0000 0.07460  0.87310  0.95490  Biso   1.000  H
  C967     1.0000 0.11680  0.89820  0.92250  Biso   1.000  C
  H1220    1.0000 0.13550  0.87850  0.92710  Biso   1.000  H
  C968     1.0000 0.26990  0.94940  0.87190  Biso   1.000  C
  H1221    1.0000 0.26810  0.94780  0.89940  Biso   1.000  H
  C969     1.0000 0.30400  0.96030  0.85460  Biso   1.000  C
  C970     1.0000 0.30780  0.96130  0.81500  Biso   1.000  C
  H1222    1.0000 0.33170  0.96850  0.80330  Biso   1.000  H
  C971     1.0000 0.27790  0.95210  0.79390  Biso   1.000  C
  H1223    1.0000 0.27990  0.95290  0.76650  Biso   1.000  H
  C972     1.0000 0.24370  0.94140  0.81070  Biso   1.000  C
  H1224    1.0000 0.22270  0.93400  0.79450  Biso   1.000  H
  C973     1.0000 0.03200  0.98440  0.89750  Biso   1.000  C
  H1225    1.0000 0.02730  0.98210  0.87020  Biso   1.000  H
  H1226    1.0000 0.04210  0.00980  0.90250  Biso   1.000  H
  C974     1.0000 0.33990  0.97570  0.87410  Biso   1.000  C
  H1227    1.0000 0.35430  0.99300  0.85620  Biso   1.000  H
  H1228    1.0000 0.35720  0.95400  0.88160  Biso   1.000  H
  N257     1.0000 0.30020  0.95140  0.97030  Biso   1.000  N
  N258     1.0000 0.20650  0.90750  0.92240  Biso   1.000  N
  N259     1.0000 0.12670  0.92860  0.90030  Biso   1.000  N
  N260     1.0000 0.23880  0.94100  0.84930  Biso   1.000  N
  O193     1.0000 0.32820  0.99670  0.90790  Biso   1.000  O
  H1229    1.0000 0.32000  0.00700  0.92800  Biso   1.000  H
  O194     1.0000 0.99850  0.98250  0.91950  Biso   1.000  O
  H1230    1.0000 0.98400  0.97700  0.93870  Biso   1.000  H
  H1231    1.0000 0.04550  0.00670  0.88800  Biso   1.000  H
  H1232    1.0000 0.01780  0.99220  0.92010  Biso   1.000  H
  C975     1.0000 0.33740  0.96470  0.88180  Biso   1.000  C
  H1233    1.0000 0.36140  0.97040  0.86720  Biso   1.000  H
  H1234    1.0000 0.34130  0.94060  0.89680  Biso   1.000  H
  O195     1.0000 0.00420  0.97180  0.87030  Biso   1.000  O
  H1235    1.0000 0.00700  0.98600  0.85020  Biso   1.000  H
  C976     1.0000 0.78280  0.42530  0.48120  Biso   1.000  C
  C977     1.0000 0.72120  0.39480  0.44880  Biso   1.000  C
  C978     1.0000 0.59980  0.45520  0.39370  Biso   1.000  C
  H1236    1.0000 0.60660  0.47690  0.37830  Biso   1.000  H
  C979     1.0000 0.56160  0.45310  0.40820  Biso   1.000  C
  C980     1.0000 0.55230  0.42260  0.43160  Biso   1.000  C
  H1237    1.0000 0.52720  0.42040  0.44260  Biso   1.000  H
  C981     1.0000 0.58040  0.39460  0.43880  Biso   1.000  C
  H1238    1.0000 0.57460  0.37310  0.45490  Biso   1.000  H
  C982     1.0000 0.61680  0.39820  0.42250  Biso   1.000  C
  H1239    1.0000 0.63550  0.37850  0.42710  Biso   1.000  H
  C983     1.0000 0.76990  0.44940  0.37190  Biso   1.000  C
  H1240    1.0000 0.76810  0.44780  0.39940  Biso   1.000  H
  C984     1.0000 0.80400  0.46030  0.35460  Biso   1.000  C
  C985     1.0000 0.80780  0.46130  0.31500  Biso   1.000  C
  H1241    1.0000 0.83170  0.46850  0.30330  Biso   1.000  H
  C986     1.0000 0.77790  0.45210  0.29390  Biso   1.000  C
  H1242    1.0000 0.77990  0.45290  0.26650  Biso   1.000  H
  C987     1.0000 0.74370  0.44140  0.31070  Biso   1.000  C
  H1243    1.0000 0.72270  0.43400  0.29450  Biso   1.000  H
  C988     1.0000 0.53200  0.48440  0.39750  Biso   1.000  C
  H1244    1.0000 0.52730  0.48210  0.37020  Biso   1.000  H
  H1245    1.0000 0.54210  0.50980  0.40250  Biso   1.000  H
  C989     1.0000 0.83990  0.47570  0.37410  Biso   1.000  C
  H1246    1.0000 0.85430  0.49300  0.35620  Biso   1.000  H
  H1247    1.0000 0.85720  0.45400  0.38160  Biso   1.000  H
  N261     1.0000 0.80020  0.45140  0.47030  Biso   1.000  N
  N262     1.0000 0.70650  0.40750  0.42240  Biso   1.000  N
  N263     1.0000 0.62670  0.42860  0.40030  Biso   1.000  N
  N264     1.0000 0.73880  0.44100  0.34930  Biso   1.000  N
  O196     1.0000 0.82820  0.49670  0.40790  Biso   1.000  O
  H1248    1.0000 0.82000  0.50700  0.42800  Biso   1.000  H
  O197     1.0000 0.49850  0.48250  0.41950  Biso   1.000  O
  H1249    1.0000 0.48400  0.47700  0.43870  Biso   1.000  H
  H1250    1.0000 0.54550  0.50670  0.38800  Biso   1.000  H
  H1251    1.0000 0.51780  0.49220  0.42010  Biso   1.000  H
  C990     1.0000 0.83740  0.46470  0.38180  Biso   1.000  C
  H1252    1.0000 0.86140  0.47040  0.36720  Biso   1.000  H
  H1253    1.0000 0.84130  0.44060  0.39680  Biso   1.000  H
  O198     1.0000 0.50420  0.47180  0.37030  Biso   1.000  O
  H1254    1.0000 0.50700  0.48600  0.35020  Biso   1.000  H
  C991     1.0000 0.71720  0.42530  0.51880  Biso   1.000  C
  C992     1.0000 0.77880  0.39480  0.55120  Biso   1.000  C
  C993     1.0000 0.90020  0.45520  0.60630  Biso   1.000  C
  H1255    1.0000 0.89340  0.47690  0.62170  Biso   1.000  H
  C994     1.0000 0.93840  0.45310  0.59180  Biso   1.000  C
  C995     1.0000 0.94770  0.42260  0.56840  Biso   1.000  C
  H1256    1.0000 0.97280  0.42040  0.55740  Biso   1.000  H
  C996     1.0000 0.91960  0.39460  0.56120  Biso   1.000  C
  H1257    1.0000 0.92540  0.37310  0.54510  Biso   1.000  H
  C997     1.0000 0.88320  0.39820  0.57750  Biso   1.000  C
  H1258    1.0000 0.86450  0.37850  0.57290  Biso   1.000  H
  C998     1.0000 0.73010  0.44940  0.62810  Biso   1.000  C
  H1259    1.0000 0.73190  0.44780  0.60060  Biso   1.000  H
  C999     1.0000 0.69600  0.46030  0.64540  Biso   1.000  C
  C1000    1.0000 0.69220  0.46130  0.68500  Biso   1.000  C
  H1260    1.0000 0.66830  0.46850  0.69670  Biso   1.000  H
  C1001    1.0000 0.72210  0.45210  0.70610  Biso   1.000  C
  H1261    1.0000 0.72010  0.45290  0.73350  Biso   1.000  H
  C1002    1.0000 0.75630  0.44140  0.68930  Biso   1.000  C
  H1262    1.0000 0.77730  0.43400  0.70550  Biso   1.000  H
  C1003    1.0000 0.96800  0.48440  0.60250  Biso   1.000  C
  H1263    1.0000 0.97270  0.48210  0.62980  Biso   1.000  H
  H1264    1.0000 0.95790  0.50980  0.59750  Biso   1.000  H
  C1004    1.0000 0.66010  0.47570  0.62590  Biso   1.000  C
  H1265    1.0000 0.64570  0.49300  0.64380  Biso   1.000  H
  H1266    1.0000 0.64280  0.45400  0.61840  Biso   1.000  H
  N265     1.0000 0.69980  0.45140  0.52970  Biso   1.000  N
  N266     1.0000 0.79350  0.40750  0.57760  Biso   1.000  N
  N267     1.0000 0.87330  0.42860  0.59970  Biso   1.000  N
  N268     1.0000 0.76120  0.44100  0.65070  Biso   1.000  N
  O199     1.0000 0.67180  0.49670  0.59210  Biso   1.000  O
  H1267    1.0000 0.68000  0.50700  0.57200  Biso   1.000  H
  O200     1.0000 0.00150  0.48250  0.58050  Biso   1.000  O
  H1268    1.0000 0.01600  0.47700  0.56130  Biso   1.000  H
  H1269    1.0000 0.95450  0.50670  0.61200  Biso   1.000  H
  H1270    1.0000 0.98220  0.49220  0.57990  Biso   1.000  H
  C1005    1.0000 0.66260  0.46470  0.61820  Biso   1.000  C
  H1271    1.0000 0.63860  0.47040  0.63280  Biso   1.000  H
  H1272    1.0000 0.65870  0.44060  0.60320  Biso   1.000  H
  O201     1.0000 0.99580  0.47180  0.62970  Biso   1.000  O
  H1273    1.0000 0.99300  0.48600  0.64980  Biso   1.000  H
  C1006    1.0000 0.21720  0.92530  0.01880  Biso   1.000  C
  C1007    1.0000 0.27880  0.89480  0.05120  Biso   1.000  C
  C1008    1.0000 0.40020  0.95520  0.10630  Biso   1.000  C
  H1274    1.0000 0.39340  0.97690  0.12170  Biso   1.000  H
  C1009    1.0000 0.43840  0.95310  0.09180  Biso   1.000  C
  C1010    1.0000 0.44770  0.92260  0.06840  Biso   1.000  C
  H1275    1.0000 0.47280  0.92040  0.05740  Biso   1.000  H
  C1011    1.0000 0.41960  0.89460  0.06120  Biso   1.000  C
  H1276    1.0000 0.42540  0.87310  0.04510  Biso   1.000  H
  C1012    1.0000 0.38320  0.89820  0.07750  Biso   1.000  C
  H1277    1.0000 0.36450  0.87850  0.07290  Biso   1.000  H
  C1013    1.0000 0.23010  0.94940  0.12810  Biso   1.000  C
  H1278    1.0000 0.23190  0.94780  0.10060  Biso   1.000  H
  C1014    1.0000 0.19600  0.96030  0.14540  Biso   1.000  C
  C1015    1.0000 0.19220  0.96130  0.18500  Biso   1.000  C
  H1279    1.0000 0.16830  0.96850  0.19670  Biso   1.000  H
  C1016    1.0000 0.22210  0.95210  0.20610  Biso   1.000  C
  H1280    1.0000 0.22010  0.95290  0.23350  Biso   1.000  H
  C1017    1.0000 0.25630  0.94140  0.18930  Biso   1.000  C
  H1281    1.0000 0.27730  0.93400  0.20550  Biso   1.000  H
  C1018    1.0000 0.46800  0.98440  0.10250  Biso   1.000  C
  H1282    1.0000 0.47270  0.98210  0.12980  Biso   1.000  H
  H1283    1.0000 0.45790  0.00980  0.09750  Biso   1.000  H
  C1019    1.0000 0.16010  0.97570  0.12590  Biso   1.000  C
  H1284    1.0000 0.14570  0.99300  0.14380  Biso   1.000  H
  H1285    1.0000 0.14280  0.95400  0.11840  Biso   1.000  H
  N269     1.0000 0.19980  0.95140  0.02970  Biso   1.000  N
  N270     1.0000 0.29350  0.90750  0.07760  Biso   1.000  N
  N271     1.0000 0.37330  0.92860  0.09970  Biso   1.000  N
  N272     1.0000 0.26120  0.94100  0.15070  Biso   1.000  N
  O202     1.0000 0.17180  0.99670  0.09210  Biso   1.000  O
  H1286    1.0000 0.18000  0.00700  0.07200  Biso   1.000  H
  O203     1.0000 0.50150  0.98250  0.08050  Biso   1.000  O
  H1287    1.0000 0.51600  0.97700  0.06130  Biso   1.000  H
  H1288    1.0000 0.45450  0.00670  0.11200  Biso   1.000  H
  H1289    1.0000 0.48220  0.99220  0.07990  Biso   1.000  H
  C1020    1.0000 0.16260  0.96470  0.11820  Biso   1.000  C
  H1290    1.0000 0.13860  0.97040  0.13280  Biso   1.000  H
  H1291    1.0000 0.15870  0.94060  0.10320  Biso   1.000  H
  O204     1.0000 0.49580  0.97180  0.12970  Biso   1.000  O
  H1292    1.0000 0.49300  0.98600  0.14980  Biso   1.000  H
  C1021    1.0000 0.78280  0.57470  0.01880  Biso   1.000  C
  C1022    1.0000 0.72120  0.60520  0.05120  Biso   1.000  C
  C1023    1.0000 0.59980  0.54480  0.10630  Biso   1.000  C
  H1293    1.0000 0.60660  0.52310  0.12170  Biso   1.000  H
  C1024    1.0000 0.56160  0.54690  0.09180  Biso   1.000  C
  C1025    1.0000 0.55230  0.57740  0.06840  Biso   1.000  C
  H1294    1.0000 0.52720  0.57960  0.05740  Biso   1.000  H
  C1026    1.0000 0.58040  0.60540  0.06120  Biso   1.000  C
  H1295    1.0000 0.57460  0.62690  0.04510  Biso   1.000  H
  C1027    1.0000 0.61680  0.60180  0.07750  Biso   1.000  C
  H1296    1.0000 0.63550  0.62150  0.07290  Biso   1.000  H
  C1028    1.0000 0.76990  0.55060  0.12810  Biso   1.000  C
  H1297    1.0000 0.76810  0.55220  0.10060  Biso   1.000  H
  C1029    1.0000 0.80400  0.53970  0.14540  Biso   1.000  C
  C1030    1.0000 0.80780  0.53870  0.18500  Biso   1.000  C
  H1298    1.0000 0.83170  0.53150  0.19670  Biso   1.000  H
  C1031    1.0000 0.77790  0.54790  0.20610  Biso   1.000  C
  H1299    1.0000 0.77990  0.54710  0.23350  Biso   1.000  H
  C1032    1.0000 0.74370  0.55860  0.18930  Biso   1.000  C
  H1300    1.0000 0.72270  0.56600  0.20550  Biso   1.000  H
  C1033    1.0000 0.53200  0.51560  0.10250  Biso   1.000  C
  H1301    1.0000 0.52730  0.51790  0.12980  Biso   1.000  H
  H1302    1.0000 0.54210  0.49020  0.09750  Biso   1.000  H
  C1034    1.0000 0.83990  0.52430  0.12590  Biso   1.000  C
  H1303    1.0000 0.85430  0.50700  0.14380  Biso   1.000  H
  H1304    1.0000 0.85720  0.54600  0.11840  Biso   1.000  H
  N273     1.0000 0.80020  0.54860  0.02970  Biso   1.000  N
  N274     1.0000 0.70650  0.59250  0.07760  Biso   1.000  N
  N275     1.0000 0.62670  0.57140  0.09970  Biso   1.000  N
  N276     1.0000 0.73880  0.55900  0.15070  Biso   1.000  N
  O205     1.0000 0.82820  0.50330  0.09210  Biso   1.000  O
  H1305    1.0000 0.82000  0.49300  0.07200  Biso   1.000  H
  O206     1.0000 0.49850  0.51750  0.08050  Biso   1.000  O
  H1306    1.0000 0.48400  0.52300  0.06130  Biso   1.000  H
  H1307    1.0000 0.54550  0.49330  0.11200  Biso   1.000  H
  H1308    1.0000 0.51780  0.50780  0.07990  Biso   1.000  H
  C1035    1.0000 0.83740  0.53530  0.11820  Biso   1.000  C
  H1309    1.0000 0.86140  0.52960  0.13280  Biso   1.000  H
  H1310    1.0000 0.84130  0.55940  0.10320  Biso   1.000  H
  O207     1.0000 0.50420  0.52820  0.12970  Biso   1.000  O
  H1311    1.0000 0.50700  0.51400  0.14980  Biso   1.000  H
  C1036    1.0000 0.28280  0.07470  0.51880  Biso   1.000  C
  C1037    1.0000 0.22120  0.10520  0.55120  Biso   1.000  C
  C1038    1.0000 0.09980  0.04480  0.60630  Biso   1.000  C
  H1312    1.0000 0.10660  0.02310  0.62170  Biso   1.000  H
  C1039    1.0000 0.06160  0.04690  0.59180  Biso   1.000  C
  C1040    1.0000 0.05230  0.07740  0.56840  Biso   1.000  C
  H1313    1.0000 0.02720  0.07960  0.55740  Biso   1.000  H
  C1041    1.0000 0.08040  0.10540  0.56120  Biso   1.000  C
  H1314    1.0000 0.07460  0.12690  0.54510  Biso   1.000  H
  C1042    1.0000 0.11680  0.10180  0.57750  Biso   1.000  C
  H1315    1.0000 0.13550  0.12150  0.57290  Biso   1.000  H
  C1043    1.0000 0.26990  0.05060  0.62810  Biso   1.000  C
  H1316    1.0000 0.26810  0.05220  0.60060  Biso   1.000  H
  C1044    1.0000 0.30400  0.03970  0.64540  Biso   1.000  C
  C1045    1.0000 0.30780  0.03870  0.68500  Biso   1.000  C
  H1317    1.0000 0.33170  0.03150  0.69670  Biso   1.000  H
  C1046    1.0000 0.27790  0.04790  0.70610  Biso   1.000  C
  H1318    1.0000 0.27990  0.04710  0.73350  Biso   1.000  H
  C1047    1.0000 0.24370  0.05860  0.68930  Biso   1.000  C
  H1319    1.0000 0.22270  0.06600  0.70550  Biso   1.000  H
  C1048    1.0000 0.03200  0.01560  0.60250  Biso   1.000  C
  H1320    1.0000 0.02730  0.01790  0.62980  Biso   1.000  H
  H1321    1.0000 0.04210  0.99020  0.59750  Biso   1.000  H
  C1049    1.0000 0.33990  0.02430  0.62590  Biso   1.000  C
  H1322    1.0000 0.35430  0.00700  0.64380  Biso   1.000  H
  H1323    1.0000 0.35720  0.04600  0.61840  Biso   1.000  H
  N277     1.0000 0.30020  0.04860  0.52970  Biso   1.000  N
  N278     1.0000 0.20650  0.09250  0.57760  Biso   1.000  N
  N279     1.0000 0.12670  0.07140  0.59970  Biso   1.000  N
  N280     1.0000 0.23880  0.05900  0.65070  Biso   1.000  N
  O208     1.0000 0.32820  0.00330  0.59210  Biso   1.000  O
  H1324    1.0000 0.32000  0.99300  0.57200  Biso   1.000  H
  O209     1.0000 0.99850  0.01750  0.58050  Biso   1.000  O
  H1325    1.0000 0.98400  0.02300  0.56130  Biso   1.000  H
  H1326    1.0000 0.04550  0.99330  0.61200  Biso   1.000  H
  H1327    1.0000 0.01780  0.00780  0.57990  Biso   1.000  H
  C1050    1.0000 0.33740  0.03530  0.61820  Biso   1.000  C
  H1328    1.0000 0.36140  0.02960  0.63280  Biso   1.000  H
  H1329    1.0000 0.34130  0.05940  0.60320  Biso   1.000  H
  O210     1.0000 0.00420  0.02820  0.62970  Biso   1.000  O
  H1330    1.0000 0.00700  0.01400  0.64980  Biso   1.000  H
  C1051    1.0000 0.21720  0.07470  0.48120  Biso   1.000  C
  C1052    1.0000 0.27880  0.10520  0.44880  Biso   1.000  C
  C1053    1.0000 0.40020  0.04480  0.39370  Biso   1.000  C
  H1331    1.0000 0.39340  0.02310  0.37830  Biso   1.000  H
  C1054    1.0000 0.43840  0.04690  0.40820  Biso   1.000  C
  C1055    1.0000 0.44770  0.07740  0.43160  Biso   1.000  C
  H1332    1.0000 0.47280  0.07960  0.44260  Biso   1.000  H
  C1056    1.0000 0.41960  0.10540  0.43880  Biso   1.000  C
  H1333    1.0000 0.42540  0.12690  0.45490  Biso   1.000  H
  C1057    1.0000 0.38320  0.10180  0.42250  Biso   1.000  C
  H1334    1.0000 0.36450  0.12150  0.42710  Biso   1.000  H
  C1058    1.0000 0.23010  0.05060  0.37190  Biso   1.000  C
  H1335    1.0000 0.23190  0.05220  0.39940  Biso   1.000  H
  C1059    1.0000 0.19600  0.03970  0.35460  Biso   1.000  C
  C1060    1.0000 0.19220  0.03870  0.31500  Biso   1.000  C
  H1336    1.0000 0.16830  0.03150  0.30330  Biso   1.000  H
  C1061    1.0000 0.22210  0.04790  0.29390  Biso   1.000  C
  H1337    1.0000 0.22010  0.04710  0.26650  Biso   1.000  H
  C1062    1.0000 0.25630  0.05860  0.31070  Biso   1.000  C
  H1338    1.0000 0.27730  0.06600  0.29450  Biso   1.000  H
  C1063    1.0000 0.46800  0.01560  0.39750  Biso   1.000  C
  H1339    1.0000 0.47270  0.01790  0.37020  Biso   1.000  H
  H1340    1.0000 0.45790  0.99020  0.40250  Biso   1.000  H
  C1064    1.0000 0.16010  0.02430  0.37410  Biso   1.000  C
  H1341    1.0000 0.14570  0.00700  0.35620  Biso   1.000  H
  H1342    1.0000 0.14280  0.04600  0.38160  Biso   1.000  H
  N281     1.0000 0.19980  0.04860  0.47030  Biso   1.000  N
  N282     1.0000 0.29350  0.09250  0.42240  Biso   1.000  N
  N283     1.0000 0.37330  0.07140  0.40030  Biso   1.000  N
  N284     1.0000 0.26120  0.05900  0.34930  Biso   1.000  N
  O211     1.0000 0.17180  0.00330  0.40790  Biso   1.000  O
  H1343    1.0000 0.18000  0.99300  0.42800  Biso   1.000  H
  O212     1.0000 0.50150  0.01750  0.41950  Biso   1.000  O
  H1344    1.0000 0.51600  0.02300  0.43870  Biso   1.000  H
  H1345    1.0000 0.45450  0.99330  0.38800  Biso   1.000  H
  H1346    1.0000 0.48220  0.00780  0.42010  Biso   1.000  H
  C1065    1.0000 0.16260  0.03530  0.38180  Biso   1.000  C
  H1347    1.0000 0.13860  0.02960  0.36720  Biso   1.000  H
  H1348    1.0000 0.15870  0.05940  0.39680  Biso   1.000  H
  O213     1.0000 0.49580  0.02820  0.37030  Biso   1.000  O
  H1349    1.0000 0.49300  0.01400  0.35020  Biso   1.000  H
  C1066    1.0000 0.71720  0.57470  0.98120  Biso   1.000  C
  C1067    1.0000 0.77880  0.60520  0.94880  Biso   1.000  C
  C1068    1.0000 0.90020  0.54480  0.89370  Biso   1.000  C
  H1350    1.0000 0.89340  0.52310  0.87830  Biso   1.000  H
  C1069    1.0000 0.93840  0.54690  0.90820  Biso   1.000  C
  C1070    1.0000 0.94770  0.57740  0.93160  Biso   1.000  C
  H1351    1.0000 0.97280  0.57960  0.94260  Biso   1.000  H
  C1071    1.0000 0.91960  0.60540  0.93880  Biso   1.000  C
  H1352    1.0000 0.92540  0.62690  0.95490  Biso   1.000  H
  C1072    1.0000 0.88320  0.60180  0.92250  Biso   1.000  C
  H1353    1.0000 0.86450  0.62150  0.92710  Biso   1.000  H
  C1073    1.0000 0.73010  0.55060  0.87190  Biso   1.000  C
  H1354    1.0000 0.73190  0.55220  0.89940  Biso   1.000  H
  C1074    1.0000 0.69600  0.53970  0.85460  Biso   1.000  C
  C1075    1.0000 0.69220  0.53870  0.81500  Biso   1.000  C
  H1355    1.0000 0.66830  0.53150  0.80330  Biso   1.000  H
  C1076    1.0000 0.72210  0.54790  0.79390  Biso   1.000  C
  H1356    1.0000 0.72010  0.54710  0.76650  Biso   1.000  H
  C1077    1.0000 0.75630  0.55860  0.81070  Biso   1.000  C
  H1357    1.0000 0.77730  0.56600  0.79450  Biso   1.000  H
  C1078    1.0000 0.96800  0.51560  0.89750  Biso   1.000  C
  H1358    1.0000 0.97270  0.51790  0.87020  Biso   1.000  H
  H1359    1.0000 0.95790  0.49020  0.90250  Biso   1.000  H
  C1079    1.0000 0.66010  0.52430  0.87410  Biso   1.000  C
  H1360    1.0000 0.64570  0.50700  0.85620  Biso   1.000  H
  H1361    1.0000 0.64280  0.54600  0.88160  Biso   1.000  H
  N285     1.0000 0.69980  0.54860  0.97030  Biso   1.000  N
  N286     1.0000 0.79350  0.59250  0.92240  Biso   1.000  N
  N287     1.0000 0.87330  0.57140  0.90030  Biso   1.000  N
  N288     1.0000 0.76120  0.55900  0.84930  Biso   1.000  N
  O214     1.0000 0.67180  0.50330  0.90790  Biso   1.000  O
  H1362    1.0000 0.68000  0.49300  0.92800  Biso   1.000  H
  O215     1.0000 0.00150  0.51750  0.91950  Biso   1.000  O
  H1363    1.0000 0.01600  0.52300  0.93870  Biso   1.000  H
  H1364    1.0000 0.95450  0.49330  0.88800  Biso   1.000  H
  H1365    1.0000 0.98220  0.50780  0.92010  Biso   1.000  H
  C1080    1.0000 0.66260  0.53530  0.88180  Biso   1.000  C
  H1366    1.0000 0.63860  0.52960  0.86720  Biso   1.000  H
  H1367    1.0000 0.65870  0.55940  0.89680  Biso   1.000  H
  O216     1.0000 0.99580  0.52820  0.87030  Biso   1.000  O
  H1368    1.0000 0.99300  0.51400  0.85020  Biso   1.000  H
  C1081    1.0000 0.53280  0.73120  0.82470  Biso   1.000  C
  C1082    1.0000 0.47120  0.69880  0.85520  Biso   1.000  C
  C1083    1.0000 0.34980  0.64370  0.79480  Biso   1.000  C
  H1369    1.0000 0.35660  0.62830  0.77310  Biso   1.000  H
  C1084    1.0000 0.31160  0.65820  0.79690  Biso   1.000  C
  C1085    1.0000 0.30230  0.68160  0.82740  Biso   1.000  C
  H1370    1.0000 0.27720  0.69260  0.82960  Biso   1.000  H
  C1086    1.0000 0.33040  0.68880  0.85540  Biso   1.000  C
  H1371    1.0000 0.32460  0.70490  0.87690  Biso   1.000  H
  C1087    1.0000 0.36680  0.67250  0.85180  Biso   1.000  C
  H1372    1.0000 0.38550  0.67710  0.87150  Biso   1.000  H
  C1088    1.0000 0.51990  0.62190  0.80060  Biso   1.000  C
  H1373    1.0000 0.51810  0.64940  0.80220  Biso   1.000  H
  C1089    1.0000 0.55400  0.60460  0.78970  Biso   1.000  C
  C1090    1.0000 0.55780  0.56500  0.78870  Biso   1.000  C
  H1374    1.0000 0.58170  0.55330  0.78150  Biso   1.000  H
  C1091    1.0000 0.52790  0.54390  0.79790  Biso   1.000  C
  H1375    1.0000 0.52990  0.51650  0.79710  Biso   1.000  H
  C1092    1.0000 0.49370  0.56070  0.80860  Biso   1.000  C
  H1376    1.0000 0.47270  0.54450  0.81600  Biso   1.000  H
  C1093    1.0000 0.28200  0.64750  0.76560  Biso   1.000  C
  H1377    1.0000 0.27730  0.62020  0.76790  Biso   1.000  H
  H1378    1.0000 0.29210  0.65250  0.74020  Biso   1.000  H
  C1094    1.0000 0.58990  0.62410  0.77430  Biso   1.000  C
  H1379    1.0000 0.60430  0.60620  0.75700  Biso   1.000  H
  H1380    1.0000 0.60720  0.63160  0.79600  Biso   1.000  H
  N289     1.0000 0.55020  0.72030  0.79860  Biso   1.000  N
  N290     1.0000 0.45650  0.67240  0.84250  Biso   1.000  N
  N291     1.0000 0.37670  0.65030  0.82140  Biso   1.000  N
  N292     1.0000 0.48880  0.59930  0.80900  Biso   1.000  N
  O217     1.0000 0.57820  0.65790  0.75330  Biso   1.000  O
  H1381    1.0000 0.57000  0.67800  0.74300  Biso   1.000  H
  O218     1.0000 0.24850  0.66950  0.76750  Biso   1.000  O
  H1382    1.0000 0.23400  0.68870  0.77300  Biso   1.000  H
  H1383    1.0000 0.29550  0.63800  0.74330  Biso   1.000  H
  H1384    1.0000 0.26780  0.67010  0.75780  Biso   1.000  H
  C1095    1.0000 0.58740  0.63180  0.78530  Biso   1.000  C
  H1385    1.0000 0.61140  0.61720  0.77960  Biso   1.000  H
  H1386    1.0000 0.59130  0.64680  0.80940  Biso   1.000  H
  O219     1.0000 0.25420  0.62030  0.77820  Biso   1.000  O
  H1387    1.0000 0.25700  0.60020  0.76400  Biso   1.000  H
  C1096    1.0000 0.03280  0.23120  0.32470  Biso   1.000  C
  C1097    1.0000 0.97120  0.19880  0.35520  Biso   1.000  C
  C1098    1.0000 0.84980  0.14370  0.29480  Biso   1.000  C
  H1388    1.0000 0.85660  0.12830  0.27310  Biso   1.000  H
  C1099    1.0000 0.81160  0.15820  0.29690  Biso   1.000  C
  C1100    1.0000 0.80230  0.18160  0.32740  Biso   1.000  C
  H1389    1.0000 0.77720  0.19260  0.32960  Biso   1.000  H
  C1101    1.0000 0.83040  0.18880  0.35540  Biso   1.000  C
  H1390    1.0000 0.82460  0.20490  0.37690  Biso   1.000  H
  C1102    1.0000 0.86680  0.17250  0.35180  Biso   1.000  C
  H1391    1.0000 0.88550  0.17710  0.37150  Biso   1.000  H
  C1103    1.0000 0.01990  0.12190  0.30060  Biso   1.000  C
  H1392    1.0000 0.01810  0.14940  0.30220  Biso   1.000  H
  C1104    1.0000 0.05400  0.10460  0.28970  Biso   1.000  C
  C1105    1.0000 0.05780  0.06500  0.28870  Biso   1.000  C
  H1393    1.0000 0.08170  0.05330  0.28150  Biso   1.000  H
  C1106    1.0000 0.02790  0.04390  0.29790  Biso   1.000  C
  H1394    1.0000 0.02990  0.01650  0.29710  Biso   1.000  H
  C1107    1.0000 0.99370  0.06070  0.30860  Biso   1.000  C
  H1395    1.0000 0.97270  0.04450  0.31600  Biso   1.000  H
  C1108    1.0000 0.78200  0.14750  0.26560  Biso   1.000  C
  H1396    1.0000 0.77730  0.12020  0.26790  Biso   1.000  H
  H1397    1.0000 0.79210  0.15250  0.24020  Biso   1.000  H
  C1109    1.0000 0.08990  0.12410  0.27430  Biso   1.000  C
  H1398    1.0000 0.10430  0.10620  0.25700  Biso   1.000  H
  H1399    1.0000 0.10720  0.13160  0.29600  Biso   1.000  H
  N293     1.0000 0.05020  0.22030  0.29860  Biso   1.000  N
  N294     1.0000 0.95650  0.17240  0.34250  Biso   1.000  N
  N295     1.0000 0.87670  0.15030  0.32140  Biso   1.000  N
  N296     1.0000 0.98880  0.09930  0.30900  Biso   1.000  N
  O220     1.0000 0.07820  0.15790  0.25330  Biso   1.000  O
  H1400    1.0000 0.07000  0.17800  0.24300  Biso   1.000  H
  O221     1.0000 0.74850  0.16950  0.26750  Biso   1.000  O
  H1401    1.0000 0.73400  0.18870  0.27300  Biso   1.000  H
  H1402    1.0000 0.79550  0.13800  0.24330  Biso   1.000  H
  H1403    1.0000 0.76780  0.17010  0.25780  Biso   1.000  H
  C1110    1.0000 0.08740  0.13180  0.28530  Biso   1.000  C
  H1404    1.0000 0.11140  0.11720  0.27960  Biso   1.000  H
  H1405    1.0000 0.09130  0.14680  0.30940  Biso   1.000  H
  O222     1.0000 0.75420  0.12030  0.27820  Biso   1.000  O
  H1406    1.0000 0.75700  0.10020  0.26400  Biso   1.000  H
  C1111    1.0000 0.96720  0.26880  0.32470  Biso   1.000  C
  C1112    1.0000 0.02880  0.30120  0.35520  Biso   1.000  C
  C1113    1.0000 0.15020  0.35630  0.29480  Biso   1.000  C
  H1407    1.0000 0.14340  0.37170  0.27310  Biso   1.000  H
  C1114    1.0000 0.18840  0.34180  0.29690  Biso   1.000  C
  C1115    1.0000 0.19770  0.31840  0.32740  Biso   1.000  C
  H1408    1.0000 0.22280  0.30740  0.32960  Biso   1.000  H
  C1116    1.0000 0.16960  0.31120  0.35540  Biso   1.000  C
  H1409    1.0000 0.17540  0.29510  0.37690  Biso   1.000  H
  C1117    1.0000 0.13320  0.32750  0.35180  Biso   1.000  C
  H1410    1.0000 0.11450  0.32290  0.37150  Biso   1.000  H
  C1118    1.0000 0.98010  0.37810  0.30060  Biso   1.000  C
  H1411    1.0000 0.98190  0.35060  0.30220  Biso   1.000  H
  C1119    1.0000 0.94600  0.39540  0.28970  Biso   1.000  C
  C1120    1.0000 0.94220  0.43500  0.28870  Biso   1.000  C
  H1412    1.0000 0.91830  0.44670  0.28150  Biso   1.000  H
  C1121    1.0000 0.97210  0.45610  0.29790  Biso   1.000  C
  H1413    1.0000 0.97010  0.48350  0.29710  Biso   1.000  H
  C1122    1.0000 0.00630  0.43930  0.30860  Biso   1.000  C
  H1414    1.0000 0.02730  0.45550  0.31600  Biso   1.000  H
  C1123    1.0000 0.21800  0.35250  0.26560  Biso   1.000  C
  H1415    1.0000 0.22270  0.37980  0.26790  Biso   1.000  H
  H1416    1.0000 0.20790  0.34750  0.24020  Biso   1.000  H
  C1124    1.0000 0.91010  0.37590  0.27430  Biso   1.000  C
  H1417    1.0000 0.89570  0.39380  0.25700  Biso   1.000  H
  H1418    1.0000 0.89280  0.36840  0.29600  Biso   1.000  H
  N297     1.0000 0.94980  0.27970  0.29860  Biso   1.000  N
  N298     1.0000 0.04350  0.32760  0.34250  Biso   1.000  N
  N299     1.0000 0.12330  0.34970  0.32140  Biso   1.000  N
  N300     1.0000 0.01120  0.40070  0.30900  Biso   1.000  N
  O223     1.0000 0.92180  0.34210  0.25330  Biso   1.000  O
  H1419    1.0000 0.93000  0.32200  0.24300  Biso   1.000  H
  O224     1.0000 0.25150  0.33050  0.26750  Biso   1.000  O
  H1420    1.0000 0.26600  0.31130  0.27300  Biso   1.000  H
  H1421    1.0000 0.20450  0.36200  0.24330  Biso   1.000  H
  H1422    1.0000 0.23220  0.32990  0.25780  Biso   1.000  H
  C1125    1.0000 0.91260  0.36820  0.28530  Biso   1.000  C
  H1423    1.0000 0.88860  0.38280  0.27960  Biso   1.000  H
  H1424    1.0000 0.90870  0.35320  0.30940  Biso   1.000  H
  O225     1.0000 0.24580  0.37970  0.27820  Biso   1.000  O
  H1425    1.0000 0.24300  0.39980  0.26400  Biso   1.000  H
  C1126    1.0000 0.46720  0.76880  0.82470  Biso   1.000  C
  C1127    1.0000 0.52880  0.80120  0.85520  Biso   1.000  C
  C1128    1.0000 0.65020  0.85630  0.79480  Biso   1.000  C
  H1426    1.0000 0.64340  0.87170  0.77310  Biso   1.000  H
  C1129    1.0000 0.68840  0.84180  0.79690  Biso   1.000  C
  C1130    1.0000 0.69770  0.81840  0.82740  Biso   1.000  C
  H1427    1.0000 0.72280  0.80740  0.82960  Biso   1.000  H
  C1131    1.0000 0.66960  0.81120  0.85540  Biso   1.000  C
  H1428    1.0000 0.67540  0.79510  0.87690  Biso   1.000  H
  C1132    1.0000 0.63320  0.82750  0.85180  Biso   1.000  C
  H1429    1.0000 0.61450  0.82290  0.87150  Biso   1.000  H
  C1133    1.0000 0.48010  0.87810  0.80060  Biso   1.000  C
  H1430    1.0000 0.48190  0.85060  0.80220  Biso   1.000  H
  C1134    1.0000 0.44600  0.89540  0.78970  Biso   1.000  C
  C1135    1.0000 0.44220  0.93500  0.78870  Biso   1.000  C
  H1431    1.0000 0.41830  0.94670  0.78150  Biso   1.000  H
  C1136    1.0000 0.47210  0.95610  0.79790  Biso   1.000  C
  H1432    1.0000 0.47010  0.98350  0.79710  Biso   1.000  H
  C1137    1.0000 0.50630  0.93930  0.80860  Biso   1.000  C
  H1433    1.0000 0.52730  0.95550  0.81600  Biso   1.000  H
  C1138    1.0000 0.71800  0.85250  0.76560  Biso   1.000  C
  H1434    1.0000 0.72270  0.87980  0.76790  Biso   1.000  H
  H1435    1.0000 0.70790  0.84750  0.74020  Biso   1.000  H
  C1139    1.0000 0.41010  0.87590  0.77430  Biso   1.000  C
  H1436    1.0000 0.39570  0.89380  0.75700  Biso   1.000  H
  H1437    1.0000 0.39280  0.86840  0.79600  Biso   1.000  H
  N301     1.0000 0.44980  0.77970  0.79860  Biso   1.000  N
  N302     1.0000 0.54350  0.82760  0.84250  Biso   1.000  N
  N303     1.0000 0.62330  0.84970  0.82140  Biso   1.000  N
  N304     1.0000 0.51120  0.90070  0.80900  Biso   1.000  N
  O226     1.0000 0.42180  0.84210  0.75330  Biso   1.000  O
  H1438    1.0000 0.43000  0.82200  0.74300  Biso   1.000  H
  O227     1.0000 0.75150  0.83050  0.76750  Biso   1.000  O
  H1439    1.0000 0.76600  0.81130  0.77300  Biso   1.000  H
  H1440    1.0000 0.70450  0.86200  0.74330  Biso   1.000  H
  H1441    1.0000 0.73220  0.82990  0.75780  Biso   1.000  H
  C1140    1.0000 0.41260  0.86820  0.78530  Biso   1.000  C
  H1442    1.0000 0.38860  0.88280  0.77960  Biso   1.000  H
  H1443    1.0000 0.40870  0.85320  0.80940  Biso   1.000  H
  O228     1.0000 0.74580  0.87970  0.77820  Biso   1.000  O
  H1444    1.0000 0.74300  0.89980  0.76400  Biso   1.000  H
  C1141    1.0000 0.03280  0.76880  0.17530  Biso   1.000  C
  C1142    1.0000 0.97120  0.80120  0.14480  Biso   1.000  C
  C1143    1.0000 0.84980  0.85630  0.20520  Biso   1.000  C
  H1445    1.0000 0.85660  0.87170  0.22690  Biso   1.000  H
  C1144    1.0000 0.81160  0.84180  0.20310  Biso   1.000  C
  C1145    1.0000 0.80230  0.81840  0.17260  Biso   1.000  C
  H1446    1.0000 0.77720  0.80740  0.17040  Biso   1.000  H
  C1146    1.0000 0.83040  0.81120  0.14460  Biso   1.000  C
  H1447    1.0000 0.82460  0.79510  0.12310  Biso   1.000  H
  C1147    1.0000 0.86680  0.82750  0.14820  Biso   1.000  C
  H1448    1.0000 0.88550  0.82290  0.12850  Biso   1.000  H
  C1148    1.0000 0.01990  0.87810  0.19940  Biso   1.000  C
  H1449    1.0000 0.01810  0.85060  0.19780  Biso   1.000  H
  C1149    1.0000 0.05400  0.89540  0.21030  Biso   1.000  C
  C1150    1.0000 0.05780  0.93500  0.21130  Biso   1.000  C
  H1450    1.0000 0.08170  0.94670  0.21850  Biso   1.000  H
  C1151    1.0000 0.02790  0.95610  0.20210  Biso   1.000  C
  H1451    1.0000 0.02990  0.98350  0.20290  Biso   1.000  H
  C1152    1.0000 0.99370  0.93930  0.19140  Biso   1.000  C
  H1452    1.0000 0.97270  0.95550  0.18400  Biso   1.000  H
  C1153    1.0000 0.78200  0.85250  0.23440  Biso   1.000  C
  H1453    1.0000 0.77730  0.87980  0.23210  Biso   1.000  H
  H1454    1.0000 0.79210  0.84750  0.25980  Biso   1.000  H
  C1154    1.0000 0.08990  0.87590  0.22570  Biso   1.000  C
  H1455    1.0000 0.10430  0.89380  0.24300  Biso   1.000  H
  H1456    1.0000 0.10720  0.86840  0.20400  Biso   1.000  H
  N305     1.0000 0.05020  0.77970  0.20140  Biso   1.000  N
  N306     1.0000 0.95650  0.82760  0.15750  Biso   1.000  N
  N307     1.0000 0.87670  0.84970  0.17860  Biso   1.000  N
  N308     1.0000 0.98880  0.90070  0.19100  Biso   1.000  N
  O229     1.0000 0.07820  0.84210  0.24670  Biso   1.000  O
  H1457    1.0000 0.07000  0.82200  0.25700  Biso   1.000  H
  O230     1.0000 0.74850  0.83050  0.23250  Biso   1.000  O
  H1458    1.0000 0.73400  0.81130  0.22700  Biso   1.000  H
  H1459    1.0000 0.79550  0.86200  0.25670  Biso   1.000  H
  H1460    1.0000 0.76780  0.82990  0.24220  Biso   1.000  H
  C1155    1.0000 0.08740  0.86820  0.21470  Biso   1.000  C
  H1461    1.0000 0.11140  0.88280  0.22040  Biso   1.000  H
  H1462    1.0000 0.09130  0.85320  0.19060  Biso   1.000  H
  O231     1.0000 0.75420  0.87970  0.22180  Biso   1.000  O
  H1463    1.0000 0.75700  0.89980  0.23600  Biso   1.000  H
  C1156    1.0000 0.53280  0.26880  0.67530  Biso   1.000  C
  C1157    1.0000 0.47120  0.30120  0.64480  Biso   1.000  C
  C1158    1.0000 0.34980  0.35630  0.70520  Biso   1.000  C
  H1464    1.0000 0.35660  0.37170  0.72690  Biso   1.000  H
  C1159    1.0000 0.31160  0.34180  0.70310  Biso   1.000  C
  C1160    1.0000 0.30230  0.31840  0.67260  Biso   1.000  C
  H1465    1.0000 0.27720  0.30740  0.67040  Biso   1.000  H
  C1161    1.0000 0.33040  0.31120  0.64460  Biso   1.000  C
  H1466    1.0000 0.32460  0.29510  0.62310  Biso   1.000  H
  C1162    1.0000 0.36680  0.32750  0.64820  Biso   1.000  C
  H1467    1.0000 0.38550  0.32290  0.62850  Biso   1.000  H
  C1163    1.0000 0.51990  0.37810  0.69940  Biso   1.000  C
  H1468    1.0000 0.51810  0.35060  0.69780  Biso   1.000  H
  C1164    1.0000 0.55400  0.39540  0.71030  Biso   1.000  C
  C1165    1.0000 0.55780  0.43500  0.71130  Biso   1.000  C
  H1469    1.0000 0.58170  0.44670  0.71850  Biso   1.000  H
  C1166    1.0000 0.52790  0.45610  0.70210  Biso   1.000  C
  H1470    1.0000 0.52990  0.48350  0.70290  Biso   1.000  H
  C1167    1.0000 0.49370  0.43930  0.69140  Biso   1.000  C
  H1471    1.0000 0.47270  0.45550  0.68400  Biso   1.000  H
  C1168    1.0000 0.28200  0.35250  0.73440  Biso   1.000  C
  H1472    1.0000 0.27730  0.37980  0.73210  Biso   1.000  H
  H1473    1.0000 0.29210  0.34750  0.75980  Biso   1.000  H
  C1169    1.0000 0.58990  0.37590  0.72570  Biso   1.000  C
  H1474    1.0000 0.60430  0.39380  0.74300  Biso   1.000  H
  H1475    1.0000 0.60720  0.36840  0.70400  Biso   1.000  H
  N309     1.0000 0.55020  0.27970  0.70140  Biso   1.000  N
  N310     1.0000 0.45650  0.32760  0.65750  Biso   1.000  N
  N311     1.0000 0.37670  0.34970  0.67860  Biso   1.000  N
  N312     1.0000 0.48880  0.40070  0.69100  Biso   1.000  N
  O232     1.0000 0.57820  0.34210  0.74670  Biso   1.000  O
  H1476    1.0000 0.57000  0.32200  0.75700  Biso   1.000  H
  O233     1.0000 0.24850  0.33050  0.73250  Biso   1.000  O
  H1477    1.0000 0.23400  0.31130  0.72700  Biso   1.000  H
  H1478    1.0000 0.29550  0.36200  0.75670  Biso   1.000  H
  H1479    1.0000 0.26780  0.32990  0.74220  Biso   1.000  H
  C1170    1.0000 0.58740  0.36820  0.71470  Biso   1.000  C
  H1480    1.0000 0.61140  0.38280  0.72040  Biso   1.000  H
  H1481    1.0000 0.59130  0.35320  0.69060  Biso   1.000  H
  O234     1.0000 0.25420  0.37970  0.72180  Biso   1.000  O
  H1482    1.0000 0.25700  0.39980  0.73600  Biso   1.000  H
  C1171    1.0000 0.46720  0.23120  0.67530  Biso   1.000  C
  C1172    1.0000 0.52880  0.19880  0.64480  Biso   1.000  C
  C1173    1.0000 0.65020  0.14370  0.70520  Biso   1.000  C
  H1483    1.0000 0.64340  0.12830  0.72690  Biso   1.000  H
  C1174    1.0000 0.68840  0.15820  0.70310  Biso   1.000  C
  C1175    1.0000 0.69770  0.18160  0.67260  Biso   1.000  C
  H1484    1.0000 0.72280  0.19260  0.67040  Biso   1.000  H
  C1176    1.0000 0.66960  0.18880  0.64460  Biso   1.000  C
  H1485    1.0000 0.67540  0.20490  0.62310  Biso   1.000  H
  C1177    1.0000 0.63320  0.17250  0.64820  Biso   1.000  C
  H1486    1.0000 0.61450  0.17710  0.62850  Biso   1.000  H
  C1178    1.0000 0.48010  0.12190  0.69940  Biso   1.000  C
  H1487    1.0000 0.48190  0.14940  0.69780  Biso   1.000  H
  C1179    1.0000 0.44600  0.10460  0.71030  Biso   1.000  C
  C1180    1.0000 0.44220  0.06500  0.71130  Biso   1.000  C
  H1488    1.0000 0.41830  0.05330  0.71850  Biso   1.000  H
  C1181    1.0000 0.47210  0.04390  0.70210  Biso   1.000  C
  H1489    1.0000 0.47010  0.01650  0.70290  Biso   1.000  H
  C1182    1.0000 0.50630  0.06070  0.69140  Biso   1.000  C
  H1490    1.0000 0.52730  0.04450  0.68400  Biso   1.000  H
  C1183    1.0000 0.71800  0.14750  0.73440  Biso   1.000  C
  H1491    1.0000 0.72270  0.12020  0.73210  Biso   1.000  H
  H1492    1.0000 0.70790  0.15250  0.75980  Biso   1.000  H
  C1184    1.0000 0.41010  0.12410  0.72570  Biso   1.000  C
  H1493    1.0000 0.39570  0.10620  0.74300  Biso   1.000  H
  H1494    1.0000 0.39280  0.13160  0.70400  Biso   1.000  H
  N313     1.0000 0.44980  0.22030  0.70140  Biso   1.000  N
  N314     1.0000 0.54350  0.17240  0.65750  Biso   1.000  N
  N315     1.0000 0.62330  0.15030  0.67860  Biso   1.000  N
  N316     1.0000 0.51120  0.09930  0.69100  Biso   1.000  N
  O235     1.0000 0.42180  0.15790  0.74670  Biso   1.000  O
  H1495    1.0000 0.43000  0.17800  0.75700  Biso   1.000  H
  O236     1.0000 0.75150  0.16950  0.73250  Biso   1.000  O
  H1496    1.0000 0.76600  0.18870  0.72700  Biso   1.000  H
  H1497    1.0000 0.70450  0.13800  0.75670  Biso   1.000  H
  H1498    1.0000 0.73220  0.17010  0.74220  Biso   1.000  H
  C1185    1.0000 0.41260  0.13180  0.71470  Biso   1.000  C
  H1499    1.0000 0.38860  0.11720  0.72040  Biso   1.000  H
  H1500    1.0000 0.40870  0.14680  0.69060  Biso   1.000  H
  O237     1.0000 0.74580  0.12030  0.72180  Biso   1.000  O
  H1501    1.0000 0.74300  0.10020  0.73600  Biso   1.000  H
  C1186    1.0000 0.96720  0.73120  0.17530  Biso   1.000  C
  C1187    1.0000 0.02880  0.69880  0.14480  Biso   1.000  C
  C1188    1.0000 0.15020  0.64370  0.20520  Biso   1.000  C
  H1502    1.0000 0.14340  0.62830  0.22690  Biso   1.000  H
  C1189    1.0000 0.18840  0.65820  0.20310  Biso   1.000  C
  C1190    1.0000 0.19770  0.68160  0.17260  Biso   1.000  C
  H1503    1.0000 0.22280  0.69260  0.17040  Biso   1.000  H
  C1191    1.0000 0.16960  0.68880  0.14460  Biso   1.000  C
  H1504    1.0000 0.17540  0.70490  0.12310  Biso   1.000  H
  C1192    1.0000 0.13320  0.67250  0.14820  Biso   1.000  C
  H1505    1.0000 0.11450  0.67710  0.12850  Biso   1.000  H
  C1193    1.0000 0.98010  0.62190  0.19940  Biso   1.000  C
  H1506    1.0000 0.98190  0.64940  0.19780  Biso   1.000  H
  C1194    1.0000 0.94600  0.60460  0.21030  Biso   1.000  C
  C1195    1.0000 0.94220  0.56500  0.21130  Biso   1.000  C
  H1507    1.0000 0.91830  0.55330  0.21850  Biso   1.000  H
  C1196    1.0000 0.97210  0.54390  0.20210  Biso   1.000  C
  H1508    1.0000 0.97010  0.51650  0.20290  Biso   1.000  H
  C1197    1.0000 0.00630  0.56070  0.19140  Biso   1.000  C
  H1509    1.0000 0.02730  0.54450  0.18400  Biso   1.000  H
  C1198    1.0000 0.21800  0.64750  0.23440  Biso   1.000  C
  H1510    1.0000 0.22270  0.62020  0.23210  Biso   1.000  H
  H1511    1.0000 0.20790  0.65250  0.25980  Biso   1.000  H
  C1199    1.0000 0.91010  0.62410  0.22570  Biso   1.000  C
  H1512    1.0000 0.89570  0.60620  0.24300  Biso   1.000  H
  H1513    1.0000 0.89280  0.63160  0.20400  Biso   1.000  H
  N317     1.0000 0.94980  0.72030  0.20140  Biso   1.000  N
  N318     1.0000 0.04350  0.67240  0.15750  Biso   1.000  N
  N319     1.0000 0.12330  0.65030  0.17860  Biso   1.000  N
  N320     1.0000 0.01120  0.59930  0.19100  Biso   1.000  N
  O238     1.0000 0.92180  0.65790  0.24670  Biso   1.000  O
  H1514    1.0000 0.93000  0.67800  0.25700  Biso   1.000  H
  O239     1.0000 0.25150  0.66950  0.23250  Biso   1.000  O
  H1515    1.0000 0.26600  0.68870  0.22700  Biso   1.000  H
  H1516    1.0000 0.20450  0.63800  0.25670  Biso   1.000  H
  H1517    1.0000 0.23220  0.67010  0.24220  Biso   1.000  H
  C1200    1.0000 0.91260  0.63180  0.21470  Biso   1.000  C
  H1518    1.0000 0.88860  0.61720  0.22040  Biso   1.000  H
  H1519    1.0000 0.90870  0.64680  0.19060  Biso   1.000  H
  O240     1.0000 0.24580  0.62030  0.22180  Biso   1.000  O
  H1520    1.0000 0.24300  0.60020  0.23600  Biso   1.000  H
  C1201    1.0000 0.23120  0.67530  0.46720  Biso   1.000  C
  C1202    1.0000 0.19880  0.64480  0.52880  Biso   1.000  C
  C1203    1.0000 0.14370  0.70520  0.65020  Biso   1.000  C
  H1521    1.0000 0.12830  0.72690  0.64340  Biso   1.000  H
  C1204    1.0000 0.15820  0.70310  0.68840  Biso   1.000  C
  C1205    1.0000 0.18160  0.67260  0.69770  Biso   1.000  C
  H1522    1.0000 0.19260  0.67040  0.72280  Biso   1.000  H
  C1206    1.0000 0.18880  0.64460  0.66960  Biso   1.000  C
  H1523    1.0000 0.20490  0.62310  0.67540  Biso   1.000  H
  C1207    1.0000 0.17250  0.64820  0.63320  Biso   1.000  C
  H1524    1.0000 0.17710  0.62850  0.61450  Biso   1.000  H
  C1208    1.0000 0.12190  0.69940  0.48010  Biso   1.000  C
  H1525    1.0000 0.14940  0.69780  0.48190  Biso   1.000  H
  C1209    1.0000 0.10460  0.71030  0.44600  Biso   1.000  C
  C1210    1.0000 0.06500  0.71130  0.44220  Biso   1.000  C
  H1526    1.0000 0.05330  0.71850  0.41830  Biso   1.000  H
  C1211    1.0000 0.04390  0.70210  0.47210  Biso   1.000  C
  H1527    1.0000 0.01650  0.70290  0.47010  Biso   1.000  H
  C1212    1.0000 0.06070  0.69140  0.50630  Biso   1.000  C
  H1528    1.0000 0.04450  0.68400  0.52730  Biso   1.000  H
  C1213    1.0000 0.14750  0.73440  0.71800  Biso   1.000  C
  H1529    1.0000 0.12020  0.73210  0.72270  Biso   1.000  H
  H1530    1.0000 0.15250  0.75980  0.70790  Biso   1.000  H
  C1214    1.0000 0.12410  0.72570  0.41010  Biso   1.000  C
  H1531    1.0000 0.10620  0.74300  0.39570  Biso   1.000  H
  H1532    1.0000 0.13160  0.70400  0.39280  Biso   1.000  H
  N321     1.0000 0.22030  0.70140  0.44980  Biso   1.000  N
  N322     1.0000 0.17240  0.65750  0.54350  Biso   1.000  N
  N323     1.0000 0.15030  0.67860  0.62330  Biso   1.000  N
  N324     1.0000 0.09930  0.69100  0.51120  Biso   1.000  N
  O241     1.0000 0.15790  0.74670  0.42180  Biso   1.000  O
  H1533    1.0000 0.17800  0.75700  0.43000  Biso   1.000  H
  O242     1.0000 0.16950  0.73250  0.75150  Biso   1.000  O
  H1534    1.0000 0.18870  0.72700  0.76600  Biso   1.000  H
  H1535    1.0000 0.13800  0.75670  0.70450  Biso   1.000  H
  H1536    1.0000 0.17010  0.74220  0.73220  Biso   1.000  H
  C1215    1.0000 0.13180  0.71470  0.41260  Biso   1.000  C
  H1537    1.0000 0.11720  0.72040  0.38860  Biso   1.000  H
  H1538    1.0000 0.14680  0.69060  0.40870  Biso   1.000  H
  O243     1.0000 0.12030  0.72180  0.74580  Biso   1.000  O
  H1539    1.0000 0.10020  0.73600  0.74300  Biso   1.000  H
  C1216    1.0000 0.73120  0.17530  0.96720  Biso   1.000  C
  C1217    1.0000 0.69880  0.14480  0.02880  Biso   1.000  C
  C1218    1.0000 0.64370  0.20520  0.15020  Biso   1.000  C
  H1540    1.0000 0.62830  0.22690  0.14340  Biso   1.000  H
  C1219    1.0000 0.65820  0.20310  0.18840  Biso   1.000  C
  C1220    1.0000 0.68160  0.17260  0.19770  Biso   1.000  C
  H1541    1.0000 0.69260  0.17040  0.22280  Biso   1.000  H
  C1221    1.0000 0.68880  0.14460  0.16960  Biso   1.000  C
  H1542    1.0000 0.70490  0.12310  0.17540  Biso   1.000  H
  C1222    1.0000 0.67250  0.14820  0.13320  Biso   1.000  C
  H1543    1.0000 0.67710  0.12850  0.11450  Biso   1.000  H
  C1223    1.0000 0.62190  0.19940  0.98010  Biso   1.000  C
  H1544    1.0000 0.64940  0.19780  0.98190  Biso   1.000  H
  C1224    1.0000 0.60460  0.21030  0.94600  Biso   1.000  C
  C1225    1.0000 0.56500  0.21130  0.94220  Biso   1.000  C
  H1545    1.0000 0.55330  0.21850  0.91830  Biso   1.000  H
  C1226    1.0000 0.54390  0.20210  0.97210  Biso   1.000  C
  H1546    1.0000 0.51650  0.20290  0.97010  Biso   1.000  H
  C1227    1.0000 0.56070  0.19140  0.00630  Biso   1.000  C
  H1547    1.0000 0.54450  0.18400  0.02730  Biso   1.000  H
  C1228    1.0000 0.64750  0.23440  0.21800  Biso   1.000  C
  H1548    1.0000 0.62020  0.23210  0.22270  Biso   1.000  H
  H1549    1.0000 0.65250  0.25980  0.20790  Biso   1.000  H
  C1229    1.0000 0.62410  0.22570  0.91010  Biso   1.000  C
  H1550    1.0000 0.60620  0.24300  0.89570  Biso   1.000  H
  H1551    1.0000 0.63160  0.20400  0.89280  Biso   1.000  H
  N325     1.0000 0.72030  0.20140  0.94980  Biso   1.000  N
  N326     1.0000 0.67240  0.15750  0.04350  Biso   1.000  N
  N327     1.0000 0.65030  0.17860  0.12330  Biso   1.000  N
  N328     1.0000 0.59930  0.19100  0.01120  Biso   1.000  N
  O244     1.0000 0.65790  0.24670  0.92180  Biso   1.000  O
  H1552    1.0000 0.67800  0.25700  0.93000  Biso   1.000  H
  O245     1.0000 0.66950  0.23250  0.25150  Biso   1.000  O
  H1553    1.0000 0.68870  0.22700  0.26600  Biso   1.000  H
  H1554    1.0000 0.63800  0.25670  0.20450  Biso   1.000  H
  H1555    1.0000 0.67010  0.24220  0.23220  Biso   1.000  H
  C1230    1.0000 0.63180  0.21470  0.91260  Biso   1.000  C
  H1556    1.0000 0.61720  0.22040  0.88860  Biso   1.000  H
  H1557    1.0000 0.64680  0.19060  0.90870  Biso   1.000  H
  O246     1.0000 0.62030  0.22180  0.24580  Biso   1.000  O
  H1558    1.0000 0.60020  0.23600  0.24300  Biso   1.000  H
  C1231    1.0000 0.76880  0.17530  0.03280  Biso   1.000  C
  C1232    1.0000 0.80120  0.14480  0.97120  Biso   1.000  C
  C1233    1.0000 0.85630  0.20520  0.84980  Biso   1.000  C
  H1559    1.0000 0.87170  0.22690  0.85660  Biso   1.000  H
  C1234    1.0000 0.84180  0.20310  0.81160  Biso   1.000  C
  C1235    1.0000 0.81840  0.17260  0.80230  Biso   1.000  C
  H1560    1.0000 0.80740  0.17040  0.77720  Biso   1.000  H
  C1236    1.0000 0.81120  0.14460  0.83040  Biso   1.000  C
  H1561    1.0000 0.79510  0.12310  0.82460  Biso   1.000  H
  C1237    1.0000 0.82750  0.14820  0.86680  Biso   1.000  C
  H1562    1.0000 0.82290  0.12850  0.88550  Biso   1.000  H
  C1238    1.0000 0.87810  0.19940  0.01990  Biso   1.000  C
  H1563    1.0000 0.85060  0.19780  0.01810  Biso   1.000  H
  C1239    1.0000 0.89540  0.21030  0.05400  Biso   1.000  C
  C1240    1.0000 0.93500  0.21130  0.05780  Biso   1.000  C
  H1564    1.0000 0.94670  0.21850  0.08170  Biso   1.000  H
  C1241    1.0000 0.95610  0.20210  0.02790  Biso   1.000  C
  H1565    1.0000 0.98350  0.20290  0.02990  Biso   1.000  H
  C1242    1.0000 0.93930  0.19140  0.99370  Biso   1.000  C
  H1566    1.0000 0.95550  0.18400  0.97270  Biso   1.000  H
  C1243    1.0000 0.85250  0.23440  0.78200  Biso   1.000  C
  H1567    1.0000 0.87980  0.23210  0.77730  Biso   1.000  H
  H1568    1.0000 0.84750  0.25980  0.79210  Biso   1.000  H
  C1244    1.0000 0.87590  0.22570  0.08990  Biso   1.000  C
  H1569    1.0000 0.89380  0.24300  0.10430  Biso   1.000  H
  H1570    1.0000 0.86840  0.20400  0.10720  Biso   1.000  H
  N329     1.0000 0.77970  0.20140  0.05020  Biso   1.000  N
  N330     1.0000 0.82760  0.15750  0.95650  Biso   1.000  N
  N331     1.0000 0.84970  0.17860  0.87670  Biso   1.000  N
  N332     1.0000 0.90070  0.19100  0.98880  Biso   1.000  N
  O247     1.0000 0.84210  0.24670  0.07820  Biso   1.000  O
  H1571    1.0000 0.82200  0.25700  0.07000  Biso   1.000  H
  O248     1.0000 0.83050  0.23250  0.74850  Biso   1.000  O
  H1572    1.0000 0.81130  0.22700  0.73400  Biso   1.000  H
  H1573    1.0000 0.86200  0.25670  0.79550  Biso   1.000  H
  H1574    1.0000 0.82990  0.24220  0.76780  Biso   1.000  H
  C1245    1.0000 0.86820  0.21470  0.08740  Biso   1.000  C
  H1575    1.0000 0.88280  0.22040  0.11140  Biso   1.000  H
  H1576    1.0000 0.85320  0.19060  0.09130  Biso   1.000  H
  O249     1.0000 0.87970  0.22180  0.75420  Biso   1.000  O
  H1577    1.0000 0.89980  0.23600  0.75700  Biso   1.000  H
  C1246    1.0000 0.26880  0.67530  0.53280  Biso   1.000  C
  C1247    1.0000 0.30120  0.64480  0.47120  Biso   1.000  C
  C1248    1.0000 0.35630  0.70520  0.34980  Biso   1.000  C
  H1578    1.0000 0.37170  0.72690  0.35660  Biso   1.000  H
  C1249    1.0000 0.34180  0.70310  0.31160  Biso   1.000  C
  C1250    1.0000 0.31840  0.67260  0.30230  Biso   1.000  C
  H1579    1.0000 0.30740  0.67040  0.27720  Biso   1.000  H
  C1251    1.0000 0.31120  0.64460  0.33040  Biso   1.000  C
  H1580    1.0000 0.29510  0.62310  0.32460  Biso   1.000  H
  C1252    1.0000 0.32750  0.64820  0.36680  Biso   1.000  C
  H1581    1.0000 0.32290  0.62850  0.38550  Biso   1.000  H
  C1253    1.0000 0.37810  0.69940  0.51990  Biso   1.000  C
  H1582    1.0000 0.35060  0.69780  0.51810  Biso   1.000  H
  C1254    1.0000 0.39540  0.71030  0.55400  Biso   1.000  C
  C1255    1.0000 0.43500  0.71130  0.55780  Biso   1.000  C
  H1583    1.0000 0.44670  0.71850  0.58170  Biso   1.000  H
  C1256    1.0000 0.45610  0.70210  0.52790  Biso   1.000  C
  H1584    1.0000 0.48350  0.70290  0.52990  Biso   1.000  H
  C1257    1.0000 0.43930  0.69140  0.49370  Biso   1.000  C
  H1585    1.0000 0.45550  0.68400  0.47270  Biso   1.000  H
  C1258    1.0000 0.35250  0.73440  0.28200  Biso   1.000  C
  H1586    1.0000 0.37980  0.73210  0.27730  Biso   1.000  H
  H1587    1.0000 0.34750  0.75980  0.29210  Biso   1.000  H
  C1259    1.0000 0.37590  0.72570  0.58990  Biso   1.000  C
  H1588    1.0000 0.39380  0.74300  0.60430  Biso   1.000  H
  H1589    1.0000 0.36840  0.70400  0.60720  Biso   1.000  H
  N333     1.0000 0.27970  0.70140  0.55020  Biso   1.000  N
  N334     1.0000 0.32760  0.65750  0.45650  Biso   1.000  N
  N335     1.0000 0.34970  0.67860  0.37670  Biso   1.000  N
  N336     1.0000 0.40070  0.69100  0.48880  Biso   1.000  N
  O250     1.0000 0.34210  0.74670  0.57820  Biso   1.000  O
  H1590    1.0000 0.32200  0.75700  0.57000  Biso   1.000  H
  O251     1.0000 0.33050  0.73250  0.24850  Biso   1.000  O
  H1591    1.0000 0.31130  0.72700  0.23400  Biso   1.000  H
  H1592    1.0000 0.36200  0.75670  0.29550  Biso   1.000  H
  H1593    1.0000 0.32990  0.74220  0.26780  Biso   1.000  H
  C1260    1.0000 0.36820  0.71470  0.58740  Biso   1.000  C
  H1594    1.0000 0.38280  0.72040  0.61140  Biso   1.000  H
  H1595    1.0000 0.35320  0.69060  0.59130  Biso   1.000  H
  O252     1.0000 0.37970  0.72180  0.25420  Biso   1.000  O
  H1596    1.0000 0.39980  0.73600  0.25700  Biso   1.000  H
  C1261    1.0000 0.26880  0.32470  0.96720  Biso   1.000  C
  C1262    1.0000 0.30120  0.35520  0.02880  Biso   1.000  C
  C1263    1.0000 0.35630  0.29480  0.15020  Biso   1.000  C
  H1597    1.0000 0.37170  0.27310  0.14340  Biso   1.000  H
  C1264    1.0000 0.34180  0.29690  0.18840  Biso   1.000  C
  C1265    1.0000 0.31840  0.32740  0.19770  Biso   1.000  C
  H1598    1.0000 0.30740  0.32960  0.22280  Biso   1.000  H
  C1266    1.0000 0.31120  0.35540  0.16960  Biso   1.000  C
  H1599    1.0000 0.29510  0.37690  0.17540  Biso   1.000  H
  C1267    1.0000 0.32750  0.35180  0.13320  Biso   1.000  C
  H1600    1.0000 0.32290  0.37150  0.11450  Biso   1.000  H
  C1268    1.0000 0.37810  0.30060  0.98010  Biso   1.000  C
  H1601    1.0000 0.35060  0.30220  0.98190  Biso   1.000  H
  C1269    1.0000 0.39540  0.28970  0.94600  Biso   1.000  C
  C1270    1.0000 0.43500  0.28870  0.94220  Biso   1.000  C
  H1602    1.0000 0.44670  0.28150  0.91830  Biso   1.000  H
  C1271    1.0000 0.45610  0.29790  0.97210  Biso   1.000  C
  H1603    1.0000 0.48350  0.29710  0.97010  Biso   1.000  H
  C1272    1.0000 0.43930  0.30860  0.00630  Biso   1.000  C
  H1604    1.0000 0.45550  0.31600  0.02730  Biso   1.000  H
  C1273    1.0000 0.35250  0.26560  0.21800  Biso   1.000  C
  H1605    1.0000 0.37980  0.26790  0.22270  Biso   1.000  H
  H1606    1.0000 0.34750  0.24020  0.20790  Biso   1.000  H
  C1274    1.0000 0.37590  0.27430  0.91010  Biso   1.000  C
  H1607    1.0000 0.39380  0.25700  0.89570  Biso   1.000  H
  H1608    1.0000 0.36840  0.29600  0.89280  Biso   1.000  H
  N337     1.0000 0.27970  0.29860  0.94980  Biso   1.000  N
  N338     1.0000 0.32760  0.34250  0.04350  Biso   1.000  N
  N339     1.0000 0.34970  0.32140  0.12330  Biso   1.000  N
  N340     1.0000 0.40070  0.30900  0.01120  Biso   1.000  N
  O253     1.0000 0.34210  0.25330  0.92180  Biso   1.000  O
  H1609    1.0000 0.32200  0.24300  0.93000  Biso   1.000  H
  O254     1.0000 0.33050  0.26750  0.25150  Biso   1.000  O
  H1610    1.0000 0.31130  0.27300  0.26600  Biso   1.000  H
  H1611    1.0000 0.36200  0.24330  0.20450  Biso   1.000  H
  H1612    1.0000 0.32990  0.25780  0.23220  Biso   1.000  H
  C1275    1.0000 0.36820  0.28530  0.91260  Biso   1.000  C
  H1613    1.0000 0.38280  0.27960  0.88860  Biso   1.000  H
  H1614    1.0000 0.35320  0.30940  0.90870  Biso   1.000  H
  O255     1.0000 0.37970  0.27820  0.24580  Biso   1.000  O
  H1615    1.0000 0.39980  0.26400  0.24300  Biso   1.000  H
  C1276    1.0000 0.76880  0.82470  0.46720  Biso   1.000  C
  C1277    1.0000 0.80120  0.85520  0.52880  Biso   1.000  C
  C1278    1.0000 0.85630  0.79480  0.65020  Biso   1.000  C
  H1616    1.0000 0.87170  0.77310  0.64340  Biso   1.000  H
  C1279    1.0000 0.84180  0.79690  0.68840  Biso   1.000  C
  C1280    1.0000 0.81840  0.82740  0.69770  Biso   1.000  C
  H1617    1.0000 0.80740  0.82960  0.72280  Biso   1.000  H
  C1281    1.0000 0.81120  0.85540  0.66960  Biso   1.000  C
  H1618    1.0000 0.79510  0.87690  0.67540  Biso   1.000  H
  C1282    1.0000 0.82750  0.85180  0.63320  Biso   1.000  C
  H1619    1.0000 0.82290  0.87150  0.61450  Biso   1.000  H
  C1283    1.0000 0.87810  0.80060  0.48010  Biso   1.000  C
  H1620    1.0000 0.85060  0.80220  0.48190  Biso   1.000  H
  C1284    1.0000 0.89540  0.78970  0.44600  Biso   1.000  C
  C1285    1.0000 0.93500  0.78870  0.44220  Biso   1.000  C
  H1621    1.0000 0.94670  0.78150  0.41830  Biso   1.000  H
  C1286    1.0000 0.95610  0.79790  0.47210  Biso   1.000  C
  H1622    1.0000 0.98350  0.79710  0.47010  Biso   1.000  H
  C1287    1.0000 0.93930  0.80860  0.50630  Biso   1.000  C
  H1623    1.0000 0.95550  0.81600  0.52730  Biso   1.000  H
  C1288    1.0000 0.85250  0.76560  0.71800  Biso   1.000  C
  H1624    1.0000 0.87980  0.76790  0.72270  Biso   1.000  H
  H1625    1.0000 0.84750  0.74020  0.70790  Biso   1.000  H
  C1289    1.0000 0.87590  0.77430  0.41010  Biso   1.000  C
  H1626    1.0000 0.89380  0.75700  0.39570  Biso   1.000  H
  H1627    1.0000 0.86840  0.79600  0.39280  Biso   1.000  H
  N341     1.0000 0.77970  0.79860  0.44980  Biso   1.000  N
  N342     1.0000 0.82760  0.84250  0.54350  Biso   1.000  N
  N343     1.0000 0.84970  0.82140  0.62330  Biso   1.000  N
  N344     1.0000 0.90070  0.80900  0.51120  Biso   1.000  N
  O256     1.0000 0.84210  0.75330  0.42180  Biso   1.000  O
  H1628    1.0000 0.82200  0.74300  0.43000  Biso   1.000  H
  O257     1.0000 0.83050  0.76750  0.75150  Biso   1.000  O
  H1629    1.0000 0.81130  0.77300  0.76600  Biso   1.000  H
  H1630    1.0000 0.86200  0.74330  0.70450  Biso   1.000  H
  H1631    1.0000 0.82990  0.75780  0.73220  Biso   1.000  H
  C1290    1.0000 0.86820  0.78530  0.41260  Biso   1.000  C
  H1632    1.0000 0.88280  0.77960  0.38860  Biso   1.000  H
  H1633    1.0000 0.85320  0.80940  0.40870  Biso   1.000  H
  O258     1.0000 0.87970  0.77820  0.74580  Biso   1.000  O
  H1634    1.0000 0.89980  0.76400  0.74300  Biso   1.000  H
  C1291    1.0000 0.73120  0.82470  0.53280  Biso   1.000  C
  C1292    1.0000 0.69880  0.85520  0.47120  Biso   1.000  C
  C1293    1.0000 0.64370  0.79480  0.34980  Biso   1.000  C
  H1635    1.0000 0.62830  0.77310  0.35660  Biso   1.000  H
  C1294    1.0000 0.65820  0.79690  0.31160  Biso   1.000  C
  C1295    1.0000 0.68160  0.82740  0.30230  Biso   1.000  C
  H1636    1.0000 0.69260  0.82960  0.27720  Biso   1.000  H
  C1296    1.0000 0.68880  0.85540  0.33040  Biso   1.000  C
  H1637    1.0000 0.70490  0.87690  0.32460  Biso   1.000  H
  C1297    1.0000 0.67250  0.85180  0.36680  Biso   1.000  C
  H1638    1.0000 0.67710  0.87150  0.38550  Biso   1.000  H
  C1298    1.0000 0.62190  0.80060  0.51990  Biso   1.000  C
  H1639    1.0000 0.64940  0.80220  0.51810  Biso   1.000  H
  C1299    1.0000 0.60460  0.78970  0.55400  Biso   1.000  C
  C1300    1.0000 0.56500  0.78870  0.55780  Biso   1.000  C
  H1640    1.0000 0.55330  0.78150  0.58170  Biso   1.000  H
  C1301    1.0000 0.54390  0.79790  0.52790  Biso   1.000  C
  H1641    1.0000 0.51650  0.79710  0.52990  Biso   1.000  H
  C1302    1.0000 0.56070  0.80860  0.49370  Biso   1.000  C
  H1642    1.0000 0.54450  0.81600  0.47270  Biso   1.000  H
  C1303    1.0000 0.64750  0.76560  0.28200  Biso   1.000  C
  H1643    1.0000 0.62020  0.76790  0.27730  Biso   1.000  H
  H1644    1.0000 0.65250  0.74020  0.29210  Biso   1.000  H
  C1304    1.0000 0.62410  0.77430  0.58990  Biso   1.000  C
  H1645    1.0000 0.60620  0.75700  0.60430  Biso   1.000  H
  H1646    1.0000 0.63160  0.79600  0.60720  Biso   1.000  H
  N345     1.0000 0.72030  0.79860  0.55020  Biso   1.000  N
  N346     1.0000 0.67240  0.84250  0.45650  Biso   1.000  N
  N347     1.0000 0.65030  0.82140  0.37670  Biso   1.000  N
  N348     1.0000 0.59930  0.80900  0.48880  Biso   1.000  N
  O259     1.0000 0.65790  0.75330  0.57820  Biso   1.000  O
  H1647    1.0000 0.67800  0.74300  0.57000  Biso   1.000  H
  O260     1.0000 0.66950  0.76750  0.24850  Biso   1.000  O
  H1648    1.0000 0.68870  0.77300  0.23400  Biso   1.000  H
  H1649    1.0000 0.63800  0.74330  0.29550  Biso   1.000  H
  H1650    1.0000 0.67010  0.75780  0.26780  Biso   1.000  H
  C1305    1.0000 0.63180  0.78530  0.58740  Biso   1.000  C
  H1651    1.0000 0.61720  0.77960  0.61140  Biso   1.000  H
  H1652    1.0000 0.64680  0.80940  0.59130  Biso   1.000  H
  O261     1.0000 0.62030  0.77820  0.25420  Biso   1.000  O
  H1653    1.0000 0.60020  0.76400  0.25700  Biso   1.000  H
  C1306    1.0000 0.23120  0.32470  0.03280  Biso   1.000  C
  C1307    1.0000 0.19880  0.35520  0.97120  Biso   1.000  C
  C1308    1.0000 0.14370  0.29480  0.84980  Biso   1.000  C
  H1654    1.0000 0.12830  0.27310  0.85660  Biso   1.000  H
  C1309    1.0000 0.15820  0.29690  0.81160  Biso   1.000  C
  C1310    1.0000 0.18160  0.32740  0.80230  Biso   1.000  C
  H1655    1.0000 0.19260  0.32960  0.77720  Biso   1.000  H
  C1311    1.0000 0.18880  0.35540  0.83040  Biso   1.000  C
  H1656    1.0000 0.20490  0.37690  0.82460  Biso   1.000  H
  C1312    1.0000 0.17250  0.35180  0.86680  Biso   1.000  C
  H1657    1.0000 0.17710  0.37150  0.88550  Biso   1.000  H
  C1313    1.0000 0.12190  0.30060  0.01990  Biso   1.000  C
  H1658    1.0000 0.14940  0.30220  0.01810  Biso   1.000  H
  C1314    1.0000 0.10460  0.28970  0.05400  Biso   1.000  C
  C1315    1.0000 0.06500  0.28870  0.05780  Biso   1.000  C
  H1659    1.0000 0.05330  0.28150  0.08170  Biso   1.000  H
  C1316    1.0000 0.04390  0.29790  0.02790  Biso   1.000  C
  H1660    1.0000 0.01650  0.29710  0.02990  Biso   1.000  H
  C1317    1.0000 0.06070  0.30860  0.99370  Biso   1.000  C
  H1661    1.0000 0.04450  0.31600  0.97270  Biso   1.000  H
  C1318    1.0000 0.14750  0.26560  0.78200  Biso   1.000  C
  H1662    1.0000 0.12020  0.26790  0.77730  Biso   1.000  H
  H1663    1.0000 0.15250  0.24020  0.79210  Biso   1.000  H
  C1319    1.0000 0.12410  0.27430  0.08990  Biso   1.000  C
  H1664    1.0000 0.10620  0.25700  0.10430  Biso   1.000  H
  H1665    1.0000 0.13160  0.29600  0.10720  Biso   1.000  H
  N349     1.0000 0.22030  0.29860  0.05020  Biso   1.000  N
  N350     1.0000 0.17240  0.34250  0.95650  Biso   1.000  N
  N351     1.0000 0.15030  0.32140  0.87670  Biso   1.000  N
  N352     1.0000 0.09930  0.30900  0.98880  Biso   1.000  N
  O262     1.0000 0.15790  0.25330  0.07820  Biso   1.000  O
  H1666    1.0000 0.17800  0.24300  0.07000  Biso   1.000  H
  O263     1.0000 0.16950  0.26750  0.74850  Biso   1.000  O
  H1667    1.0000 0.18870  0.27300  0.73400  Biso   1.000  H
  H1668    1.0000 0.13800  0.24330  0.79550  Biso   1.000  H
  H1669    1.0000 0.17010  0.25780  0.76780  Biso   1.000  H
  C1320    1.0000 0.13180  0.28530  0.08740  Biso   1.000  C
  H1670    1.0000 0.11720  0.27960  0.11140  Biso   1.000  H
  H1671    1.0000 0.14680  0.30940  0.09130  Biso   1.000  H
  O264     1.0000 0.12030  0.27820  0.75420  Biso   1.000  O
  H1672    1.0000 0.10020  0.26400  0.75700  Biso   1.000  H
  C1321    1.0000 0.17530  0.03280  0.76880  Biso   1.000  C
  C1322    1.0000 0.14480  0.97120  0.80120  Biso   1.000  C
  C1323    1.0000 0.20520  0.84980  0.85630  Biso   1.000  C
  H1673    1.0000 0.22690  0.85660  0.87170  Biso   1.000  H
  C1324    1.0000 0.20310  0.81160  0.84180  Biso   1.000  C
  C1325    1.0000 0.17260  0.80230  0.81840  Biso   1.000  C
  H1674    1.0000 0.17040  0.77720  0.80740  Biso   1.000  H
  C1326    1.0000 0.14460  0.83040  0.81120  Biso   1.000  C
  H1675    1.0000 0.12310  0.82460  0.79510  Biso   1.000  H
  C1327    1.0000 0.14820  0.86680  0.82750  Biso   1.000  C
  H1676    1.0000 0.12850  0.88550  0.82290  Biso   1.000  H
  C1328    1.0000 0.19940  0.01990  0.87810  Biso   1.000  C
  H1677    1.0000 0.19780  0.01810  0.85060  Biso   1.000  H
  C1329    1.0000 0.21030  0.05400  0.89540  Biso   1.000  C
  C1330    1.0000 0.21130  0.05780  0.93500  Biso   1.000  C
  H1678    1.0000 0.21850  0.08170  0.94670  Biso   1.000  H
  C1331    1.0000 0.20210  0.02790  0.95610  Biso   1.000  C
  H1679    1.0000 0.20290  0.02990  0.98350  Biso   1.000  H
  C1332    1.0000 0.19140  0.99370  0.93930  Biso   1.000  C
  H1680    1.0000 0.18400  0.97270  0.95550  Biso   1.000  H
  C1333    1.0000 0.23440  0.78200  0.85250  Biso   1.000  C
  H1681    1.0000 0.23210  0.77730  0.87980  Biso   1.000  H
  H1682    1.0000 0.25980  0.79210  0.84750  Biso   1.000  H
  C1334    1.0000 0.22570  0.08990  0.87590  Biso   1.000  C
  H1683    1.0000 0.24300  0.10430  0.89380  Biso   1.000  H
  H1684    1.0000 0.20400  0.10720  0.86840  Biso   1.000  H
  N353     1.0000 0.20140  0.05020  0.77970  Biso   1.000  N
  N354     1.0000 0.15750  0.95650  0.82760  Biso   1.000  N
  N355     1.0000 0.17860  0.87670  0.84970  Biso   1.000  N
  N356     1.0000 0.19100  0.98880  0.90070  Biso   1.000  N
  O265     1.0000 0.24670  0.07820  0.84210  Biso   1.000  O
  H1685    1.0000 0.25700  0.07000  0.82200  Biso   1.000  H
  O266     1.0000 0.23250  0.74850  0.83050  Biso   1.000  O
  H1686    1.0000 0.22700  0.73400  0.81130  Biso   1.000  H
  H1687    1.0000 0.25670  0.79550  0.86200  Biso   1.000  H
  H1688    1.0000 0.24220  0.76780  0.82990  Biso   1.000  H
  C1335    1.0000 0.21470  0.08740  0.86820  Biso   1.000  C
  H1689    1.0000 0.22040  0.11140  0.88280  Biso   1.000  H
  H1690    1.0000 0.19060  0.09130  0.85320  Biso   1.000  H
  O267     1.0000 0.22180  0.75420  0.87970  Biso   1.000  O
  H1691    1.0000 0.23600  0.75700  0.89980  Biso   1.000  H
  C1336    1.0000 0.67530  0.53280  0.26880  Biso   1.000  C
  C1337    1.0000 0.64480  0.47120  0.30120  Biso   1.000  C
  C1338    1.0000 0.70520  0.34980  0.35630  Biso   1.000  C
  H1692    1.0000 0.72690  0.35660  0.37170  Biso   1.000  H
  C1339    1.0000 0.70310  0.31160  0.34180  Biso   1.000  C
  C1340    1.0000 0.67260  0.30230  0.31840  Biso   1.000  C
  H1693    1.0000 0.67040  0.27720  0.30740  Biso   1.000  H
  C1341    1.0000 0.64460  0.33040  0.31120  Biso   1.000  C
  H1694    1.0000 0.62310  0.32460  0.29510  Biso   1.000  H
  C1342    1.0000 0.64820  0.36680  0.32750  Biso   1.000  C
  H1695    1.0000 0.62850  0.38550  0.32290  Biso   1.000  H
  C1343    1.0000 0.69940  0.51990  0.37810  Biso   1.000  C
  H1696    1.0000 0.69780  0.51810  0.35060  Biso   1.000  H
  C1344    1.0000 0.71030  0.55400  0.39540  Biso   1.000  C
  C1345    1.0000 0.71130  0.55780  0.43500  Biso   1.000  C
  H1697    1.0000 0.71850  0.58170  0.44670  Biso   1.000  H
  C1346    1.0000 0.70210  0.52790  0.45610  Biso   1.000  C
  H1698    1.0000 0.70290  0.52990  0.48350  Biso   1.000  H
  C1347    1.0000 0.69140  0.49370  0.43930  Biso   1.000  C
  H1699    1.0000 0.68400  0.47270  0.45550  Biso   1.000  H
  C1348    1.0000 0.73440  0.28200  0.35250  Biso   1.000  C
  H1700    1.0000 0.73210  0.27730  0.37980  Biso   1.000  H
  H1701    1.0000 0.75980  0.29210  0.34750  Biso   1.000  H
  C1349    1.0000 0.72570  0.58990  0.37590  Biso   1.000  C
  H1702    1.0000 0.74300  0.60430  0.39380  Biso   1.000  H
  H1703    1.0000 0.70400  0.60720  0.36840  Biso   1.000  H
  N357     1.0000 0.70140  0.55020  0.27970  Biso   1.000  N
  N358     1.0000 0.65750  0.45650  0.32760  Biso   1.000  N
  N359     1.0000 0.67860  0.37670  0.34970  Biso   1.000  N
  N360     1.0000 0.69100  0.48880  0.40070  Biso   1.000  N
  O268     1.0000 0.74670  0.57820  0.34210  Biso   1.000  O
  H1704    1.0000 0.75700  0.57000  0.32200  Biso   1.000  H
  O269     1.0000 0.73250  0.24850  0.33050  Biso   1.000  O
  H1705    1.0000 0.72700  0.23400  0.31130  Biso   1.000  H
  H1706    1.0000 0.75670  0.29550  0.36200  Biso   1.000  H
  H1707    1.0000 0.74220  0.26780  0.32990  Biso   1.000  H
  C1350    1.0000 0.71470  0.58740  0.36820  Biso   1.000  C
  H1708    1.0000 0.72040  0.61140  0.38280  Biso   1.000  H
  H1709    1.0000 0.69060  0.59130  0.35320  Biso   1.000  H
  O270     1.0000 0.72180  0.25420  0.37970  Biso   1.000  O
  H1710    1.0000 0.73600  0.25700  0.39980  Biso   1.000  H
  C1351    1.0000 0.67530  0.46720  0.23120  Biso   1.000  C
  C1352    1.0000 0.64480  0.52880  0.19880  Biso   1.000  C
  C1353    1.0000 0.70520  0.65020  0.14370  Biso   1.000  C
  H1711    1.0000 0.72690  0.64340  0.12830  Biso   1.000  H
  C1354    1.0000 0.70310  0.68840  0.15820  Biso   1.000  C
  C1355    1.0000 0.67260  0.69770  0.18160  Biso   1.000  C
  H1712    1.0000 0.67040  0.72280  0.19260  Biso   1.000  H
  C1356    1.0000 0.64460  0.66960  0.18880  Biso   1.000  C
  H1713    1.0000 0.62310  0.67540  0.20490  Biso   1.000  H
  C1357    1.0000 0.64820  0.63320  0.17250  Biso   1.000  C
  H1714    1.0000 0.62850  0.61450  0.17710  Biso   1.000  H
  C1358    1.0000 0.69940  0.48010  0.12190  Biso   1.000  C
  H1715    1.0000 0.69780  0.48190  0.14940  Biso   1.000  H
  C1359    1.0000 0.71030  0.44600  0.10460  Biso   1.000  C
  C1360    1.0000 0.71130  0.44220  0.06500  Biso   1.000  C
  H1716    1.0000 0.71850  0.41830  0.05330  Biso   1.000  H
  C1361    1.0000 0.70210  0.47210  0.04390  Biso   1.000  C
  H1717    1.0000 0.70290  0.47010  0.01650  Biso   1.000  H
  C1362    1.0000 0.69140  0.50630  0.06070  Biso   1.000  C
  H1718    1.0000 0.68400  0.52730  0.04450  Biso   1.000  H
  C1363    1.0000 0.73440  0.71800  0.14750  Biso   1.000  C
  H1719    1.0000 0.73210  0.72270  0.12020  Biso   1.000  H
  H1720    1.0000 0.75980  0.70790  0.15250  Biso   1.000  H
  C1364    1.0000 0.72570  0.41010  0.12410  Biso   1.000  C
  H1721    1.0000 0.74300  0.39570  0.10620  Biso   1.000  H
  H1722    1.0000 0.70400  0.39280  0.13160  Biso   1.000  H
  N361     1.0000 0.70140  0.44980  0.22030  Biso   1.000  N
  N362     1.0000 0.65750  0.54350  0.17240  Biso   1.000  N
  N363     1.0000 0.67860  0.62330  0.15030  Biso   1.000  N
  N364     1.0000 0.69100  0.51120  0.09930  Biso   1.000  N
  O271     1.0000 0.74670  0.42180  0.15790  Biso   1.000  O
  H1723    1.0000 0.75700  0.43000  0.17800  Biso   1.000  H
  O272     1.0000 0.73250  0.75150  0.16950  Biso   1.000  O
  H1724    1.0000 0.72700  0.76600  0.18870  Biso   1.000  H
  H1725    1.0000 0.75670  0.70450  0.13800  Biso   1.000  H
  H1726    1.0000 0.74220  0.73220  0.17010  Biso   1.000  H
  C1365    1.0000 0.71470  0.41260  0.13180  Biso   1.000  C
  H1727    1.0000 0.72040  0.38860  0.11720  Biso   1.000  H
  H1728    1.0000 0.69060  0.40870  0.14680  Biso   1.000  H
  O273     1.0000 0.72180  0.74580  0.12030  Biso   1.000  O
  H1729    1.0000 0.73600  0.74300  0.10020  Biso   1.000  H
  C1366    1.0000 0.17530  0.96720  0.73120  Biso   1.000  C
  C1367    1.0000 0.14480  0.02880  0.69880  Biso   1.000  C
  C1368    1.0000 0.20520  0.15020  0.64370  Biso   1.000  C
  H1730    1.0000 0.22690  0.14340  0.62830  Biso   1.000  H
  C1369    1.0000 0.20310  0.18840  0.65820  Biso   1.000  C
  C1370    1.0000 0.17260  0.19770  0.68160  Biso   1.000  C
  H1731    1.0000 0.17040  0.22280  0.69260  Biso   1.000  H
  C1371    1.0000 0.14460  0.16960  0.68880  Biso   1.000  C
  H1732    1.0000 0.12310  0.17540  0.70490  Biso   1.000  H
  C1372    1.0000 0.14820  0.13320  0.67250  Biso   1.000  C
  H1733    1.0000 0.12850  0.11450  0.67710  Biso   1.000  H
  C1373    1.0000 0.19940  0.98010  0.62190  Biso   1.000  C
  H1734    1.0000 0.19780  0.98190  0.64940  Biso   1.000  H
  C1374    1.0000 0.21030  0.94600  0.60460  Biso   1.000  C
  C1375    1.0000 0.21130  0.94220  0.56500  Biso   1.000  C
  H1735    1.0000 0.21850  0.91830  0.55330  Biso   1.000  H
  C1376    1.0000 0.20210  0.97210  0.54390  Biso   1.000  C
  H1736    1.0000 0.20290  0.97010  0.51650  Biso   1.000  H
  C1377    1.0000 0.19140  0.00630  0.56070  Biso   1.000  C
  H1737    1.0000 0.18400  0.02730  0.54450  Biso   1.000  H
  C1378    1.0000 0.23440  0.21800  0.64750  Biso   1.000  C
  H1738    1.0000 0.23210  0.22270  0.62020  Biso   1.000  H
  H1739    1.0000 0.25980  0.20790  0.65250  Biso   1.000  H
  C1379    1.0000 0.22570  0.91010  0.62410  Biso   1.000  C
  H1740    1.0000 0.24300  0.89570  0.60620  Biso   1.000  H
  H1741    1.0000 0.20400  0.89280  0.63160  Biso   1.000  H
  N365     1.0000 0.20140  0.94980  0.72030  Biso   1.000  N
  N366     1.0000 0.15750  0.04350  0.67240  Biso   1.000  N
  N367     1.0000 0.17860  0.12330  0.65030  Biso   1.000  N
  N368     1.0000 0.19100  0.01120  0.59930  Biso   1.000  N
  O274     1.0000 0.24670  0.92180  0.65790  Biso   1.000  O
  H1742    1.0000 0.25700  0.93000  0.67800  Biso   1.000  H
  O275     1.0000 0.23250  0.25150  0.66950  Biso   1.000  O
  H1743    1.0000 0.22700  0.26600  0.68870  Biso   1.000  H
  H1744    1.0000 0.25670  0.20450  0.63800  Biso   1.000  H
  H1745    1.0000 0.24220  0.23220  0.67010  Biso   1.000  H
  C1380    1.0000 0.21470  0.91260  0.63180  Biso   1.000  C
  H1746    1.0000 0.22040  0.88860  0.61720  Biso   1.000  H
  H1747    1.0000 0.19060  0.90870  0.64680  Biso   1.000  H
  O276     1.0000 0.22180  0.24580  0.62030  Biso   1.000  O
  H1748    1.0000 0.23600  0.24300  0.60020  Biso   1.000  H
  C1381    1.0000 0.82470  0.53280  0.73120  Biso   1.000  C
  C1382    1.0000 0.85520  0.47120  0.69880  Biso   1.000  C
  C1383    1.0000 0.79480  0.34980  0.64370  Biso   1.000  C
  H1749    1.0000 0.77310  0.35660  0.62830  Biso   1.000  H
  C1384    1.0000 0.79690  0.31160  0.65820  Biso   1.000  C
  C1385    1.0000 0.82740  0.30230  0.68160  Biso   1.000  C
  H1750    1.0000 0.82960  0.27720  0.69260  Biso   1.000  H
  C1386    1.0000 0.85540  0.33040  0.68880  Biso   1.000  C
  H1751    1.0000 0.87690  0.32460  0.70490  Biso   1.000  H
  C1387    1.0000 0.85180  0.36680  0.67250  Biso   1.000  C
  H1752    1.0000 0.87150  0.38550  0.67710  Biso   1.000  H
  C1388    1.0000 0.80060  0.51990  0.62190  Biso   1.000  C
  H1753    1.0000 0.80220  0.51810  0.64940  Biso   1.000  H
  C1389    1.0000 0.78970  0.55400  0.60460  Biso   1.000  C
  C1390    1.0000 0.78870  0.55780  0.56500  Biso   1.000  C
  H1754    1.0000 0.78150  0.58170  0.55330  Biso   1.000  H
  C1391    1.0000 0.79790  0.52790  0.54390  Biso   1.000  C
  H1755    1.0000 0.79710  0.52990  0.51650  Biso   1.000  H
  C1392    1.0000 0.80860  0.49370  0.56070  Biso   1.000  C
  H1756    1.0000 0.81600  0.47270  0.54450  Biso   1.000  H
  C1393    1.0000 0.76560  0.28200  0.64750  Biso   1.000  C
  H1757    1.0000 0.76790  0.27730  0.62020  Biso   1.000  H
  H1758    1.0000 0.74020  0.29210  0.65250  Biso   1.000  H
  C1394    1.0000 0.77430  0.58990  0.62410  Biso   1.000  C
  H1759    1.0000 0.75700  0.60430  0.60620  Biso   1.000  H
  H1760    1.0000 0.79600  0.60720  0.63160  Biso   1.000  H
  N369     1.0000 0.79860  0.55020  0.72030  Biso   1.000  N
  N370     1.0000 0.84250  0.45650  0.67240  Biso   1.000  N
  N371     1.0000 0.82140  0.37670  0.65030  Biso   1.000  N
  N372     1.0000 0.80900  0.48880  0.59930  Biso   1.000  N
  O277     1.0000 0.75330  0.57820  0.65790  Biso   1.000  O
  H1761    1.0000 0.74300  0.57000  0.67800  Biso   1.000  H
  O278     1.0000 0.76750  0.24850  0.66950  Biso   1.000  O
  H1762    1.0000 0.77300  0.23400  0.68870  Biso   1.000  H
  H1763    1.0000 0.74330  0.29550  0.63800  Biso   1.000  H
  H1764    1.0000 0.75780  0.26780  0.67010  Biso   1.000  H
  C1395    1.0000 0.78530  0.58740  0.63180  Biso   1.000  C
  H1765    1.0000 0.77960  0.61140  0.61720  Biso   1.000  H
  H1766    1.0000 0.80940  0.59130  0.64680  Biso   1.000  H
  O279     1.0000 0.77820  0.25420  0.62030  Biso   1.000  O
  H1767    1.0000 0.76400  0.25700  0.60020  Biso   1.000  H
  C1396    1.0000 0.32470  0.03280  0.23120  Biso   1.000  C
  C1397    1.0000 0.35520  0.97120  0.19880  Biso   1.000  C
  C1398    1.0000 0.29480  0.84980  0.14370  Biso   1.000  C
  H1768    1.0000 0.27310  0.85660  0.12830  Biso   1.000  H
  C1399    1.0000 0.29690  0.81160  0.15820  Biso   1.000  C
  C1400    1.0000 0.32740  0.80230  0.18160  Biso   1.000  C
  H1769    1.0000 0.32960  0.77720  0.19260  Biso   1.000  H
  C1401    1.0000 0.35540  0.83040  0.18880  Biso   1.000  C
  H1770    1.0000 0.37690  0.82460  0.20490  Biso   1.000  H
  C1402    1.0000 0.35180  0.86680  0.17250  Biso   1.000  C
  H1771    1.0000 0.37150  0.88550  0.17710  Biso   1.000  H
  C1403    1.0000 0.30060  0.01990  0.12190  Biso   1.000  C
  H1772    1.0000 0.30220  0.01810  0.14940  Biso   1.000  H
  C1404    1.0000 0.28970  0.05400  0.10460  Biso   1.000  C
  C1405    1.0000 0.28870  0.05780  0.06500  Biso   1.000  C
  H1773    1.0000 0.28150  0.08170  0.05330  Biso   1.000  H
  C1406    1.0000 0.29790  0.02790  0.04390  Biso   1.000  C
  H1774    1.0000 0.29710  0.02990  0.01650  Biso   1.000  H
  C1407    1.0000 0.30860  0.99370  0.06070  Biso   1.000  C
  H1775    1.0000 0.31600  0.97270  0.04450  Biso   1.000  H
  C1408    1.0000 0.26560  0.78200  0.14750  Biso   1.000  C
  H1776    1.0000 0.26790  0.77730  0.12020  Biso   1.000  H
  H1777    1.0000 0.24020  0.79210  0.15250  Biso   1.000  H
  C1409    1.0000 0.27430  0.08990  0.12410  Biso   1.000  C
  H1778    1.0000 0.25700  0.10430  0.10620  Biso   1.000  H
  H1779    1.0000 0.29600  0.10720  0.13160  Biso   1.000  H
  N373     1.0000 0.29860  0.05020  0.22030  Biso   1.000  N
  N374     1.0000 0.34250  0.95650  0.17240  Biso   1.000  N
  N375     1.0000 0.32140  0.87670  0.15030  Biso   1.000  N
  N376     1.0000 0.30900  0.98880  0.09930  Biso   1.000  N
  O280     1.0000 0.25330  0.07820  0.15790  Biso   1.000  O
  H1780    1.0000 0.24300  0.07000  0.17800  Biso   1.000  H
  O281     1.0000 0.26750  0.74850  0.16950  Biso   1.000  O
  H1781    1.0000 0.27300  0.73400  0.18870  Biso   1.000  H
  H1782    1.0000 0.24330  0.79550  0.13800  Biso   1.000  H
  H1783    1.0000 0.25780  0.76780  0.17010  Biso   1.000  H
  C1410    1.0000 0.28530  0.08740  0.13180  Biso   1.000  C
  H1784    1.0000 0.27960  0.11140  0.11720  Biso   1.000  H
  H1785    1.0000 0.30940  0.09130  0.14680  Biso   1.000  H
  O282     1.0000 0.27820  0.75420  0.12030  Biso   1.000  O
  H1786    1.0000 0.26400  0.75700  0.10020  Biso   1.000  H
  C1411    1.0000 0.32470  0.96720  0.26880  Biso   1.000  C
  C1412    1.0000 0.35520  0.02880  0.30120  Biso   1.000  C
  C1413    1.0000 0.29480  0.15020  0.35630  Biso   1.000  C
  H1787    1.0000 0.27310  0.14340  0.37170  Biso   1.000  H
  C1414    1.0000 0.29690  0.18840  0.34180  Biso   1.000  C
  C1415    1.0000 0.32740  0.19770  0.31840  Biso   1.000  C
  H1788    1.0000 0.32960  0.22280  0.30740  Biso   1.000  H
  C1416    1.0000 0.35540  0.16960  0.31120  Biso   1.000  C
  H1789    1.0000 0.37690  0.17540  0.29510  Biso   1.000  H
  C1417    1.0000 0.35180  0.13320  0.32750  Biso   1.000  C
  H1790    1.0000 0.37150  0.11450  0.32290  Biso   1.000  H
  C1418    1.0000 0.30060  0.98010  0.37810  Biso   1.000  C
  H1791    1.0000 0.30220  0.98190  0.35060  Biso   1.000  H
  C1419    1.0000 0.28970  0.94600  0.39540  Biso   1.000  C
  C1420    1.0000 0.28870  0.94220  0.43500  Biso   1.000  C
  H1792    1.0000 0.28150  0.91830  0.44670  Biso   1.000  H
  C1421    1.0000 0.29790  0.97210  0.45610  Biso   1.000  C
  H1793    1.0000 0.29710  0.97010  0.48350  Biso   1.000  H
  C1422    1.0000 0.30860  0.00630  0.43930  Biso   1.000  C
  H1794    1.0000 0.31600  0.02730  0.45550  Biso   1.000  H
  C1423    1.0000 0.26560  0.21800  0.35250  Biso   1.000  C
  H1795    1.0000 0.26790  0.22270  0.37980  Biso   1.000  H
  H1796    1.0000 0.24020  0.20790  0.34750  Biso   1.000  H
  C1424    1.0000 0.27430  0.91010  0.37590  Biso   1.000  C
  H1797    1.0000 0.25700  0.89570  0.39380  Biso   1.000  H
  H1798    1.0000 0.29600  0.89280  0.36840  Biso   1.000  H
  N377     1.0000 0.29860  0.94980  0.27970  Biso   1.000  N
  N378     1.0000 0.34250  0.04350  0.32760  Biso   1.000  N
  N379     1.0000 0.32140  0.12330  0.34970  Biso   1.000  N
  N380     1.0000 0.30900  0.01120  0.40070  Biso   1.000  N
  O283     1.0000 0.25330  0.92180  0.34210  Biso   1.000  O
  H1799    1.0000 0.24300  0.93000  0.32200  Biso   1.000  H
  O284     1.0000 0.26750  0.25150  0.33050  Biso   1.000  O
  H1800    1.0000 0.27300  0.26600  0.31130  Biso   1.000  H
  H1801    1.0000 0.24330  0.20450  0.36200  Biso   1.000  H
  H1802    1.0000 0.25780  0.23220  0.32990  Biso   1.000  H
  C1425    1.0000 0.28530  0.91260  0.36820  Biso   1.000  C
  H1803    1.0000 0.27960  0.88860  0.38280  Biso   1.000  H
  H1804    1.0000 0.30940  0.90870  0.35320  Biso   1.000  H
  O285     1.0000 0.27820  0.24580  0.37970  Biso   1.000  O
  H1805    1.0000 0.26400  0.24300  0.39980  Biso   1.000  H
  C1426    1.0000 0.82470  0.46720  0.76880  Biso   1.000  C
  C1427    1.0000 0.85520  0.52880  0.80120  Biso   1.000  C
  C1428    1.0000 0.79480  0.65020  0.85630  Biso   1.000  C
  H1806    1.0000 0.77310  0.64340  0.87170  Biso   1.000  H
  C1429    1.0000 0.79690  0.68840  0.84180  Biso   1.000  C
  C1430    1.0000 0.82740  0.69770  0.81840  Biso   1.000  C
  H1807    1.0000 0.82960  0.72280  0.80740  Biso   1.000  H
  C1431    1.0000 0.85540  0.66960  0.81120  Biso   1.000  C
  H1808    1.0000 0.87690  0.67540  0.79510  Biso   1.000  H
  C1432    1.0000 0.85180  0.63320  0.82750  Biso   1.000  C
  H1809    1.0000 0.87150  0.61450  0.82290  Biso   1.000  H
  C1433    1.0000 0.80060  0.48010  0.87810  Biso   1.000  C
  H1810    1.0000 0.80220  0.48190  0.85060  Biso   1.000  H
  C1434    1.0000 0.78970  0.44600  0.89540  Biso   1.000  C
  C1435    1.0000 0.78870  0.44220  0.93500  Biso   1.000  C
  H1811    1.0000 0.78150  0.41830  0.94670  Biso   1.000  H
  C1436    1.0000 0.79790  0.47210  0.95610  Biso   1.000  C
  H1812    1.0000 0.79710  0.47010  0.98350  Biso   1.000  H
  C1437    1.0000 0.80860  0.50630  0.93930  Biso   1.000  C
  H1813    1.0000 0.81600  0.52730  0.95550  Biso   1.000  H
  C1438    1.0000 0.76560  0.71800  0.85250  Biso   1.000  C
  H1814    1.0000 0.76790  0.72270  0.87980  Biso   1.000  H
  H1815    1.0000 0.74020  0.70790  0.84750  Biso   1.000  H
  C1439    1.0000 0.77430  0.41010  0.87590  Biso   1.000  C
  H1816    1.0000 0.75700  0.39570  0.89380  Biso   1.000  H
  H1817    1.0000 0.79600  0.39280  0.86840  Biso   1.000  H
  N381     1.0000 0.79860  0.44980  0.77970  Biso   1.000  N
  N382     1.0000 0.84250  0.54350  0.82760  Biso   1.000  N
  N383     1.0000 0.82140  0.62330  0.84970  Biso   1.000  N
  N384     1.0000 0.80900  0.51120  0.90070  Biso   1.000  N
  O286     1.0000 0.75330  0.42180  0.84210  Biso   1.000  O
  H1818    1.0000 0.74300  0.43000  0.82200  Biso   1.000  H
  O287     1.0000 0.76750  0.75150  0.83050  Biso   1.000  O
  H1819    1.0000 0.77300  0.76600  0.81130  Biso   1.000  H
  H1820    1.0000 0.74330  0.70450  0.86200  Biso   1.000  H
  H1821    1.0000 0.75780  0.73220  0.82990  Biso   1.000  H
  C1440    1.0000 0.78530  0.41260  0.86820  Biso   1.000  C
  H1822    1.0000 0.77960  0.38860  0.88280  Biso   1.000  H
  H1823    1.0000 0.80940  0.40870  0.85320  Biso   1.000  H
  O288     1.0000 0.77820  0.74580  0.87970  Biso   1.000  O
  H1824    1.0000 0.76400  0.74300  0.89980  Biso   1.000  H
  Fe1      1.0000 0.12500  0.81694  0.06694  Biso   1.000  Fe
  Fe2      1.0000 0.62500  0.31694  0.56694  Biso   1.000  Fe
  Fe3      1.0000 0.37500  0.18306  0.56694  Biso   1.000  Fe
  Fe4      1.0000 0.87500  0.68306  0.06694  Biso   1.000  Fe
  Fe5      1.0000 0.87500  0.31694  0.43306  Biso   1.000  Fe
  Fe6      1.0000 0.37500  0.81694  0.93306  Biso   1.000  Fe
  Fe7      1.0000 0.62500  0.68306  0.93306  Biso   1.000  Fe
  Fe8      1.0000 0.12500  0.18306  0.43306  Biso   1.000  Fe
  Fe9      1.0000 0.06694  0.12500  0.81694  Biso   1.000  Fe
  Fe10     1.0000 0.56694  0.62500  0.31694  Biso   1.000  Fe
  Fe11     1.0000 0.56694  0.37500  0.18306  Biso   1.000  Fe
  Fe12     1.0000 0.06694  0.87500  0.68306  Biso   1.000  Fe
  Fe13     1.0000 0.43306  0.87500  0.31694  Biso   1.000  Fe
  Fe14     1.0000 0.93306  0.37500  0.81694  Biso   1.000  Fe
  Fe15     1.0000 0.93306  0.62500  0.68306  Biso   1.000  Fe
  Fe16     1.0000 0.43306  0.12500  0.18306  Biso   1.000  Fe
  Fe17     1.0000 0.81694  0.06694  0.12500  Biso   1.000  Fe
  Fe18     1.0000 0.31694  0.56694  0.62500  Biso   1.000  Fe
  Fe19     1.0000 0.18306  0.56694  0.37500  Biso   1.000  Fe
  Fe20     1.0000 0.68306  0.06694  0.87500  Biso   1.000  Fe
  Fe21     1.0000 0.31694  0.43306  0.87500  Biso   1.000  Fe
  Fe22     1.0000 0.81694  0.93306  0.37500  Biso   1.000  Fe
  Fe23     1.0000 0.68306  0.93306  0.62500  Biso   1.000  Fe
  Fe24     1.0000 0.18306  0.43306  0.12500  Biso   1.000  Fe
  Fe25     1.0000 0.87500  0.18306  0.93306  Biso   1.000  Fe
  Fe26     1.0000 0.37500  0.68306  0.43306  Biso   1.000  Fe
  Fe27     1.0000 0.62500  0.81694  0.43306  Biso   1.000  Fe
  Fe28     1.0000 0.12500  0.31694  0.93306  Biso   1.000  Fe
  Fe29     1.0000 0.12500  0.68306  0.56694  Biso   1.000  Fe
  Fe30     1.0000 0.62500  0.18306  0.06694  Biso   1.000  Fe
  Fe31     1.0000 0.37500  0.31694  0.06694  Biso   1.000  Fe
  Fe32     1.0000 0.87500  0.81694  0.56694  Biso   1.000  Fe
  Fe33     1.0000 0.93306  0.87500  0.18306  Biso   1.000  Fe
  Fe34     1.0000 0.43306  0.37500  0.68306  Biso   1.000  Fe
  Fe35     1.0000 0.43306  0.62500  0.81694  Biso   1.000  Fe
  Fe36     1.0000 0.93306  0.12500  0.31694  Biso   1.000  Fe
  Fe37     1.0000 0.56694  0.12500  0.68306  Biso   1.000  Fe
  Fe38     1.0000 0.06694  0.62500  0.18306  Biso   1.000  Fe
  Fe39     1.0000 0.06694  0.37500  0.31694  Biso   1.000  Fe
  Fe40     1.0000 0.56694  0.87500  0.81694  Biso   1.000  Fe
  Fe41     1.0000 0.18306  0.93306  0.87500  Biso   1.000  Fe
  Fe42     1.0000 0.68306  0.43306  0.37500  Biso   1.000  Fe
  Fe43     1.0000 0.81694  0.43306  0.62500  Biso   1.000  Fe
  Fe44     1.0000 0.31694  0.93306  0.12500  Biso   1.000  Fe
  Fe45     1.0000 0.68306  0.56694  0.12500  Biso   1.000  Fe
  Fe46     1.0000 0.18306  0.06694  0.62500  Biso   1.000  Fe
  Fe47     1.0000 0.31694  0.06694  0.37500  Biso   1.000  Fe
  Fe48     1.0000 0.81694  0.56694  0.87500  Biso   1.000  Fe
  W1       1.0000 0.00000  0.75000  0.12500  Biso   1.000  W
  W2       1.0000 0.50000  0.25000  0.62500  Biso   1.000  W
  W3       1.0000 0.00000  0.25000  0.37500  Biso   1.000  W
  W4       1.0000 0.50000  0.75000  0.87500  Biso   1.000  W
  W5       1.0000 0.12500  0.00000  0.75000  Biso   1.000  W
  W6       1.0000 0.62500  0.50000  0.25000  Biso   1.000  W
  W7       1.0000 0.37500  0.00000  0.25000  Biso   1.000  W
  W8       1.0000 0.87500  0.50000  0.75000  Biso   1.000  W
  W9       1.0000 0.75000  0.12500  0.00000  Biso   1.000  W
  W10      1.0000 0.25000  0.62500  0.50000  Biso   1.000  W
  W11      1.0000 0.25000  0.37500  0.00000  Biso   1.000  W
  W12      1.0000 0.75000  0.87500  0.50000  Biso   1.000  W
  W13      1.0000 0.50000  0.25000  0.12500  Biso   1.000  W
  W14      1.0000 0.00000  0.75000  0.62500  Biso   1.000  W
  W15      1.0000 0.00000  0.25000  0.87500  Biso   1.000  W
  W16      1.0000 0.50000  0.75000  0.37500  Biso   1.000  W
  W17      1.0000 0.75000  0.37500  0.50000  Biso   1.000  W
  W18      1.0000 0.25000  0.87500  0.00000  Biso   1.000  W
  W19      1.0000 0.75000  0.62500  0.00000  Biso   1.000  W
  W20      1.0000 0.25000  0.12500  0.50000  Biso   1.000  W
  W21      1.0000 0.87500  0.00000  0.25000  Biso   1.000  W
  W22      1.0000 0.37500  0.50000  0.75000  Biso   1.000  W
  W23      1.0000 0.12500  0.50000  0.25000  Biso   1.000  W
  W24      1.0000 0.62500  0.00000  0.75000  Biso   1.000  W
