data_image0
_cell_length_a       34.1814
_cell_length_b       34.1814
_cell_length_c       34.1814
_cell_angle_alpha    90
_cell_angle_beta     90
_cell_angle_gamma    90

_symmetry_space_group_name_H-M    "P 1"
_symmetry_int_tables_number       1

loop_
  _symmetry_equiv_pos_as_xyz
  'x, y, z'

loop_
  _atom_site_label
  _atom_site_occupancy
  _atom_site_fract_x
  _atom_site_fract_y
  _atom_site_fract_z
  _atom_site_thermal_displace_type
  _atom_site_B_iso_or_equiv
  _atom_site_type_symbol
  C1       1.0000 0.01900  0.71660  0.07450  Biso   1.000  C
  C2       1.0000 0.05210  0.77830  0.10450  Biso   1.000  C
  C3       1.0000 0.10640  0.89790  0.04410  Biso   1.000  C
  H1       1.0000 0.12150  0.89120  0.02170  Biso   1.000  H
  C4       1.0000 0.09190  0.93610  0.04690  Biso   1.000  C
  C5       1.0000 0.06920  0.94530  0.07880  Biso   1.000  C
  H2       1.0000 0.05810  0.97070  0.08150  Biso   1.000  H
  C6       1.0000 0.06260  0.91690  0.10710  Biso   1.000  C
  H3       1.0000 0.04720  0.92270  0.12940  Biso   1.000  H
  C7       1.0000 0.07870  0.88030  0.10240  Biso   1.000  C
  H4       1.0000 0.07450  0.86130  0.12220  Biso   1.000  H
  C8       1.0000 0.12770  0.73100  0.04920  Biso   1.000  C
  H5       1.0000 0.10000  0.73270  0.04960  Biso   1.000  H
  C9       1.0000 0.14590  0.69620  0.03870  Biso   1.000  C
  C10      1.0000 0.18570  0.69270  0.03850  Biso   1.000  C
  H6       1.0000 0.19780  0.66880  0.03110  Biso   1.000  H
  C11      1.0000 0.20720  0.72310  0.04900  Biso   1.000  C
  H7       1.0000 0.23490  0.72110  0.04930  Biso   1.000  H
  C12      1.0000 0.18960  0.75740  0.05920  Biso   1.000  C
  H8       1.0000 0.20560  0.77870  0.06680  Biso   1.000  H
  C13      1.0000 0.10100  0.96590  0.01500  Biso   1.000  C
  H9       1.0000 0.12830  0.97060  0.01730  Biso   1.000  H
  H10      1.0000 0.09610  0.95580  0.98960  Biso   1.000  H
  C14      1.0000 0.12430  0.66080  0.02480  Biso   1.000  C
  H11      1.0000 0.14220  0.64410  0.00930  Biso   1.000  H
  H12      1.0000 0.11530  0.64550  0.04760  Biso   1.000  H
  N1       1.0000 0.03000  0.69900  0.04820  Biso   1.000  N
  N2       1.0000 0.07900  0.79290  0.09080  Biso   1.000  N
  N3       1.0000 0.10016  0.87040  0.07130  Biso   1.000  N
  N4       1.0000 0.15000  0.76250  0.05890  Biso   1.000  N
  O1       1.0000 0.09140  0.67170  0.00130  Biso   1.000  O
  H13      1.0000 0.07040  0.67900  0.99200  Biso   1.000  H
  O2       1.0000 0.07990  0.00010  0.01740  Biso   1.000  O
  H14      1.0000 0.05810  0.01100  0.02200  Biso   1.000  H
  H15      1.0000 0.11050  0.95240  0.99270  Biso   1.000  H
  H16      1.0000 0.07840  0.98020  0.00720  Biso   1.000  H
  C15      1.0000 0.11940  0.66220  0.03160  Biso   1.000  C
  H17      1.0000 0.13500  0.63910  0.02350  Biso   1.000  H
  H18      1.0000 0.10540  0.65550  0.05600  Biso   1.000  H
  O3       1.0000 0.12750  0.99470  0.02790  Biso   1.000  O
  H19      1.0000 0.14760  0.99220  0.01310  Biso   1.000  H
  C16      1.0000 0.51900  0.21660  0.57450  Biso   1.000  C
  C17      1.0000 0.55210  0.27830  0.60450  Biso   1.000  C
  C18      1.0000 0.60640  0.39790  0.54410  Biso   1.000  C
  H20      1.0000 0.62150  0.39120  0.52170  Biso   1.000  H
  C19      1.0000 0.59190  0.43610  0.54690  Biso   1.000  C
  C20      1.0000 0.56920  0.44530  0.57880  Biso   1.000  C
  H21      1.0000 0.55810  0.47070  0.58150  Biso   1.000  H
  C21      1.0000 0.56260  0.41690  0.60710  Biso   1.000  C
  H22      1.0000 0.54720  0.42270  0.62940  Biso   1.000  H
  C22      1.0000 0.57870  0.38030  0.60240  Biso   1.000  C
  H23      1.0000 0.57450  0.36130  0.62220  Biso   1.000  H
  C23      1.0000 0.62770  0.23100  0.54920  Biso   1.000  C
  H24      1.0000 0.60000  0.23270  0.54960  Biso   1.000  H
  C24      1.0000 0.64590  0.19620  0.53870  Biso   1.000  C
  C25      1.0000 0.68570  0.19270  0.53850  Biso   1.000  C
  H25      1.0000 0.69780  0.16880  0.53110  Biso   1.000  H
  C26      1.0000 0.70720  0.22310  0.54900  Biso   1.000  C
  H26      1.0000 0.73490  0.22110  0.54930  Biso   1.000  H
  C27      1.0000 0.68960  0.25740  0.55920  Biso   1.000  C
  H27      1.0000 0.70560  0.27870  0.56680  Biso   1.000  H
  C28      1.0000 0.60100  0.46590  0.51500  Biso   1.000  C
  H28      1.0000 0.62830  0.47060  0.51730  Biso   1.000  H
  H29      1.0000 0.59610  0.45580  0.48960  Biso   1.000  H
  C29      1.0000 0.62430  0.16080  0.52480  Biso   1.000  C
  H30      1.0000 0.64220  0.14410  0.50930  Biso   1.000  H
  H31      1.0000 0.61530  0.14550  0.54760  Biso   1.000  H
  N5       1.0000 0.53000  0.19900  0.54820  Biso   1.000  N
  N6       1.0000 0.57900  0.29290  0.59080  Biso   1.000  N
  N7       1.0000 0.60016  0.37040  0.57130  Biso   1.000  N
  N8       1.0000 0.65000  0.26250  0.55890  Biso   1.000  N
  O4       1.0000 0.59140  0.17170  0.50130  Biso   1.000  O
  H32      1.0000 0.57040  0.17900  0.49200  Biso   1.000  H
  O5       1.0000 0.57990  0.50010  0.51740  Biso   1.000  O
  H33      1.0000 0.55810  0.51100  0.52200  Biso   1.000  H
  H34      1.0000 0.61050  0.45240  0.49270  Biso   1.000  H
  H35      1.0000 0.57840  0.48020  0.50720  Biso   1.000  H
  C30      1.0000 0.61940  0.16220  0.53160  Biso   1.000  C
  H36      1.0000 0.63500  0.13910  0.52350  Biso   1.000  H
  H37      1.0000 0.60540  0.15550  0.55600  Biso   1.000  H
  O6       1.0000 0.62750  0.49470  0.52790  Biso   1.000  O
  H38      1.0000 0.64760  0.49220  0.51310  Biso   1.000  H
  C31      1.0000 0.48100  0.28340  0.57450  Biso   1.000  C
  C32      1.0000 0.44790  0.22170  0.60450  Biso   1.000  C
  C33      1.0000 0.39360  0.10210  0.54410  Biso   1.000  C
  H39      1.0000 0.37850  0.10880  0.52170  Biso   1.000  H
  C34      1.0000 0.40810  0.06390  0.54690  Biso   1.000  C
  C35      1.0000 0.43080  0.05470  0.57880  Biso   1.000  C
  H40      1.0000 0.44190  0.02930  0.58150  Biso   1.000  H
  C36      1.0000 0.43740  0.08310  0.60710  Biso   1.000  C
  H41      1.0000 0.45280  0.07730  0.62940  Biso   1.000  H
  C37      1.0000 0.42130  0.11970  0.60240  Biso   1.000  C
  H42      1.0000 0.42550  0.13870  0.62220  Biso   1.000  H
  C38      1.0000 0.37230  0.26900  0.54920  Biso   1.000  C
  H43      1.0000 0.40000  0.26730  0.54960  Biso   1.000  H
  C39      1.0000 0.35410  0.30380  0.53870  Biso   1.000  C
  C40      1.0000 0.31430  0.30730  0.53850  Biso   1.000  C
  H44      1.0000 0.30220  0.33120  0.53110  Biso   1.000  H
  C41      1.0000 0.29280  0.27690  0.54900  Biso   1.000  C
  H45      1.0000 0.26510  0.27890  0.54930  Biso   1.000  H
  C42      1.0000 0.31040  0.24260  0.55920  Biso   1.000  C
  H46      1.0000 0.29440  0.22130  0.56680  Biso   1.000  H
  C43      1.0000 0.39900  0.03410  0.51500  Biso   1.000  C
  H47      1.0000 0.37170  0.02940  0.51730  Biso   1.000  H
  H48      1.0000 0.40390  0.04420  0.48960  Biso   1.000  H
  C44      1.0000 0.37570  0.33920  0.52480  Biso   1.000  C
  H49      1.0000 0.35780  0.35590  0.50930  Biso   1.000  H
  H50      1.0000 0.38470  0.35450  0.54760  Biso   1.000  H
  N9       1.0000 0.47000  0.30100  0.54820  Biso   1.000  N
  N10      1.0000 0.42100  0.20710  0.59080  Biso   1.000  N
  N11      1.0000 0.39984  0.12960  0.57130  Biso   1.000  N
  N12      1.0000 0.35000  0.23750  0.55890  Biso   1.000  N
  O7       1.0000 0.40860  0.32830  0.50130  Biso   1.000  O
  H51      1.0000 0.42960  0.32100  0.49200  Biso   1.000  H
  O8       1.0000 0.42010  0.99990  0.51740  Biso   1.000  O
  H52      1.0000 0.44190  0.98900  0.52200  Biso   1.000  H
  H53      1.0000 0.38950  0.04760  0.49270  Biso   1.000  H
  H54      1.0000 0.42160  0.01980  0.50720  Biso   1.000  H
  C45      1.0000 0.38060  0.33780  0.53160  Biso   1.000  C
  H55      1.0000 0.36500  0.36090  0.52350  Biso   1.000  H
  H56      1.0000 0.39460  0.34450  0.55600  Biso   1.000  H
  O9       1.0000 0.37250  0.00530  0.52790  Biso   1.000  O
  H57      1.0000 0.35240  0.00780  0.51310  Biso   1.000  H
  C46      1.0000 0.98100  0.78340  0.07450  Biso   1.000  C
  C47      1.0000 0.94790  0.72170  0.10450  Biso   1.000  C
  C48      1.0000 0.89360  0.60210  0.04410  Biso   1.000  C
  H58      1.0000 0.87850  0.60880  0.02170  Biso   1.000  H
  C49      1.0000 0.90810  0.56390  0.04690  Biso   1.000  C
  C50      1.0000 0.93080  0.55470  0.07880  Biso   1.000  C
  H59      1.0000 0.94190  0.52930  0.08150  Biso   1.000  H
  C51      1.0000 0.93740  0.58310  0.10710  Biso   1.000  C
  H60      1.0000 0.95280  0.57730  0.12940  Biso   1.000  H
  C52      1.0000 0.92130  0.61970  0.10240  Biso   1.000  C
  H61      1.0000 0.92550  0.63870  0.12220  Biso   1.000  H
  C53      1.0000 0.87230  0.76900  0.04920  Biso   1.000  C
  H62      1.0000 0.90000  0.76730  0.04960  Biso   1.000  H
  C54      1.0000 0.85410  0.80380  0.03870  Biso   1.000  C
  C55      1.0000 0.81430  0.80730  0.03850  Biso   1.000  C
  H63      1.0000 0.80220  0.83120  0.03110  Biso   1.000  H
  C56      1.0000 0.79280  0.77690  0.04900  Biso   1.000  C
  H64      1.0000 0.76510  0.77890  0.04930  Biso   1.000  H
  C57      1.0000 0.81040  0.74260  0.05920  Biso   1.000  C
  H65      1.0000 0.79440  0.72130  0.06680  Biso   1.000  H
  C58      1.0000 0.89900  0.53410  0.01500  Biso   1.000  C
  H66      1.0000 0.87170  0.52940  0.01730  Biso   1.000  H
  H67      1.0000 0.90390  0.54420  0.98960  Biso   1.000  H
  C59      1.0000 0.87570  0.83920  0.02480  Biso   1.000  C
  H68      1.0000 0.85780  0.85590  0.00930  Biso   1.000  H
  H69      1.0000 0.88470  0.85450  0.04760  Biso   1.000  H
  N13      1.0000 0.97000  0.80100  0.04820  Biso   1.000  N
  N14      1.0000 0.92100  0.70710  0.09080  Biso   1.000  N
  N15      1.0000 0.89984  0.62960  0.07130  Biso   1.000  N
  N16      1.0000 0.85000  0.73750  0.05890  Biso   1.000  N
  O10      1.0000 0.90860  0.82830  0.00130  Biso   1.000  O
  H70      1.0000 0.92960  0.82100  0.99200  Biso   1.000  H
  O11      1.0000 0.92010  0.49990  0.01740  Biso   1.000  O
  H71      1.0000 0.94190  0.48900  0.02200  Biso   1.000  H
  H72      1.0000 0.88950  0.54760  0.99270  Biso   1.000  H
  H73      1.0000 0.92160  0.51980  0.00720  Biso   1.000  H
  C60      1.0000 0.88060  0.83780  0.03160  Biso   1.000  C
  H74      1.0000 0.86500  0.86090  0.02350  Biso   1.000  H
  H75      1.0000 0.89460  0.84450  0.05600  Biso   1.000  H
  O12      1.0000 0.87250  0.50530  0.02790  Biso   1.000  O
  H76      1.0000 0.85240  0.50780  0.01310  Biso   1.000  H
  C61      1.0000 0.98100  0.21660  0.42550  Biso   1.000  C
  C62      1.0000 0.94790  0.27830  0.39550  Biso   1.000  C
  C63      1.0000 0.89360  0.39790  0.45590  Biso   1.000  C
  H77      1.0000 0.87850  0.39120  0.47830  Biso   1.000  H
  C64      1.0000 0.90810  0.43610  0.45310  Biso   1.000  C
  C65      1.0000 0.93080  0.44530  0.42120  Biso   1.000  C
  H78      1.0000 0.94190  0.47070  0.41850  Biso   1.000  H
  C66      1.0000 0.93740  0.41690  0.39290  Biso   1.000  C
  H79      1.0000 0.95280  0.42270  0.37060  Biso   1.000  H
  C67      1.0000 0.92130  0.38030  0.39760  Biso   1.000  C
  H80      1.0000 0.92550  0.36130  0.37780  Biso   1.000  H
  C68      1.0000 0.87230  0.23100  0.45080  Biso   1.000  C
  H81      1.0000 0.90000  0.23270  0.45040  Biso   1.000  H
  C69      1.0000 0.85410  0.19620  0.46130  Biso   1.000  C
  C70      1.0000 0.81430  0.19270  0.46150  Biso   1.000  C
  H82      1.0000 0.80220  0.16880  0.46890  Biso   1.000  H
  C71      1.0000 0.79280  0.22310  0.45100  Biso   1.000  C
  H83      1.0000 0.76510  0.22110  0.45070  Biso   1.000  H
  C72      1.0000 0.81040  0.25740  0.44080  Biso   1.000  C
  H84      1.0000 0.79440  0.27870  0.43320  Biso   1.000  H
  C73      1.0000 0.89900  0.46590  0.48500  Biso   1.000  C
  H85      1.0000 0.87170  0.47060  0.48270  Biso   1.000  H
  H86      1.0000 0.90390  0.45580  0.51040  Biso   1.000  H
  C74      1.0000 0.87570  0.16080  0.47520  Biso   1.000  C
  H87      1.0000 0.85780  0.14410  0.49070  Biso   1.000  H
  H88      1.0000 0.88470  0.14550  0.45240  Biso   1.000  H
  N17      1.0000 0.97000  0.19900  0.45180  Biso   1.000  N
  N18      1.0000 0.92100  0.29290  0.40920  Biso   1.000  N
  N19      1.0000 0.89984  0.37040  0.42870  Biso   1.000  N
  N20      1.0000 0.85000  0.26250  0.44110  Biso   1.000  N
  O13      1.0000 0.90860  0.17170  0.49870  Biso   1.000  O
  H89      1.0000 0.92960  0.17900  0.50800  Biso   1.000  H
  O14      1.0000 0.92010  0.50010  0.48260  Biso   1.000  O
  H90      1.0000 0.94190  0.51100  0.47800  Biso   1.000  H
  H91      1.0000 0.88950  0.45240  0.50730  Biso   1.000  H
  H92      1.0000 0.92160  0.48020  0.49280  Biso   1.000  H
  C75      1.0000 0.88060  0.16220  0.46840  Biso   1.000  C
  H93      1.0000 0.86500  0.13910  0.47650  Biso   1.000  H
  H94      1.0000 0.89460  0.15550  0.44400  Biso   1.000  H
  O15      1.0000 0.87250  0.49470  0.47210  Biso   1.000  O
  H95      1.0000 0.85240  0.49220  0.48690  Biso   1.000  H
  C76      1.0000 0.48100  0.71660  0.92550  Biso   1.000  C
  C77      1.0000 0.44790  0.77830  0.89550  Biso   1.000  C
  C78      1.0000 0.39360  0.89790  0.95590  Biso   1.000  C
  H96      1.0000 0.37850  0.89120  0.97830  Biso   1.000  H
  C79      1.0000 0.40810  0.93610  0.95310  Biso   1.000  C
  C80      1.0000 0.43080  0.94530  0.92120  Biso   1.000  C
  H97      1.0000 0.44190  0.97070  0.91850  Biso   1.000  H
  C81      1.0000 0.43740  0.91690  0.89290  Biso   1.000  C
  H98      1.0000 0.45280  0.92270  0.87060  Biso   1.000  H
  C82      1.0000 0.42130  0.88030  0.89760  Biso   1.000  C
  H99      1.0000 0.42550  0.86130  0.87780  Biso   1.000  H
  C83      1.0000 0.37230  0.73100  0.95080  Biso   1.000  C
  H100     1.0000 0.40000  0.73270  0.95040  Biso   1.000  H
  C84      1.0000 0.35410  0.69620  0.96130  Biso   1.000  C
  C85      1.0000 0.31430  0.69270  0.96150  Biso   1.000  C
  H101     1.0000 0.30220  0.66880  0.96890  Biso   1.000  H
  C86      1.0000 0.29280  0.72310  0.95100  Biso   1.000  C
  H102     1.0000 0.26510  0.72110  0.95070  Biso   1.000  H
  C87      1.0000 0.31040  0.75740  0.94080  Biso   1.000  C
  H103     1.0000 0.29440  0.77870  0.93320  Biso   1.000  H
  C88      1.0000 0.39900  0.96590  0.98500  Biso   1.000  C
  H104     1.0000 0.37170  0.97060  0.98270  Biso   1.000  H
  H105     1.0000 0.40390  0.95580  0.01040  Biso   1.000  H
  C89      1.0000 0.37570  0.66080  0.97520  Biso   1.000  C
  H106     1.0000 0.35780  0.64410  0.99070  Biso   1.000  H
  H107     1.0000 0.38470  0.64550  0.95240  Biso   1.000  H
  N21      1.0000 0.47000  0.69900  0.95180  Biso   1.000  N
  N22      1.0000 0.42100  0.79290  0.90920  Biso   1.000  N
  N23      1.0000 0.39984  0.87040  0.92870  Biso   1.000  N
  N24      1.0000 0.35000  0.76250  0.94110  Biso   1.000  N
  O16      1.0000 0.40860  0.67170  0.99870  Biso   1.000  O
  H108     1.0000 0.42960  0.67900  0.00800  Biso   1.000  H
  O17      1.0000 0.42010  0.00010  0.98260  Biso   1.000  O
  H109     1.0000 0.44190  0.01100  0.97800  Biso   1.000  H
  H110     1.0000 0.38950  0.95240  0.00730  Biso   1.000  H
  H111     1.0000 0.42160  0.98020  0.99280  Biso   1.000  H
  C90      1.0000 0.38060  0.66220  0.96840  Biso   1.000  C
  H112     1.0000 0.36500  0.63910  0.97650  Biso   1.000  H
  H113     1.0000 0.39460  0.65550  0.94400  Biso   1.000  H
  O18      1.0000 0.37250  0.99470  0.97210  Biso   1.000  O
  H114     1.0000 0.35240  0.99220  0.98690  Biso   1.000  H
  C91      1.0000 0.51900  0.78340  0.92550  Biso   1.000  C
  C92      1.0000 0.55210  0.72170  0.89550  Biso   1.000  C
  C93      1.0000 0.60640  0.60210  0.95590  Biso   1.000  C
  H115     1.0000 0.62150  0.60880  0.97830  Biso   1.000  H
  C94      1.0000 0.59190  0.56390  0.95310  Biso   1.000  C
  C95      1.0000 0.56920  0.55470  0.92120  Biso   1.000  C
  H116     1.0000 0.55810  0.52930  0.91850  Biso   1.000  H
  C96      1.0000 0.56260  0.58310  0.89290  Biso   1.000  C
  H117     1.0000 0.54720  0.57730  0.87060  Biso   1.000  H
  C97      1.0000 0.57870  0.61970  0.89760  Biso   1.000  C
  H118     1.0000 0.57450  0.63870  0.87780  Biso   1.000  H
  C98      1.0000 0.62770  0.76900  0.95080  Biso   1.000  C
  H119     1.0000 0.60000  0.76730  0.95040  Biso   1.000  H
  C99      1.0000 0.64590  0.80380  0.96130  Biso   1.000  C
  C100     1.0000 0.68570  0.80730  0.96150  Biso   1.000  C
  H120     1.0000 0.69780  0.83120  0.96890  Biso   1.000  H
  C101     1.0000 0.70720  0.77690  0.95100  Biso   1.000  C
  H121     1.0000 0.73490  0.77890  0.95070  Biso   1.000  H
  C102     1.0000 0.68960  0.74260  0.94080  Biso   1.000  C
  H122     1.0000 0.70560  0.72130  0.93320  Biso   1.000  H
  C103     1.0000 0.60100  0.53410  0.98500  Biso   1.000  C
  H123     1.0000 0.62830  0.52940  0.98270  Biso   1.000  H
  H124     1.0000 0.59610  0.54420  0.01040  Biso   1.000  H
  C104     1.0000 0.62430  0.83920  0.97520  Biso   1.000  C
  H125     1.0000 0.64220  0.85590  0.99070  Biso   1.000  H
  H126     1.0000 0.61530  0.85450  0.95240  Biso   1.000  H
  N25      1.0000 0.53000  0.80100  0.95180  Biso   1.000  N
  N26      1.0000 0.57900  0.70710  0.90920  Biso   1.000  N
  N27      1.0000 0.60016  0.62960  0.92870  Biso   1.000  N
  N28      1.0000 0.65000  0.73750  0.94110  Biso   1.000  N
  O19      1.0000 0.59140  0.82830  0.99870  Biso   1.000  O
  H127     1.0000 0.57040  0.82100  0.00800  Biso   1.000  H
  O20      1.0000 0.57990  0.49990  0.98260  Biso   1.000  O
  H128     1.0000 0.55810  0.48900  0.97800  Biso   1.000  H
  H129     1.0000 0.61050  0.54760  0.00730  Biso   1.000  H
  H130     1.0000 0.57840  0.51980  0.99280  Biso   1.000  H
  C105     1.0000 0.61940  0.83780  0.96840  Biso   1.000  C
  H131     1.0000 0.63500  0.86090  0.97650  Biso   1.000  H
  H132     1.0000 0.60540  0.84450  0.94400  Biso   1.000  H
  O21      1.0000 0.62750  0.50530  0.97210  Biso   1.000  O
  H133     1.0000 0.64760  0.50780  0.98690  Biso   1.000  H
  C106     1.0000 0.01900  0.28340  0.42550  Biso   1.000  C
  C107     1.0000 0.05210  0.22170  0.39550  Biso   1.000  C
  C108     1.0000 0.10640  0.10210  0.45590  Biso   1.000  C
  H134     1.0000 0.12150  0.10880  0.47830  Biso   1.000  H
  C109     1.0000 0.09190  0.06390  0.45310  Biso   1.000  C
  C110     1.0000 0.06920  0.05470  0.42120  Biso   1.000  C
  H135     1.0000 0.05810  0.02930  0.41850  Biso   1.000  H
  C111     1.0000 0.06260  0.08310  0.39290  Biso   1.000  C
  H136     1.0000 0.04720  0.07730  0.37060  Biso   1.000  H
  C112     1.0000 0.07870  0.11970  0.39760  Biso   1.000  C
  H137     1.0000 0.07450  0.13870  0.37780  Biso   1.000  H
  C113     1.0000 0.12770  0.26900  0.45080  Biso   1.000  C
  H138     1.0000 0.10000  0.26730  0.45040  Biso   1.000  H
  C114     1.0000 0.14590  0.30380  0.46130  Biso   1.000  C
  C115     1.0000 0.18570  0.30730  0.46150  Biso   1.000  C
  H139     1.0000 0.19780  0.33120  0.46890  Biso   1.000  H
  C116     1.0000 0.20720  0.27690  0.45100  Biso   1.000  C
  H140     1.0000 0.23490  0.27890  0.45070  Biso   1.000  H
  C117     1.0000 0.18960  0.24260  0.44080  Biso   1.000  C
  H141     1.0000 0.20560  0.22130  0.43320  Biso   1.000  H
  C118     1.0000 0.10100  0.03410  0.48500  Biso   1.000  C
  H142     1.0000 0.12830  0.02940  0.48270  Biso   1.000  H
  H143     1.0000 0.09610  0.04420  0.51040  Biso   1.000  H
  C119     1.0000 0.12430  0.33920  0.47520  Biso   1.000  C
  H144     1.0000 0.14220  0.35590  0.49070  Biso   1.000  H
  H145     1.0000 0.11530  0.35450  0.45240  Biso   1.000  H
  N29      1.0000 0.03000  0.30100  0.45180  Biso   1.000  N
  N30      1.0000 0.07900  0.20710  0.40920  Biso   1.000  N
  N31      1.0000 0.10016  0.12960  0.42870  Biso   1.000  N
  N32      1.0000 0.15000  0.23750  0.44110  Biso   1.000  N
  O22      1.0000 0.09140  0.32830  0.49870  Biso   1.000  O
  H146     1.0000 0.07040  0.32100  0.50800  Biso   1.000  H
  O23      1.0000 0.07990  0.99990  0.48260  Biso   1.000  O
  H147     1.0000 0.05810  0.98900  0.47800  Biso   1.000  H
  H148     1.0000 0.11050  0.04760  0.50730  Biso   1.000  H
  H149     1.0000 0.07840  0.01980  0.49280  Biso   1.000  H
  C120     1.0000 0.11940  0.33780  0.46840  Biso   1.000  C
  H150     1.0000 0.13500  0.36090  0.47650  Biso   1.000  H
  H151     1.0000 0.10540  0.34450  0.44400  Biso   1.000  H
  O24      1.0000 0.12750  0.00530  0.47210  Biso   1.000  O
  H152     1.0000 0.14760  0.00780  0.48690  Biso   1.000  H
  C121     1.0000 0.07450  0.01900  0.71660  Biso   1.000  C
  C122     1.0000 0.10450  0.05210  0.77830  Biso   1.000  C
  C123     1.0000 0.04410  0.10640  0.89790  Biso   1.000  C
  H153     1.0000 0.02170  0.12150  0.89120  Biso   1.000  H
  C124     1.0000 0.04690  0.09190  0.93610  Biso   1.000  C
  C125     1.0000 0.07880  0.06920  0.94530  Biso   1.000  C
  H154     1.0000 0.08150  0.05810  0.97070  Biso   1.000  H
  C126     1.0000 0.10710  0.06260  0.91690  Biso   1.000  C
  H155     1.0000 0.12940  0.04720  0.92270  Biso   1.000  H
  C127     1.0000 0.10240  0.07870  0.88030  Biso   1.000  C
  H156     1.0000 0.12220  0.07450  0.86130  Biso   1.000  H
  C128     1.0000 0.04920  0.12770  0.73100  Biso   1.000  C
  H157     1.0000 0.04960  0.10000  0.73270  Biso   1.000  H
  C129     1.0000 0.03870  0.14590  0.69620  Biso   1.000  C
  C130     1.0000 0.03850  0.18570  0.69270  Biso   1.000  C
  H158     1.0000 0.03110  0.19780  0.66880  Biso   1.000  H
  C131     1.0000 0.04900  0.20720  0.72310  Biso   1.000  C
  H159     1.0000 0.04930  0.23490  0.72110  Biso   1.000  H
  C132     1.0000 0.05920  0.18960  0.75740  Biso   1.000  C
  H160     1.0000 0.06680  0.20560  0.77870  Biso   1.000  H
  C133     1.0000 0.01500  0.10100  0.96590  Biso   1.000  C
  H161     1.0000 0.01730  0.12830  0.97060  Biso   1.000  H
  H162     1.0000 0.98960  0.09610  0.95580  Biso   1.000  H
  C134     1.0000 0.02480  0.12430  0.66080  Biso   1.000  C
  H163     1.0000 0.00930  0.14220  0.64410  Biso   1.000  H
  H164     1.0000 0.04760  0.11530  0.64550  Biso   1.000  H
  N33      1.0000 0.04820  0.03000  0.69900  Biso   1.000  N
  N34      1.0000 0.09080  0.07900  0.79290  Biso   1.000  N
  N35      1.0000 0.07130  0.10016  0.87040  Biso   1.000  N
  N36      1.0000 0.05890  0.15000  0.76250  Biso   1.000  N
  O25      1.0000 0.00130  0.09140  0.67170  Biso   1.000  O
  H165     1.0000 0.99200  0.07040  0.67900  Biso   1.000  H
  O26      1.0000 0.01740  0.07990  0.00010  Biso   1.000  O
  H166     1.0000 0.02200  0.05810  0.01100  Biso   1.000  H
  H167     1.0000 0.99270  0.11050  0.95240  Biso   1.000  H
  H168     1.0000 0.00720  0.07840  0.98020  Biso   1.000  H
  C135     1.0000 0.03160  0.11940  0.66220  Biso   1.000  C
  H169     1.0000 0.02350  0.13500  0.63910  Biso   1.000  H
  H170     1.0000 0.05600  0.10540  0.65550  Biso   1.000  H
  O27      1.0000 0.02790  0.12750  0.99470  Biso   1.000  O
  H171     1.0000 0.01310  0.14760  0.99220  Biso   1.000  H
  C136     1.0000 0.57450  0.51900  0.21660  Biso   1.000  C
  C137     1.0000 0.60450  0.55210  0.27830  Biso   1.000  C
  C138     1.0000 0.54410  0.60640  0.39790  Biso   1.000  C
  H172     1.0000 0.52170  0.62150  0.39120  Biso   1.000  H
  C139     1.0000 0.54690  0.59190  0.43610  Biso   1.000  C
  C140     1.0000 0.57880  0.56920  0.44530  Biso   1.000  C
  H173     1.0000 0.58150  0.55810  0.47070  Biso   1.000  H
  C141     1.0000 0.60710  0.56260  0.41690  Biso   1.000  C
  H174     1.0000 0.62940  0.54720  0.42270  Biso   1.000  H
  C142     1.0000 0.60240  0.57870  0.38030  Biso   1.000  C
  H175     1.0000 0.62220  0.57450  0.36130  Biso   1.000  H
  C143     1.0000 0.54920  0.62770  0.23100  Biso   1.000  C
  H176     1.0000 0.54960  0.60000  0.23270  Biso   1.000  H
  C144     1.0000 0.53870  0.64590  0.19620  Biso   1.000  C
  C145     1.0000 0.53850  0.68570  0.19270  Biso   1.000  C
  H177     1.0000 0.53110  0.69780  0.16880  Biso   1.000  H
  C146     1.0000 0.54900  0.70720  0.22310  Biso   1.000  C
  H178     1.0000 0.54930  0.73490  0.22110  Biso   1.000  H
  C147     1.0000 0.55920  0.68960  0.25740  Biso   1.000  C
  H179     1.0000 0.56680  0.70560  0.27870  Biso   1.000  H
  C148     1.0000 0.51500  0.60100  0.46590  Biso   1.000  C
  H180     1.0000 0.51730  0.62830  0.47060  Biso   1.000  H
  H181     1.0000 0.48960  0.59610  0.45580  Biso   1.000  H
  C149     1.0000 0.52480  0.62430  0.16080  Biso   1.000  C
  H182     1.0000 0.50930  0.64220  0.14410  Biso   1.000  H
  H183     1.0000 0.54760  0.61530  0.14550  Biso   1.000  H
  N37      1.0000 0.54820  0.53000  0.19900  Biso   1.000  N
  N38      1.0000 0.59080  0.57900  0.29290  Biso   1.000  N
  N39      1.0000 0.57130  0.60016  0.37040  Biso   1.000  N
  N40      1.0000 0.55890  0.65000  0.26250  Biso   1.000  N
  O28      1.0000 0.50130  0.59140  0.17170  Biso   1.000  O
  H184     1.0000 0.49200  0.57040  0.17900  Biso   1.000  H
  O29      1.0000 0.51740  0.57990  0.50010  Biso   1.000  O
  H185     1.0000 0.52200  0.55810  0.51100  Biso   1.000  H
  H186     1.0000 0.49270  0.61050  0.45240  Biso   1.000  H
  H187     1.0000 0.50720  0.57840  0.48020  Biso   1.000  H
  C150     1.0000 0.53160  0.61940  0.16220  Biso   1.000  C
  H188     1.0000 0.52350  0.63500  0.13910  Biso   1.000  H
  H189     1.0000 0.55600  0.60540  0.15550  Biso   1.000  H
  O30      1.0000 0.52790  0.62750  0.49470  Biso   1.000  O
  H190     1.0000 0.51310  0.64760  0.49220  Biso   1.000  H
  C151     1.0000 0.57450  0.48100  0.28340  Biso   1.000  C
  C152     1.0000 0.60450  0.44790  0.22170  Biso   1.000  C
  C153     1.0000 0.54410  0.39360  0.10210  Biso   1.000  C
  H191     1.0000 0.52170  0.37850  0.10880  Biso   1.000  H
  C154     1.0000 0.54690  0.40810  0.06390  Biso   1.000  C
  C155     1.0000 0.57880  0.43080  0.05470  Biso   1.000  C
  H192     1.0000 0.58150  0.44190  0.02930  Biso   1.000  H
  C156     1.0000 0.60710  0.43740  0.08310  Biso   1.000  C
  H193     1.0000 0.62940  0.45280  0.07730  Biso   1.000  H
  C157     1.0000 0.60240  0.42130  0.11970  Biso   1.000  C
  H194     1.0000 0.62220  0.42550  0.13870  Biso   1.000  H
  C158     1.0000 0.54920  0.37230  0.26900  Biso   1.000  C
  H195     1.0000 0.54960  0.40000  0.26730  Biso   1.000  H
  C159     1.0000 0.53870  0.35410  0.30380  Biso   1.000  C
  C160     1.0000 0.53850  0.31430  0.30730  Biso   1.000  C
  H196     1.0000 0.53110  0.30220  0.33120  Biso   1.000  H
  C161     1.0000 0.54900  0.29280  0.27690  Biso   1.000  C
  H197     1.0000 0.54930  0.26510  0.27890  Biso   1.000  H
  C162     1.0000 0.55920  0.31040  0.24260  Biso   1.000  C
  H198     1.0000 0.56680  0.29440  0.22130  Biso   1.000  H
  C163     1.0000 0.51500  0.39900  0.03410  Biso   1.000  C
  H199     1.0000 0.51730  0.37170  0.02940  Biso   1.000  H
  H200     1.0000 0.48960  0.40390  0.04420  Biso   1.000  H
  C164     1.0000 0.52480  0.37570  0.33920  Biso   1.000  C
  H201     1.0000 0.50930  0.35780  0.35590  Biso   1.000  H
  H202     1.0000 0.54760  0.38470  0.35450  Biso   1.000  H
  N41      1.0000 0.54820  0.47000  0.30100  Biso   1.000  N
  N42      1.0000 0.59080  0.42100  0.20710  Biso   1.000  N
  N43      1.0000 0.57130  0.39984  0.12960  Biso   1.000  N
  N44      1.0000 0.55890  0.35000  0.23750  Biso   1.000  N
  O31      1.0000 0.50130  0.40860  0.32830  Biso   1.000  O
  H203     1.0000 0.49200  0.42960  0.32100  Biso   1.000  H
  O32      1.0000 0.51740  0.42010  0.99990  Biso   1.000  O
  H204     1.0000 0.52200  0.44190  0.98900  Biso   1.000  H
  H205     1.0000 0.49270  0.38950  0.04760  Biso   1.000  H
  H206     1.0000 0.50720  0.42160  0.01980  Biso   1.000  H
  C165     1.0000 0.53160  0.38060  0.33780  Biso   1.000  C
  H207     1.0000 0.52350  0.36500  0.36090  Biso   1.000  H
  H208     1.0000 0.55600  0.39460  0.34450  Biso   1.000  H
  O33      1.0000 0.52790  0.37250  0.00530  Biso   1.000  O
  H209     1.0000 0.51310  0.35240  0.00780  Biso   1.000  H
  C166     1.0000 0.07450  0.98100  0.78340  Biso   1.000  C
  C167     1.0000 0.10450  0.94790  0.72170  Biso   1.000  C
  C168     1.0000 0.04410  0.89360  0.60210  Biso   1.000  C
  H210     1.0000 0.02170  0.87850  0.60880  Biso   1.000  H
  C169     1.0000 0.04690  0.90810  0.56390  Biso   1.000  C
  C170     1.0000 0.07880  0.93080  0.55470  Biso   1.000  C
  H211     1.0000 0.08150  0.94190  0.52930  Biso   1.000  H
  C171     1.0000 0.10710  0.93740  0.58310  Biso   1.000  C
  H212     1.0000 0.12940  0.95280  0.57730  Biso   1.000  H
  C172     1.0000 0.10240  0.92130  0.61970  Biso   1.000  C
  H213     1.0000 0.12220  0.92550  0.63870  Biso   1.000  H
  C173     1.0000 0.04920  0.87230  0.76900  Biso   1.000  C
  H214     1.0000 0.04960  0.90000  0.76730  Biso   1.000  H
  C174     1.0000 0.03870  0.85410  0.80380  Biso   1.000  C
  C175     1.0000 0.03850  0.81430  0.80730  Biso   1.000  C
  H215     1.0000 0.03110  0.80220  0.83120  Biso   1.000  H
  C176     1.0000 0.04900  0.79280  0.77690  Biso   1.000  C
  H216     1.0000 0.04930  0.76510  0.77890  Biso   1.000  H
  C177     1.0000 0.05920  0.81040  0.74260  Biso   1.000  C
  H217     1.0000 0.06680  0.79440  0.72130  Biso   1.000  H
  C178     1.0000 0.01500  0.89900  0.53410  Biso   1.000  C
  H218     1.0000 0.01730  0.87170  0.52940  Biso   1.000  H
  H219     1.0000 0.98960  0.90390  0.54420  Biso   1.000  H
  C179     1.0000 0.02480  0.87570  0.83920  Biso   1.000  C
  H220     1.0000 0.00930  0.85780  0.85590  Biso   1.000  H
  H221     1.0000 0.04760  0.88470  0.85450  Biso   1.000  H
  N45      1.0000 0.04820  0.97000  0.80100  Biso   1.000  N
  N46      1.0000 0.09080  0.92100  0.70710  Biso   1.000  N
  N47      1.0000 0.07130  0.89984  0.62960  Biso   1.000  N
  N48      1.0000 0.05890  0.85000  0.73750  Biso   1.000  N
  O34      1.0000 0.00130  0.90860  0.82830  Biso   1.000  O
  H222     1.0000 0.99200  0.92960  0.82100  Biso   1.000  H
  O35      1.0000 0.01740  0.92010  0.49990  Biso   1.000  O
  H223     1.0000 0.02200  0.94190  0.48900  Biso   1.000  H
  H224     1.0000 0.99270  0.88950  0.54760  Biso   1.000  H
  H225     1.0000 0.00720  0.92160  0.51980  Biso   1.000  H
  C180     1.0000 0.03160  0.88060  0.83780  Biso   1.000  C
  H226     1.0000 0.02350  0.86500  0.86090  Biso   1.000  H
  H227     1.0000 0.05600  0.89460  0.84450  Biso   1.000  H
  O36      1.0000 0.02790  0.87250  0.50530  Biso   1.000  O
  H228     1.0000 0.01310  0.85240  0.50780  Biso   1.000  H
  C181     1.0000 0.42550  0.98100  0.21660  Biso   1.000  C
  C182     1.0000 0.39550  0.94790  0.27830  Biso   1.000  C
  C183     1.0000 0.45590  0.89360  0.39790  Biso   1.000  C
  H229     1.0000 0.47830  0.87850  0.39120  Biso   1.000  H
  C184     1.0000 0.45310  0.90810  0.43610  Biso   1.000  C
  C185     1.0000 0.42120  0.93080  0.44530  Biso   1.000  C
  H230     1.0000 0.41850  0.94190  0.47070  Biso   1.000  H
  C186     1.0000 0.39290  0.93740  0.41690  Biso   1.000  C
  H231     1.0000 0.37060  0.95280  0.42270  Biso   1.000  H
  C187     1.0000 0.39760  0.92130  0.38030  Biso   1.000  C
  H232     1.0000 0.37780  0.92550  0.36130  Biso   1.000  H
  C188     1.0000 0.45080  0.87230  0.23100  Biso   1.000  C
  H233     1.0000 0.45040  0.90000  0.23270  Biso   1.000  H
  C189     1.0000 0.46130  0.85410  0.19620  Biso   1.000  C
  C190     1.0000 0.46150  0.81430  0.19270  Biso   1.000  C
  H234     1.0000 0.46890  0.80220  0.16880  Biso   1.000  H
  C191     1.0000 0.45100  0.79280  0.22310  Biso   1.000  C
  H235     1.0000 0.45070  0.76510  0.22110  Biso   1.000  H
  C192     1.0000 0.44080  0.81040  0.25740  Biso   1.000  C
  H236     1.0000 0.43320  0.79440  0.27870  Biso   1.000  H
  C193     1.0000 0.48500  0.89900  0.46590  Biso   1.000  C
  H237     1.0000 0.48270  0.87170  0.47060  Biso   1.000  H
  H238     1.0000 0.51040  0.90390  0.45580  Biso   1.000  H
  C194     1.0000 0.47520  0.87570  0.16080  Biso   1.000  C
  H239     1.0000 0.49070  0.85780  0.14410  Biso   1.000  H
  H240     1.0000 0.45240  0.88470  0.14550  Biso   1.000  H
  N49      1.0000 0.45180  0.97000  0.19900  Biso   1.000  N
  N50      1.0000 0.40920  0.92100  0.29290  Biso   1.000  N
  N51      1.0000 0.42870  0.89984  0.37040  Biso   1.000  N
  N52      1.0000 0.44110  0.85000  0.26250  Biso   1.000  N
  O37      1.0000 0.49870  0.90860  0.17170  Biso   1.000  O
  H241     1.0000 0.50800  0.92960  0.17900  Biso   1.000  H
  O38      1.0000 0.48260  0.92010  0.50010  Biso   1.000  O
  H242     1.0000 0.47800  0.94190  0.51100  Biso   1.000  H
  H243     1.0000 0.50730  0.88950  0.45240  Biso   1.000  H
  H244     1.0000 0.49280  0.92160  0.48020  Biso   1.000  H
  C195     1.0000 0.46840  0.88060  0.16220  Biso   1.000  C
  H245     1.0000 0.47650  0.86500  0.13910  Biso   1.000  H
  H246     1.0000 0.44400  0.89460  0.15550  Biso   1.000  H
  O39      1.0000 0.47210  0.87250  0.49470  Biso   1.000  O
  H247     1.0000 0.48690  0.85240  0.49220  Biso   1.000  H
  C196     1.0000 0.92550  0.48100  0.71660  Biso   1.000  C
  C197     1.0000 0.89550  0.44790  0.77830  Biso   1.000  C
  C198     1.0000 0.95590  0.39360  0.89790  Biso   1.000  C
  H248     1.0000 0.97830  0.37850  0.89120  Biso   1.000  H
  C199     1.0000 0.95310  0.40810  0.93610  Biso   1.000  C
  C200     1.0000 0.92120  0.43080  0.94530  Biso   1.000  C
  H249     1.0000 0.91850  0.44190  0.97070  Biso   1.000  H
  C201     1.0000 0.89290  0.43740  0.91690  Biso   1.000  C
  H250     1.0000 0.87060  0.45280  0.92270  Biso   1.000  H
  C202     1.0000 0.89760  0.42130  0.88030  Biso   1.000  C
  H251     1.0000 0.87780  0.42550  0.86130  Biso   1.000  H
  C203     1.0000 0.95080  0.37230  0.73100  Biso   1.000  C
  H252     1.0000 0.95040  0.40000  0.73270  Biso   1.000  H
  C204     1.0000 0.96130  0.35410  0.69620  Biso   1.000  C
  C205     1.0000 0.96150  0.31430  0.69270  Biso   1.000  C
  H253     1.0000 0.96890  0.30220  0.66880  Biso   1.000  H
  C206     1.0000 0.95100  0.29280  0.72310  Biso   1.000  C
  H254     1.0000 0.95070  0.26510  0.72110  Biso   1.000  H
  C207     1.0000 0.94080  0.31040  0.75740  Biso   1.000  C
  H255     1.0000 0.93320  0.29440  0.77870  Biso   1.000  H
  C208     1.0000 0.98500  0.39900  0.96590  Biso   1.000  C
  H256     1.0000 0.98270  0.37170  0.97060  Biso   1.000  H
  H257     1.0000 0.01040  0.40390  0.95580  Biso   1.000  H
  C209     1.0000 0.97520  0.37570  0.66080  Biso   1.000  C
  H258     1.0000 0.99070  0.35780  0.64410  Biso   1.000  H
  H259     1.0000 0.95240  0.38470  0.64550  Biso   1.000  H
  N53      1.0000 0.95180  0.47000  0.69900  Biso   1.000  N
  N54      1.0000 0.90920  0.42100  0.79290  Biso   1.000  N
  N55      1.0000 0.92870  0.39984  0.87040  Biso   1.000  N
  N56      1.0000 0.94110  0.35000  0.76250  Biso   1.000  N
  O40      1.0000 0.99870  0.40860  0.67170  Biso   1.000  O
  H260     1.0000 0.00800  0.42960  0.67900  Biso   1.000  H
  O41      1.0000 0.98260  0.42010  0.00010  Biso   1.000  O
  H261     1.0000 0.97800  0.44190  0.01100  Biso   1.000  H
  H262     1.0000 0.00730  0.38950  0.95240  Biso   1.000  H
  H263     1.0000 0.99280  0.42160  0.98020  Biso   1.000  H
  C210     1.0000 0.96840  0.38060  0.66220  Biso   1.000  C
  H264     1.0000 0.97650  0.36500  0.63910  Biso   1.000  H
  H265     1.0000 0.94400  0.39460  0.65550  Biso   1.000  H
  O42      1.0000 0.97210  0.37250  0.99470  Biso   1.000  O
  H266     1.0000 0.98690  0.35240  0.99220  Biso   1.000  H
  C211     1.0000 0.92550  0.51900  0.78340  Biso   1.000  C
  C212     1.0000 0.89550  0.55210  0.72170  Biso   1.000  C
  C213     1.0000 0.95590  0.60640  0.60210  Biso   1.000  C
  H267     1.0000 0.97830  0.62150  0.60880  Biso   1.000  H
  C214     1.0000 0.95310  0.59190  0.56390  Biso   1.000  C
  C215     1.0000 0.92120  0.56920  0.55470  Biso   1.000  C
  H268     1.0000 0.91850  0.55810  0.52930  Biso   1.000  H
  C216     1.0000 0.89290  0.56260  0.58310  Biso   1.000  C
  H269     1.0000 0.87060  0.54720  0.57730  Biso   1.000  H
  C217     1.0000 0.89760  0.57870  0.61970  Biso   1.000  C
  H270     1.0000 0.87780  0.57450  0.63870  Biso   1.000  H
  C218     1.0000 0.95080  0.62770  0.76900  Biso   1.000  C
  H271     1.0000 0.95040  0.60000  0.76730  Biso   1.000  H
  C219     1.0000 0.96130  0.64590  0.80380  Biso   1.000  C
  C220     1.0000 0.96150  0.68570  0.80730  Biso   1.000  C
  H272     1.0000 0.96890  0.69780  0.83120  Biso   1.000  H
  C221     1.0000 0.95100  0.70720  0.77690  Biso   1.000  C
  H273     1.0000 0.95070  0.73490  0.77890  Biso   1.000  H
  C222     1.0000 0.94080  0.68960  0.74260  Biso   1.000  C
  H274     1.0000 0.93320  0.70560  0.72130  Biso   1.000  H
  C223     1.0000 0.98500  0.60100  0.53410  Biso   1.000  C
  H275     1.0000 0.98270  0.62830  0.52940  Biso   1.000  H
  H276     1.0000 0.01040  0.59610  0.54420  Biso   1.000  H
  C224     1.0000 0.97520  0.62430  0.83920  Biso   1.000  C
  H277     1.0000 0.99070  0.64220  0.85590  Biso   1.000  H
  H278     1.0000 0.95240  0.61530  0.85450  Biso   1.000  H
  N57      1.0000 0.95180  0.53000  0.80100  Biso   1.000  N
  N58      1.0000 0.90920  0.57900  0.70710  Biso   1.000  N
  N59      1.0000 0.92870  0.60016  0.62960  Biso   1.000  N
  N60      1.0000 0.94110  0.65000  0.73750  Biso   1.000  N
  O43      1.0000 0.99870  0.59140  0.82830  Biso   1.000  O
  H279     1.0000 0.00800  0.57040  0.82100  Biso   1.000  H
  O44      1.0000 0.98260  0.57990  0.49990  Biso   1.000  O
  H280     1.0000 0.97800  0.55810  0.48900  Biso   1.000  H
  H281     1.0000 0.00730  0.61050  0.54760  Biso   1.000  H
  H282     1.0000 0.99280  0.57840  0.51980  Biso   1.000  H
  C225     1.0000 0.96840  0.61940  0.83780  Biso   1.000  C
  H283     1.0000 0.97650  0.63500  0.86090  Biso   1.000  H
  H284     1.0000 0.94400  0.60540  0.84450  Biso   1.000  H
  O45      1.0000 0.97210  0.62750  0.50530  Biso   1.000  O
  H285     1.0000 0.98690  0.64760  0.50780  Biso   1.000  H
  C226     1.0000 0.42550  0.01900  0.28340  Biso   1.000  C
  C227     1.0000 0.39550  0.05210  0.22170  Biso   1.000  C
  C228     1.0000 0.45590  0.10640  0.10210  Biso   1.000  C
  H286     1.0000 0.47830  0.12150  0.10880  Biso   1.000  H
  C229     1.0000 0.45310  0.09190  0.06390  Biso   1.000  C
  C230     1.0000 0.42120  0.06920  0.05470  Biso   1.000  C
  H287     1.0000 0.41850  0.05810  0.02930  Biso   1.000  H
  C231     1.0000 0.39290  0.06260  0.08310  Biso   1.000  C
  H288     1.0000 0.37060  0.04720  0.07730  Biso   1.000  H
  C232     1.0000 0.39760  0.07870  0.11970  Biso   1.000  C
  H289     1.0000 0.37780  0.07450  0.13870  Biso   1.000  H
  C233     1.0000 0.45080  0.12770  0.26900  Biso   1.000  C
  H290     1.0000 0.45040  0.10000  0.26730  Biso   1.000  H
  C234     1.0000 0.46130  0.14590  0.30380  Biso   1.000  C
  C235     1.0000 0.46150  0.18570  0.30730  Biso   1.000  C
  H291     1.0000 0.46890  0.19780  0.33120  Biso   1.000  H
  C236     1.0000 0.45100  0.20720  0.27690  Biso   1.000  C
  H292     1.0000 0.45070  0.23490  0.27890  Biso   1.000  H
  C237     1.0000 0.44080  0.18960  0.24260  Biso   1.000  C
  H293     1.0000 0.43320  0.20560  0.22130  Biso   1.000  H
  C238     1.0000 0.48500  0.10100  0.03410  Biso   1.000  C
  H294     1.0000 0.48270  0.12830  0.02940  Biso   1.000  H
  H295     1.0000 0.51040  0.09610  0.04420  Biso   1.000  H
  C239     1.0000 0.47520  0.12430  0.33920  Biso   1.000  C
  H296     1.0000 0.49070  0.14220  0.35590  Biso   1.000  H
  H297     1.0000 0.45240  0.11530  0.35450  Biso   1.000  H
  N61      1.0000 0.45180  0.03000  0.30100  Biso   1.000  N
  N62      1.0000 0.40920  0.07900  0.20710  Biso   1.000  N
  N63      1.0000 0.42870  0.10016  0.12960  Biso   1.000  N
  N64      1.0000 0.44110  0.15000  0.23750  Biso   1.000  N
  O46      1.0000 0.49870  0.09140  0.32830  Biso   1.000  O
  H298     1.0000 0.50800  0.07040  0.32100  Biso   1.000  H
  O47      1.0000 0.48260  0.07990  0.99990  Biso   1.000  O
  H299     1.0000 0.47800  0.05810  0.98900  Biso   1.000  H
  H300     1.0000 0.50730  0.11050  0.04760  Biso   1.000  H
  H301     1.0000 0.49280  0.07840  0.01980  Biso   1.000  H
  C240     1.0000 0.46840  0.11940  0.33780  Biso   1.000  C
  H302     1.0000 0.47650  0.13500  0.36090  Biso   1.000  H
  H303     1.0000 0.44400  0.10540  0.34450  Biso   1.000  H
  O48      1.0000 0.47210  0.12750  0.00530  Biso   1.000  O
  H304     1.0000 0.48690  0.14760  0.00780  Biso   1.000  H
  C241     1.0000 0.71660  0.07450  0.01900  Biso   1.000  C
  C242     1.0000 0.77830  0.10450  0.05210  Biso   1.000  C
  C243     1.0000 0.89790  0.04410  0.10640  Biso   1.000  C
  H305     1.0000 0.89120  0.02170  0.12150  Biso   1.000  H
  C244     1.0000 0.93610  0.04690  0.09190  Biso   1.000  C
  C245     1.0000 0.94530  0.07880  0.06920  Biso   1.000  C
  H306     1.0000 0.97070  0.08150  0.05810  Biso   1.000  H
  C246     1.0000 0.91690  0.10710  0.06260  Biso   1.000  C
  H307     1.0000 0.92270  0.12940  0.04720  Biso   1.000  H
  C247     1.0000 0.88030  0.10240  0.07870  Biso   1.000  C
  H308     1.0000 0.86130  0.12220  0.07450  Biso   1.000  H
  C248     1.0000 0.73100  0.04920  0.12770  Biso   1.000  C
  H309     1.0000 0.73270  0.04960  0.10000  Biso   1.000  H
  C249     1.0000 0.69620  0.03870  0.14590  Biso   1.000  C
  C250     1.0000 0.69270  0.03850  0.18570  Biso   1.000  C
  H310     1.0000 0.66880  0.03110  0.19780  Biso   1.000  H
  C251     1.0000 0.72310  0.04900  0.20720  Biso   1.000  C
  H311     1.0000 0.72110  0.04930  0.23490  Biso   1.000  H
  C252     1.0000 0.75740  0.05920  0.18960  Biso   1.000  C
  H312     1.0000 0.77870  0.06680  0.20560  Biso   1.000  H
  C253     1.0000 0.96590  0.01500  0.10100  Biso   1.000  C
  H313     1.0000 0.97060  0.01730  0.12830  Biso   1.000  H
  H314     1.0000 0.95580  0.98960  0.09610  Biso   1.000  H
  C254     1.0000 0.66080  0.02480  0.12430  Biso   1.000  C
  H315     1.0000 0.64410  0.00930  0.14220  Biso   1.000  H
  H316     1.0000 0.64550  0.04760  0.11530  Biso   1.000  H
  N65      1.0000 0.69900  0.04820  0.03000  Biso   1.000  N
  N66      1.0000 0.79290  0.09080  0.07900  Biso   1.000  N
  N67      1.0000 0.87040  0.07130  0.10016  Biso   1.000  N
  N68      1.0000 0.76250  0.05890  0.15000  Biso   1.000  N
  O49      1.0000 0.67170  0.00130  0.09140  Biso   1.000  O
  H317     1.0000 0.67900  0.99200  0.07040  Biso   1.000  H
  O50      1.0000 0.00010  0.01740  0.07990  Biso   1.000  O
  H318     1.0000 0.01100  0.02200  0.05810  Biso   1.000  H
  H319     1.0000 0.95240  0.99270  0.11050  Biso   1.000  H
  H320     1.0000 0.98020  0.00720  0.07840  Biso   1.000  H
  C255     1.0000 0.66220  0.03160  0.11940  Biso   1.000  C
  H321     1.0000 0.63910  0.02350  0.13500  Biso   1.000  H
  H322     1.0000 0.65550  0.05600  0.10540  Biso   1.000  H
  O51      1.0000 0.99470  0.02790  0.12750  Biso   1.000  O
  H323     1.0000 0.99220  0.01310  0.14760  Biso   1.000  H
  C256     1.0000 0.21660  0.57450  0.51900  Biso   1.000  C
  C257     1.0000 0.27830  0.60450  0.55210  Biso   1.000  C
  C258     1.0000 0.39790  0.54410  0.60640  Biso   1.000  C
  H324     1.0000 0.39120  0.52170  0.62150  Biso   1.000  H
  C259     1.0000 0.43610  0.54690  0.59190  Biso   1.000  C
  C260     1.0000 0.44530  0.57880  0.56920  Biso   1.000  C
  H325     1.0000 0.47070  0.58150  0.55810  Biso   1.000  H
  C261     1.0000 0.41690  0.60710  0.56260  Biso   1.000  C
  H326     1.0000 0.42270  0.62940  0.54720  Biso   1.000  H
  C262     1.0000 0.38030  0.60240  0.57870  Biso   1.000  C
  H327     1.0000 0.36130  0.62220  0.57450  Biso   1.000  H
  C263     1.0000 0.23100  0.54920  0.62770  Biso   1.000  C
  H328     1.0000 0.23270  0.54960  0.60000  Biso   1.000  H
  C264     1.0000 0.19620  0.53870  0.64590  Biso   1.000  C
  C265     1.0000 0.19270  0.53850  0.68570  Biso   1.000  C
  H329     1.0000 0.16880  0.53110  0.69780  Biso   1.000  H
  C266     1.0000 0.22310  0.54900  0.70720  Biso   1.000  C
  H330     1.0000 0.22110  0.54930  0.73490  Biso   1.000  H
  C267     1.0000 0.25740  0.55920  0.68960  Biso   1.000  C
  H331     1.0000 0.27870  0.56680  0.70560  Biso   1.000  H
  C268     1.0000 0.46590  0.51500  0.60100  Biso   1.000  C
  H332     1.0000 0.47060  0.51730  0.62830  Biso   1.000  H
  H333     1.0000 0.45580  0.48960  0.59610  Biso   1.000  H
  C269     1.0000 0.16080  0.52480  0.62430  Biso   1.000  C
  H334     1.0000 0.14410  0.50930  0.64220  Biso   1.000  H
  H335     1.0000 0.14550  0.54760  0.61530  Biso   1.000  H
  N69      1.0000 0.19900  0.54820  0.53000  Biso   1.000  N
  N70      1.0000 0.29290  0.59080  0.57900  Biso   1.000  N
  N71      1.0000 0.37040  0.57130  0.60016  Biso   1.000  N
  N72      1.0000 0.26250  0.55890  0.65000  Biso   1.000  N
  O52      1.0000 0.17170  0.50130  0.59140  Biso   1.000  O
  H336     1.0000 0.17900  0.49200  0.57040  Biso   1.000  H
  O53      1.0000 0.50010  0.51740  0.57990  Biso   1.000  O
  H337     1.0000 0.51100  0.52200  0.55810  Biso   1.000  H
  H338     1.0000 0.45240  0.49270  0.61050  Biso   1.000  H
  H339     1.0000 0.48020  0.50720  0.57840  Biso   1.000  H
  C270     1.0000 0.16220  0.53160  0.61940  Biso   1.000  C
  H340     1.0000 0.13910  0.52350  0.63500  Biso   1.000  H
  H341     1.0000 0.15550  0.55600  0.60540  Biso   1.000  H
  O54      1.0000 0.49470  0.52790  0.62750  Biso   1.000  O
  H342     1.0000 0.49220  0.51310  0.64760  Biso   1.000  H
  C271     1.0000 0.28340  0.57450  0.48100  Biso   1.000  C
  C272     1.0000 0.22170  0.60450  0.44790  Biso   1.000  C
  C273     1.0000 0.10210  0.54410  0.39360  Biso   1.000  C
  H343     1.0000 0.10880  0.52170  0.37850  Biso   1.000  H
  C274     1.0000 0.06390  0.54690  0.40810  Biso   1.000  C
  C275     1.0000 0.05470  0.57880  0.43080  Biso   1.000  C
  H344     1.0000 0.02930  0.58150  0.44190  Biso   1.000  H
  C276     1.0000 0.08310  0.60710  0.43740  Biso   1.000  C
  H345     1.0000 0.07730  0.62940  0.45280  Biso   1.000  H
  C277     1.0000 0.11970  0.60240  0.42130  Biso   1.000  C
  H346     1.0000 0.13870  0.62220  0.42550  Biso   1.000  H
  C278     1.0000 0.26900  0.54920  0.37230  Biso   1.000  C
  H347     1.0000 0.26730  0.54960  0.40000  Biso   1.000  H
  C279     1.0000 0.30380  0.53870  0.35410  Biso   1.000  C
  C280     1.0000 0.30730  0.53850  0.31430  Biso   1.000  C
  H348     1.0000 0.33120  0.53110  0.30220  Biso   1.000  H
  C281     1.0000 0.27690  0.54900  0.29280  Biso   1.000  C
  H349     1.0000 0.27890  0.54930  0.26510  Biso   1.000  H
  C282     1.0000 0.24260  0.55920  0.31040  Biso   1.000  C
  H350     1.0000 0.22130  0.56680  0.29440  Biso   1.000  H
  C283     1.0000 0.03410  0.51500  0.39900  Biso   1.000  C
  H351     1.0000 0.02940  0.51730  0.37170  Biso   1.000  H
  H352     1.0000 0.04420  0.48960  0.40390  Biso   1.000  H
  C284     1.0000 0.33920  0.52480  0.37570  Biso   1.000  C
  H353     1.0000 0.35590  0.50930  0.35780  Biso   1.000  H
  H354     1.0000 0.35450  0.54760  0.38470  Biso   1.000  H
  N73      1.0000 0.30100  0.54820  0.47000  Biso   1.000  N
  N74      1.0000 0.20710  0.59080  0.42100  Biso   1.000  N
  N75      1.0000 0.12960  0.57130  0.39984  Biso   1.000  N
  N76      1.0000 0.23750  0.55890  0.35000  Biso   1.000  N
  O55      1.0000 0.32830  0.50130  0.40860  Biso   1.000  O
  H355     1.0000 0.32100  0.49200  0.42960  Biso   1.000  H
  O56      1.0000 0.99990  0.51740  0.42010  Biso   1.000  O
  H356     1.0000 0.98900  0.52200  0.44190  Biso   1.000  H
  H357     1.0000 0.04760  0.49270  0.38950  Biso   1.000  H
  H358     1.0000 0.01980  0.50720  0.42160  Biso   1.000  H
  C285     1.0000 0.33780  0.53160  0.38060  Biso   1.000  C
  H359     1.0000 0.36090  0.52350  0.36500  Biso   1.000  H
  H360     1.0000 0.34450  0.55600  0.39460  Biso   1.000  H
  O57      1.0000 0.00530  0.52790  0.37250  Biso   1.000  O
  H361     1.0000 0.00780  0.51310  0.35240  Biso   1.000  H
  C286     1.0000 0.78340  0.07450  0.98100  Biso   1.000  C
  C287     1.0000 0.72170  0.10450  0.94790  Biso   1.000  C
  C288     1.0000 0.60210  0.04410  0.89360  Biso   1.000  C
  H362     1.0000 0.60880  0.02170  0.87850  Biso   1.000  H
  C289     1.0000 0.56390  0.04690  0.90810  Biso   1.000  C
  C290     1.0000 0.55470  0.07880  0.93080  Biso   1.000  C
  H363     1.0000 0.52930  0.08150  0.94190  Biso   1.000  H
  C291     1.0000 0.58310  0.10710  0.93740  Biso   1.000  C
  H364     1.0000 0.57730  0.12940  0.95280  Biso   1.000  H
  C292     1.0000 0.61970  0.10240  0.92130  Biso   1.000  C
  H365     1.0000 0.63870  0.12220  0.92550  Biso   1.000  H
  C293     1.0000 0.76900  0.04920  0.87230  Biso   1.000  C
  H366     1.0000 0.76730  0.04960  0.90000  Biso   1.000  H
  C294     1.0000 0.80380  0.03870  0.85410  Biso   1.000  C
  C295     1.0000 0.80730  0.03850  0.81430  Biso   1.000  C
  H367     1.0000 0.83120  0.03110  0.80220  Biso   1.000  H
  C296     1.0000 0.77690  0.04900  0.79280  Biso   1.000  C
  H368     1.0000 0.77890  0.04930  0.76510  Biso   1.000  H
  C297     1.0000 0.74260  0.05920  0.81040  Biso   1.000  C
  H369     1.0000 0.72130  0.06680  0.79440  Biso   1.000  H
  C298     1.0000 0.53410  0.01500  0.89900  Biso   1.000  C
  H370     1.0000 0.52940  0.01730  0.87170  Biso   1.000  H
  H371     1.0000 0.54420  0.98960  0.90390  Biso   1.000  H
  C299     1.0000 0.83920  0.02480  0.87570  Biso   1.000  C
  H372     1.0000 0.85590  0.00930  0.85780  Biso   1.000  H
  H373     1.0000 0.85450  0.04760  0.88470  Biso   1.000  H
  N77      1.0000 0.80100  0.04820  0.97000  Biso   1.000  N
  N78      1.0000 0.70710  0.09080  0.92100  Biso   1.000  N
  N79      1.0000 0.62960  0.07130  0.89984  Biso   1.000  N
  N80      1.0000 0.73750  0.05890  0.85000  Biso   1.000  N
  O58      1.0000 0.82830  0.00130  0.90860  Biso   1.000  O
  H374     1.0000 0.82100  0.99200  0.92960  Biso   1.000  H
  O59      1.0000 0.49990  0.01740  0.92010  Biso   1.000  O
  H375     1.0000 0.48900  0.02200  0.94190  Biso   1.000  H
  H376     1.0000 0.54760  0.99270  0.88950  Biso   1.000  H
  H377     1.0000 0.51980  0.00720  0.92160  Biso   1.000  H
  C300     1.0000 0.83780  0.03160  0.88060  Biso   1.000  C
  H378     1.0000 0.86090  0.02350  0.86500  Biso   1.000  H
  H379     1.0000 0.84450  0.05600  0.89460  Biso   1.000  H
  O60      1.0000 0.50530  0.02790  0.87250  Biso   1.000  O
  H380     1.0000 0.50780  0.01310  0.85240  Biso   1.000  H
  C301     1.0000 0.21660  0.42550  0.98100  Biso   1.000  C
  C302     1.0000 0.27830  0.39550  0.94790  Biso   1.000  C
  C303     1.0000 0.39790  0.45590  0.89360  Biso   1.000  C
  H381     1.0000 0.39120  0.47830  0.87850  Biso   1.000  H
  C304     1.0000 0.43610  0.45310  0.90810  Biso   1.000  C
  C305     1.0000 0.44530  0.42120  0.93080  Biso   1.000  C
  H382     1.0000 0.47070  0.41850  0.94190  Biso   1.000  H
  C306     1.0000 0.41690  0.39290  0.93740  Biso   1.000  C
  H383     1.0000 0.42270  0.37060  0.95280  Biso   1.000  H
  C307     1.0000 0.38030  0.39760  0.92130  Biso   1.000  C
  H384     1.0000 0.36130  0.37780  0.92550  Biso   1.000  H
  C308     1.0000 0.23100  0.45080  0.87230  Biso   1.000  C
  H385     1.0000 0.23270  0.45040  0.90000  Biso   1.000  H
  C309     1.0000 0.19620  0.46130  0.85410  Biso   1.000  C
  C310     1.0000 0.19270  0.46150  0.81430  Biso   1.000  C
  H386     1.0000 0.16880  0.46890  0.80220  Biso   1.000  H
  C311     1.0000 0.22310  0.45100  0.79280  Biso   1.000  C
  H387     1.0000 0.22110  0.45070  0.76510  Biso   1.000  H
  C312     1.0000 0.25740  0.44080  0.81040  Biso   1.000  C
  H388     1.0000 0.27870  0.43320  0.79440  Biso   1.000  H
  C313     1.0000 0.46590  0.48500  0.89900  Biso   1.000  C
  H389     1.0000 0.47060  0.48270  0.87170  Biso   1.000  H
  H390     1.0000 0.45580  0.51040  0.90390  Biso   1.000  H
  C314     1.0000 0.16080  0.47520  0.87570  Biso   1.000  C
  H391     1.0000 0.14410  0.49070  0.85780  Biso   1.000  H
  H392     1.0000 0.14550  0.45240  0.88470  Biso   1.000  H
  N81      1.0000 0.19900  0.45180  0.97000  Biso   1.000  N
  N82      1.0000 0.29290  0.40920  0.92100  Biso   1.000  N
  N83      1.0000 0.37040  0.42870  0.89984  Biso   1.000  N
  N84      1.0000 0.26250  0.44110  0.85000  Biso   1.000  N
  O61      1.0000 0.17170  0.49870  0.90860  Biso   1.000  O
  H393     1.0000 0.17900  0.50800  0.92960  Biso   1.000  H
  O62      1.0000 0.50010  0.48260  0.92010  Biso   1.000  O
  H394     1.0000 0.51100  0.47800  0.94190  Biso   1.000  H
  H395     1.0000 0.45240  0.50730  0.88950  Biso   1.000  H
  H396     1.0000 0.48020  0.49280  0.92160  Biso   1.000  H
  C315     1.0000 0.16220  0.46840  0.88060  Biso   1.000  C
  H397     1.0000 0.13910  0.47650  0.86500  Biso   1.000  H
  H398     1.0000 0.15550  0.44400  0.89460  Biso   1.000  H
  O63      1.0000 0.49470  0.47210  0.87250  Biso   1.000  O
  H399     1.0000 0.49220  0.48690  0.85240  Biso   1.000  H
  C316     1.0000 0.71660  0.92550  0.48100  Biso   1.000  C
  C317     1.0000 0.77830  0.89550  0.44790  Biso   1.000  C
  C318     1.0000 0.89790  0.95590  0.39360  Biso   1.000  C
  H400     1.0000 0.89120  0.97830  0.37850  Biso   1.000  H
  C319     1.0000 0.93610  0.95310  0.40810  Biso   1.000  C
  C320     1.0000 0.94530  0.92120  0.43080  Biso   1.000  C
  H401     1.0000 0.97070  0.91850  0.44190  Biso   1.000  H
  C321     1.0000 0.91690  0.89290  0.43740  Biso   1.000  C
  H402     1.0000 0.92270  0.87060  0.45280  Biso   1.000  H
  C322     1.0000 0.88030  0.89760  0.42130  Biso   1.000  C
  H403     1.0000 0.86130  0.87780  0.42550  Biso   1.000  H
  C323     1.0000 0.73100  0.95080  0.37230  Biso   1.000  C
  H404     1.0000 0.73270  0.95040  0.40000  Biso   1.000  H
  C324     1.0000 0.69620  0.96130  0.35410  Biso   1.000  C
  C325     1.0000 0.69270  0.96150  0.31430  Biso   1.000  C
  H405     1.0000 0.66880  0.96890  0.30220  Biso   1.000  H
  C326     1.0000 0.72310  0.95100  0.29280  Biso   1.000  C
  H406     1.0000 0.72110  0.95070  0.26510  Biso   1.000  H
  C327     1.0000 0.75740  0.94080  0.31040  Biso   1.000  C
  H407     1.0000 0.77870  0.93320  0.29440  Biso   1.000  H
  C328     1.0000 0.96590  0.98500  0.39900  Biso   1.000  C
  H408     1.0000 0.97060  0.98270  0.37170  Biso   1.000  H
  H409     1.0000 0.95580  0.01040  0.40390  Biso   1.000  H
  C329     1.0000 0.66080  0.97520  0.37570  Biso   1.000  C
  H410     1.0000 0.64410  0.99070  0.35780  Biso   1.000  H
  H411     1.0000 0.64550  0.95240  0.38470  Biso   1.000  H
  N85      1.0000 0.69900  0.95180  0.47000  Biso   1.000  N
  N86      1.0000 0.79290  0.90920  0.42100  Biso   1.000  N
  N87      1.0000 0.87040  0.92870  0.39984  Biso   1.000  N
  N88      1.0000 0.76250  0.94110  0.35000  Biso   1.000  N
  O64      1.0000 0.67170  0.99870  0.40860  Biso   1.000  O
  H412     1.0000 0.67900  0.00800  0.42960  Biso   1.000  H
  O65      1.0000 0.00010  0.98260  0.42010  Biso   1.000  O
  H413     1.0000 0.01100  0.97800  0.44190  Biso   1.000  H
  H414     1.0000 0.95240  0.00730  0.38950  Biso   1.000  H
  H415     1.0000 0.98020  0.99280  0.42160  Biso   1.000  H
  C330     1.0000 0.66220  0.96840  0.38060  Biso   1.000  C
  H416     1.0000 0.63910  0.97650  0.36500  Biso   1.000  H
  H417     1.0000 0.65550  0.94400  0.39460  Biso   1.000  H
  O66      1.0000 0.99470  0.97210  0.37250  Biso   1.000  O
  H418     1.0000 0.99220  0.98690  0.35240  Biso   1.000  H
  C331     1.0000 0.78340  0.92550  0.51900  Biso   1.000  C
  C332     1.0000 0.72170  0.89550  0.55210  Biso   1.000  C
  C333     1.0000 0.60210  0.95590  0.60640  Biso   1.000  C
  H419     1.0000 0.60880  0.97830  0.62150  Biso   1.000  H
  C334     1.0000 0.56390  0.95310  0.59190  Biso   1.000  C
  C335     1.0000 0.55470  0.92120  0.56920  Biso   1.000  C
  H420     1.0000 0.52930  0.91850  0.55810  Biso   1.000  H
  C336     1.0000 0.58310  0.89290  0.56260  Biso   1.000  C
  H421     1.0000 0.57730  0.87060  0.54720  Biso   1.000  H
  C337     1.0000 0.61970  0.89760  0.57870  Biso   1.000  C
  H422     1.0000 0.63870  0.87780  0.57450  Biso   1.000  H
  C338     1.0000 0.76900  0.95080  0.62770  Biso   1.000  C
  H423     1.0000 0.76730  0.95040  0.60000  Biso   1.000  H
  C339     1.0000 0.80380  0.96130  0.64590  Biso   1.000  C
  C340     1.0000 0.80730  0.96150  0.68570  Biso   1.000  C
  H424     1.0000 0.83120  0.96890  0.69780  Biso   1.000  H
  C341     1.0000 0.77690  0.95100  0.70720  Biso   1.000  C
  H425     1.0000 0.77890  0.95070  0.73490  Biso   1.000  H
  C342     1.0000 0.74260  0.94080  0.68960  Biso   1.000  C
  H426     1.0000 0.72130  0.93320  0.70560  Biso   1.000  H
  C343     1.0000 0.53410  0.98500  0.60100  Biso   1.000  C
  H427     1.0000 0.52940  0.98270  0.62830  Biso   1.000  H
  H428     1.0000 0.54420  0.01040  0.59610  Biso   1.000  H
  C344     1.0000 0.83920  0.97520  0.62430  Biso   1.000  C
  H429     1.0000 0.85590  0.99070  0.64220  Biso   1.000  H
  H430     1.0000 0.85450  0.95240  0.61530  Biso   1.000  H
  N89      1.0000 0.80100  0.95180  0.53000  Biso   1.000  N
  N90      1.0000 0.70710  0.90920  0.57900  Biso   1.000  N
  N91      1.0000 0.62960  0.92870  0.60016  Biso   1.000  N
  N92      1.0000 0.73750  0.94110  0.65000  Biso   1.000  N
  O67      1.0000 0.82830  0.99870  0.59140  Biso   1.000  O
  H431     1.0000 0.82100  0.00800  0.57040  Biso   1.000  H
  O68      1.0000 0.49990  0.98260  0.57990  Biso   1.000  O
  H432     1.0000 0.48900  0.97800  0.55810  Biso   1.000  H
  H433     1.0000 0.54760  0.00730  0.61050  Biso   1.000  H
  H434     1.0000 0.51980  0.99280  0.57840  Biso   1.000  H
  C345     1.0000 0.83780  0.96840  0.61940  Biso   1.000  C
  H435     1.0000 0.86090  0.97650  0.63500  Biso   1.000  H
  H436     1.0000 0.84450  0.94400  0.60540  Biso   1.000  H
  O69      1.0000 0.50530  0.97210  0.62750  Biso   1.000  O
  H437     1.0000 0.50780  0.98690  0.64760  Biso   1.000  H
  C346     1.0000 0.28340  0.42550  0.01900  Biso   1.000  C
  C347     1.0000 0.22170  0.39550  0.05210  Biso   1.000  C
  C348     1.0000 0.10210  0.45590  0.10640  Biso   1.000  C
  H438     1.0000 0.10880  0.47830  0.12150  Biso   1.000  H
  C349     1.0000 0.06390  0.45310  0.09190  Biso   1.000  C
  C350     1.0000 0.05470  0.42120  0.06920  Biso   1.000  C
  H439     1.0000 0.02930  0.41850  0.05810  Biso   1.000  H
  C351     1.0000 0.08310  0.39290  0.06260  Biso   1.000  C
  H440     1.0000 0.07730  0.37060  0.04720  Biso   1.000  H
  C352     1.0000 0.11970  0.39760  0.07870  Biso   1.000  C
  H441     1.0000 0.13870  0.37780  0.07450  Biso   1.000  H
  C353     1.0000 0.26900  0.45080  0.12770  Biso   1.000  C
  H442     1.0000 0.26730  0.45040  0.10000  Biso   1.000  H
  C354     1.0000 0.30380  0.46130  0.14590  Biso   1.000  C
  C355     1.0000 0.30730  0.46150  0.18570  Biso   1.000  C
  H443     1.0000 0.33120  0.46890  0.19780  Biso   1.000  H
  C356     1.0000 0.27690  0.45100  0.20720  Biso   1.000  C
  H444     1.0000 0.27890  0.45070  0.23490  Biso   1.000  H
  C357     1.0000 0.24260  0.44080  0.18960  Biso   1.000  C
  H445     1.0000 0.22130  0.43320  0.20560  Biso   1.000  H
  C358     1.0000 0.03410  0.48500  0.10100  Biso   1.000  C
  H446     1.0000 0.02940  0.48270  0.12830  Biso   1.000  H
  H447     1.0000 0.04420  0.51040  0.09610  Biso   1.000  H
  C359     1.0000 0.33920  0.47520  0.12430  Biso   1.000  C
  H448     1.0000 0.35590  0.49070  0.14220  Biso   1.000  H
  H449     1.0000 0.35450  0.45240  0.11530  Biso   1.000  H
  N93      1.0000 0.30100  0.45180  0.03000  Biso   1.000  N
  N94      1.0000 0.20710  0.40920  0.07900  Biso   1.000  N
  N95      1.0000 0.12960  0.42870  0.10016  Biso   1.000  N
  N96      1.0000 0.23750  0.44110  0.15000  Biso   1.000  N
  O70      1.0000 0.32830  0.49870  0.09140  Biso   1.000  O
  H450     1.0000 0.32100  0.50800  0.07040  Biso   1.000  H
  O71      1.0000 0.99990  0.48260  0.07990  Biso   1.000  O
  H451     1.0000 0.98900  0.47800  0.05810  Biso   1.000  H
  H452     1.0000 0.04760  0.50730  0.11050  Biso   1.000  H
  H453     1.0000 0.01980  0.49280  0.07840  Biso   1.000  H
  C360     1.0000 0.33780  0.46840  0.11940  Biso   1.000  C
  H454     1.0000 0.36090  0.47650  0.13500  Biso   1.000  H
  H455     1.0000 0.34450  0.44400  0.10540  Biso   1.000  H
  O72      1.0000 0.00530  0.47210  0.12750  Biso   1.000  O
  H456     1.0000 0.00780  0.48690  0.14760  Biso   1.000  H
  C361     1.0000 0.46660  0.26900  0.17550  Biso   1.000  C
  C362     1.0000 0.52830  0.30210  0.14550  Biso   1.000  C
  C363     1.0000 0.64790  0.35640  0.20590  Biso   1.000  C
  H457     1.0000 0.64120  0.37150  0.22830  Biso   1.000  H
  C364     1.0000 0.68610  0.34190  0.20310  Biso   1.000  C
  C365     1.0000 0.69530  0.31920  0.17120  Biso   1.000  C
  H458     1.0000 0.72070  0.30810  0.16850  Biso   1.000  H
  C366     1.0000 0.66690  0.31260  0.14290  Biso   1.000  C
  H459     1.0000 0.67270  0.29720  0.12060  Biso   1.000  H
  C367     1.0000 0.63030  0.32870  0.14760  Biso   1.000  C
  H460     1.0000 0.61130  0.32450  0.12780  Biso   1.000  H
  C368     1.0000 0.48100  0.37770  0.20080  Biso   1.000  C
  H461     1.0000 0.48270  0.35000  0.20040  Biso   1.000  H
  C369     1.0000 0.44620  0.39590  0.21130  Biso   1.000  C
  C370     1.0000 0.44270  0.43570  0.21150  Biso   1.000  C
  H462     1.0000 0.41880  0.44780  0.21890  Biso   1.000  H
  C371     1.0000 0.47310  0.45720  0.20100  Biso   1.000  C
  H463     1.0000 0.47110  0.48490  0.20070  Biso   1.000  H
  C372     1.0000 0.50740  0.43960  0.19080  Biso   1.000  C
  H464     1.0000 0.52870  0.45560  0.18320  Biso   1.000  H
  C373     1.0000 0.71590  0.35100  0.23500  Biso   1.000  C
  H465     1.0000 0.72060  0.37830  0.23270  Biso   1.000  H
  H466     1.0000 0.70580  0.34610  0.26040  Biso   1.000  H
  C374     1.0000 0.41080  0.37430  0.22520  Biso   1.000  C
  H467     1.0000 0.39410  0.39220  0.24070  Biso   1.000  H
  H468     1.0000 0.39550  0.36530  0.20240  Biso   1.000  H
  N97      1.0000 0.44900  0.28000  0.20180  Biso   1.000  N
  N98      1.0000 0.54290  0.32900  0.15920  Biso   1.000  N
  N99      1.0000 0.62040  0.35016  0.17870  Biso   1.000  N
  N100     1.0000 0.51250  0.40000  0.19110  Biso   1.000  N
  O73      1.0000 0.42170  0.34140  0.24870  Biso   1.000  O
  H469     1.0000 0.42900  0.32040  0.25800  Biso   1.000  H
  O74      1.0000 0.75010  0.32990  0.23260  Biso   1.000  O
  H470     1.0000 0.76100  0.30810  0.22800  Biso   1.000  H
  H471     1.0000 0.70240  0.36050  0.25730  Biso   1.000  H
  H472     1.0000 0.73020  0.32840  0.24280  Biso   1.000  H
  C375     1.0000 0.41220  0.36940  0.21840  Biso   1.000  C
  H473     1.0000 0.38910  0.38500  0.22650  Biso   1.000  H
  H474     1.0000 0.40550  0.35540  0.19400  Biso   1.000  H
  O75      1.0000 0.74470  0.37750  0.22210  Biso   1.000  O
  H475     1.0000 0.74220  0.39760  0.23690  Biso   1.000  H
  C376     1.0000 0.96660  0.76900  0.67550  Biso   1.000  C
  C377     1.0000 0.02830  0.80210  0.64550  Biso   1.000  C
  C378     1.0000 0.14790  0.85640  0.70590  Biso   1.000  C
  H476     1.0000 0.14120  0.87150  0.72830  Biso   1.000  H
  C379     1.0000 0.18610  0.84190  0.70310  Biso   1.000  C
  C380     1.0000 0.19530  0.81920  0.67120  Biso   1.000  C
  H477     1.0000 0.22070  0.80810  0.66850  Biso   1.000  H
  C381     1.0000 0.16690  0.81260  0.64290  Biso   1.000  C
  H478     1.0000 0.17270  0.79720  0.62060  Biso   1.000  H
  C382     1.0000 0.13030  0.82870  0.64760  Biso   1.000  C
  H479     1.0000 0.11130  0.82450  0.62780  Biso   1.000  H
  C383     1.0000 0.98100  0.87770  0.70080  Biso   1.000  C
  H480     1.0000 0.98270  0.85000  0.70040  Biso   1.000  H
  C384     1.0000 0.94620  0.89590  0.71130  Biso   1.000  C
  C385     1.0000 0.94270  0.93570  0.71150  Biso   1.000  C
  H481     1.0000 0.91880  0.94780  0.71890  Biso   1.000  H
  C386     1.0000 0.97310  0.95720  0.70100  Biso   1.000  C
  H482     1.0000 0.97110  0.98490  0.70070  Biso   1.000  H
  C387     1.0000 0.00740  0.93960  0.69080  Biso   1.000  C
  H483     1.0000 0.02870  0.95560  0.68320  Biso   1.000  H
  C388     1.0000 0.21590  0.85100  0.73500  Biso   1.000  C
  H484     1.0000 0.22060  0.87830  0.73270  Biso   1.000  H
  H485     1.0000 0.20580  0.84610  0.76040  Biso   1.000  H
  C389     1.0000 0.91080  0.87430  0.72520  Biso   1.000  C
  H486     1.0000 0.89410  0.89220  0.74070  Biso   1.000  H
  H487     1.0000 0.89550  0.86530  0.70240  Biso   1.000  H
  N101     1.0000 0.94900  0.78000  0.70180  Biso   1.000  N
  N102     1.0000 0.04290  0.82900  0.65920  Biso   1.000  N
  N103     1.0000 0.12040  0.85016  0.67870  Biso   1.000  N
  N104     1.0000 0.01250  0.90000  0.69110  Biso   1.000  N
  O76      1.0000 0.92170  0.84140  0.74870  Biso   1.000  O
  H488     1.0000 0.92900  0.82040  0.75800  Biso   1.000  H
  O77      1.0000 0.25010  0.82990  0.73260  Biso   1.000  O
  H489     1.0000 0.26100  0.80810  0.72800  Biso   1.000  H
  H490     1.0000 0.20240  0.86050  0.75730  Biso   1.000  H
  H491     1.0000 0.23020  0.82840  0.74280  Biso   1.000  H
  C390     1.0000 0.91220  0.86940  0.71840  Biso   1.000  C
  H492     1.0000 0.88910  0.88500  0.72650  Biso   1.000  H
  H493     1.0000 0.90550  0.85540  0.69400  Biso   1.000  H
  O78      1.0000 0.24470  0.87750  0.72210  Biso   1.000  O
  H494     1.0000 0.24220  0.89760  0.73690  Biso   1.000  H
  C391     1.0000 0.03340  0.73100  0.67550  Biso   1.000  C
  C392     1.0000 0.97170  0.69790  0.64550  Biso   1.000  C
  C393     1.0000 0.85210  0.64360  0.70590  Biso   1.000  C
  H495     1.0000 0.85880  0.62850  0.72830  Biso   1.000  H
  C394     1.0000 0.81390  0.65810  0.70310  Biso   1.000  C
  C395     1.0000 0.80470  0.68080  0.67120  Biso   1.000  C
  H496     1.0000 0.77930  0.69190  0.66850  Biso   1.000  H
  C396     1.0000 0.83310  0.68740  0.64290  Biso   1.000  C
  H497     1.0000 0.82730  0.70280  0.62060  Biso   1.000  H
  C397     1.0000 0.86970  0.67130  0.64760  Biso   1.000  C
  H498     1.0000 0.88870  0.67550  0.62780  Biso   1.000  H
  C398     1.0000 0.01900  0.62230  0.70080  Biso   1.000  C
  H499     1.0000 0.01730  0.65000  0.70040  Biso   1.000  H
  C399     1.0000 0.05380  0.60410  0.71130  Biso   1.000  C
  C400     1.0000 0.05730  0.56430  0.71150  Biso   1.000  C
  H500     1.0000 0.08120  0.55220  0.71890  Biso   1.000  H
  C401     1.0000 0.02690  0.54280  0.70100  Biso   1.000  C
  H501     1.0000 0.02890  0.51510  0.70070  Biso   1.000  H
  C402     1.0000 0.99260  0.56040  0.69080  Biso   1.000  C
  H502     1.0000 0.97130  0.54440  0.68320  Biso   1.000  H
  C403     1.0000 0.78410  0.64900  0.73500  Biso   1.000  C
  H503     1.0000 0.77940  0.62170  0.73270  Biso   1.000  H
  H504     1.0000 0.79420  0.65390  0.76040  Biso   1.000  H
  C404     1.0000 0.08920  0.62570  0.72520  Biso   1.000  C
  H505     1.0000 0.10590  0.60780  0.74070  Biso   1.000  H
  H506     1.0000 0.10450  0.63470  0.70240  Biso   1.000  H
  N105     1.0000 0.05100  0.72000  0.70180  Biso   1.000  N
  N106     1.0000 0.95710  0.67100  0.65920  Biso   1.000  N
  N107     1.0000 0.87960  0.64984  0.67870  Biso   1.000  N
  N108     1.0000 0.98750  0.60000  0.69110  Biso   1.000  N
  O79      1.0000 0.07830  0.65860  0.74870  Biso   1.000  O
  H507     1.0000 0.07100  0.67960  0.75800  Biso   1.000  H
  O80      1.0000 0.74990  0.67010  0.73260  Biso   1.000  O
  H508     1.0000 0.73900  0.69190  0.72800  Biso   1.000  H
  H509     1.0000 0.79760  0.63950  0.75730  Biso   1.000  H
  H510     1.0000 0.76980  0.67160  0.74280  Biso   1.000  H
  C405     1.0000 0.08780  0.63060  0.71840  Biso   1.000  C
  H511     1.0000 0.11090  0.61500  0.72650  Biso   1.000  H
  H512     1.0000 0.09450  0.64460  0.69400  Biso   1.000  H
  O81      1.0000 0.75530  0.62250  0.72210  Biso   1.000  O
  H513     1.0000 0.75780  0.60240  0.73690  Biso   1.000  H
  C406     1.0000 0.53340  0.23100  0.17550  Biso   1.000  C
  C407     1.0000 0.47170  0.19790  0.14550  Biso   1.000  C
  C408     1.0000 0.35210  0.14360  0.20590  Biso   1.000  C
  H514     1.0000 0.35880  0.12850  0.22830  Biso   1.000  H
  C409     1.0000 0.31390  0.15810  0.20310  Biso   1.000  C
  C410     1.0000 0.30470  0.18080  0.17120  Biso   1.000  C
  H515     1.0000 0.27930  0.19190  0.16850  Biso   1.000  H
  C411     1.0000 0.33310  0.18740  0.14290  Biso   1.000  C
  H516     1.0000 0.32730  0.20280  0.12060  Biso   1.000  H
  C412     1.0000 0.36970  0.17130  0.14760  Biso   1.000  C
  H517     1.0000 0.38870  0.17550  0.12780  Biso   1.000  H
  C413     1.0000 0.51900  0.12230  0.20080  Biso   1.000  C
  H518     1.0000 0.51730  0.15000  0.20040  Biso   1.000  H
  C414     1.0000 0.55380  0.10410  0.21130  Biso   1.000  C
  C415     1.0000 0.55730  0.06430  0.21150  Biso   1.000  C
  H519     1.0000 0.58120  0.05220  0.21890  Biso   1.000  H
  C416     1.0000 0.52690  0.04280  0.20100  Biso   1.000  C
  H520     1.0000 0.52890  0.01510  0.20070  Biso   1.000  H
  C417     1.0000 0.49260  0.06040  0.19080  Biso   1.000  C
  H521     1.0000 0.47130  0.04440  0.18320  Biso   1.000  H
  C418     1.0000 0.28410  0.14900  0.23500  Biso   1.000  C
  H522     1.0000 0.27940  0.12170  0.23270  Biso   1.000  H
  H523     1.0000 0.29420  0.15390  0.26040  Biso   1.000  H
  C419     1.0000 0.58920  0.12570  0.22520  Biso   1.000  C
  H524     1.0000 0.60590  0.10780  0.24070  Biso   1.000  H
  H525     1.0000 0.60450  0.13470  0.20240  Biso   1.000  H
  N109     1.0000 0.55100  0.22000  0.20180  Biso   1.000  N
  N110     1.0000 0.45710  0.17100  0.15920  Biso   1.000  N
  N111     1.0000 0.37960  0.14984  0.17870  Biso   1.000  N
  N112     1.0000 0.48750  0.10000  0.19110  Biso   1.000  N
  O82      1.0000 0.57830  0.15860  0.24870  Biso   1.000  O
  H526     1.0000 0.57100  0.17960  0.25800  Biso   1.000  H
  O83      1.0000 0.24990  0.17010  0.23260  Biso   1.000  O
  H527     1.0000 0.23900  0.19190  0.22800  Biso   1.000  H
  H528     1.0000 0.29760  0.13950  0.25730  Biso   1.000  H
  H529     1.0000 0.26980  0.17160  0.24280  Biso   1.000  H
  C420     1.0000 0.58780  0.13060  0.21840  Biso   1.000  C
  H530     1.0000 0.61090  0.11500  0.22650  Biso   1.000  H
  H531     1.0000 0.59450  0.14460  0.19400  Biso   1.000  H
  O84      1.0000 0.25530  0.12250  0.22210  Biso   1.000  O
  H532     1.0000 0.25780  0.10240  0.23690  Biso   1.000  H
  C421     1.0000 0.96660  0.23100  0.82450  Biso   1.000  C
  C422     1.0000 0.02830  0.19790  0.85450  Biso   1.000  C
  C423     1.0000 0.14790  0.14360  0.79410  Biso   1.000  C
  H533     1.0000 0.14120  0.12850  0.77170  Biso   1.000  H
  C424     1.0000 0.18610  0.15810  0.79690  Biso   1.000  C
  C425     1.0000 0.19530  0.18080  0.82880  Biso   1.000  C
  H534     1.0000 0.22070  0.19190  0.83150  Biso   1.000  H
  C426     1.0000 0.16690  0.18740  0.85710  Biso   1.000  C
  H535     1.0000 0.17270  0.20280  0.87940  Biso   1.000  H
  C427     1.0000 0.13030  0.17130  0.85240  Biso   1.000  C
  H536     1.0000 0.11130  0.17550  0.87220  Biso   1.000  H
  C428     1.0000 0.98100  0.12230  0.79920  Biso   1.000  C
  H537     1.0000 0.98270  0.15000  0.79960  Biso   1.000  H
  C429     1.0000 0.94620  0.10410  0.78870  Biso   1.000  C
  C430     1.0000 0.94270  0.06430  0.78850  Biso   1.000  C
  H538     1.0000 0.91880  0.05220  0.78110  Biso   1.000  H
  C431     1.0000 0.97310  0.04280  0.79900  Biso   1.000  C
  H539     1.0000 0.97110  0.01510  0.79930  Biso   1.000  H
  C432     1.0000 0.00740  0.06040  0.80920  Biso   1.000  C
  H540     1.0000 0.02870  0.04440  0.81680  Biso   1.000  H
  C433     1.0000 0.21590  0.14900  0.76500  Biso   1.000  C
  H541     1.0000 0.22060  0.12170  0.76730  Biso   1.000  H
  H542     1.0000 0.20580  0.15390  0.73960  Biso   1.000  H
  C434     1.0000 0.91080  0.12570  0.77480  Biso   1.000  C
  H543     1.0000 0.89410  0.10780  0.75930  Biso   1.000  H
  H544     1.0000 0.89550  0.13470  0.79760  Biso   1.000  H
  N113     1.0000 0.94900  0.22000  0.79820  Biso   1.000  N
  N114     1.0000 0.04290  0.17100  0.84080  Biso   1.000  N
  N115     1.0000 0.12040  0.14984  0.82130  Biso   1.000  N
  N116     1.0000 0.01250  0.10000  0.80890  Biso   1.000  N
  O85      1.0000 0.92170  0.15860  0.75130  Biso   1.000  O
  H545     1.0000 0.92900  0.17960  0.74200  Biso   1.000  H
  O86      1.0000 0.25010  0.17010  0.76740  Biso   1.000  O
  H546     1.0000 0.26100  0.19190  0.77200  Biso   1.000  H
  H547     1.0000 0.20240  0.13950  0.74270  Biso   1.000  H
  H548     1.0000 0.23020  0.17160  0.75720  Biso   1.000  H
  C435     1.0000 0.91220  0.13060  0.78160  Biso   1.000  C
  H549     1.0000 0.88910  0.11500  0.77350  Biso   1.000  H
  H550     1.0000 0.90550  0.14460  0.80600  Biso   1.000  H
  O87      1.0000 0.24470  0.12250  0.77790  Biso   1.000  O
  H551     1.0000 0.24220  0.10240  0.76310  Biso   1.000  H
  C436     1.0000 0.46660  0.73100  0.32450  Biso   1.000  C
  C437     1.0000 0.52830  0.69790  0.35450  Biso   1.000  C
  C438     1.0000 0.64790  0.64360  0.29410  Biso   1.000  C
  H552     1.0000 0.64120  0.62850  0.27170  Biso   1.000  H
  C439     1.0000 0.68610  0.65810  0.29690  Biso   1.000  C
  C440     1.0000 0.69530  0.68080  0.32880  Biso   1.000  C
  H553     1.0000 0.72070  0.69190  0.33150  Biso   1.000  H
  C441     1.0000 0.66690  0.68740  0.35710  Biso   1.000  C
  H554     1.0000 0.67270  0.70280  0.37940  Biso   1.000  H
  C442     1.0000 0.63030  0.67130  0.35240  Biso   1.000  C
  H555     1.0000 0.61130  0.67550  0.37220  Biso   1.000  H
  C443     1.0000 0.48100  0.62230  0.29920  Biso   1.000  C
  H556     1.0000 0.48270  0.65000  0.29960  Biso   1.000  H
  C444     1.0000 0.44620  0.60410  0.28870  Biso   1.000  C
  C445     1.0000 0.44270  0.56430  0.28850  Biso   1.000  C
  H557     1.0000 0.41880  0.55220  0.28110  Biso   1.000  H
  C446     1.0000 0.47310  0.54280  0.29900  Biso   1.000  C
  H558     1.0000 0.47110  0.51510  0.29930  Biso   1.000  H
  C447     1.0000 0.50740  0.56040  0.30920  Biso   1.000  C
  H559     1.0000 0.52870  0.54440  0.31680  Biso   1.000  H
  C448     1.0000 0.71590  0.64900  0.26500  Biso   1.000  C
  H560     1.0000 0.72060  0.62170  0.26730  Biso   1.000  H
  H561     1.0000 0.70580  0.65390  0.23960  Biso   1.000  H
  C449     1.0000 0.41080  0.62570  0.27480  Biso   1.000  C
  H562     1.0000 0.39410  0.60780  0.25930  Biso   1.000  H
  H563     1.0000 0.39550  0.63470  0.29760  Biso   1.000  H
  N117     1.0000 0.44900  0.72000  0.29820  Biso   1.000  N
  N118     1.0000 0.54290  0.67100  0.34080  Biso   1.000  N
  N119     1.0000 0.62040  0.64984  0.32130  Biso   1.000  N
  N120     1.0000 0.51250  0.60000  0.30890  Biso   1.000  N
  O88      1.0000 0.42170  0.65860  0.25130  Biso   1.000  O
  H564     1.0000 0.42900  0.67960  0.24200  Biso   1.000  H
  O89      1.0000 0.75010  0.67010  0.26740  Biso   1.000  O
  H565     1.0000 0.76100  0.69190  0.27200  Biso   1.000  H
  H566     1.0000 0.70240  0.63950  0.24270  Biso   1.000  H
  H567     1.0000 0.73020  0.67160  0.25720  Biso   1.000  H
  C450     1.0000 0.41220  0.63060  0.28160  Biso   1.000  C
  H568     1.0000 0.38910  0.61500  0.27350  Biso   1.000  H
  H569     1.0000 0.40550  0.64460  0.30600  Biso   1.000  H
  O90      1.0000 0.74470  0.62250  0.27790  Biso   1.000  O
  H570     1.0000 0.74220  0.60240  0.26310  Biso   1.000  H
  C451     1.0000 0.53340  0.76900  0.32450  Biso   1.000  C
  C452     1.0000 0.47170  0.80210  0.35450  Biso   1.000  C
  C453     1.0000 0.35210  0.85640  0.29410  Biso   1.000  C
  H571     1.0000 0.35880  0.87150  0.27170  Biso   1.000  H
  C454     1.0000 0.31390  0.84190  0.29690  Biso   1.000  C
  C455     1.0000 0.30470  0.81920  0.32880  Biso   1.000  C
  H572     1.0000 0.27930  0.80810  0.33150  Biso   1.000  H
  C456     1.0000 0.33310  0.81260  0.35710  Biso   1.000  C
  H573     1.0000 0.32730  0.79720  0.37940  Biso   1.000  H
  C457     1.0000 0.36970  0.82870  0.35240  Biso   1.000  C
  H574     1.0000 0.38870  0.82450  0.37220  Biso   1.000  H
  C458     1.0000 0.51900  0.87770  0.29920  Biso   1.000  C
  H575     1.0000 0.51730  0.85000  0.29960  Biso   1.000  H
  C459     1.0000 0.55380  0.89590  0.28870  Biso   1.000  C
  C460     1.0000 0.55730  0.93570  0.28850  Biso   1.000  C
  H576     1.0000 0.58120  0.94780  0.28110  Biso   1.000  H
  C461     1.0000 0.52690  0.95720  0.29900  Biso   1.000  C
  H577     1.0000 0.52890  0.98490  0.29930  Biso   1.000  H
  C462     1.0000 0.49260  0.93960  0.30920  Biso   1.000  C
  H578     1.0000 0.47130  0.95560  0.31680  Biso   1.000  H
  C463     1.0000 0.28410  0.85100  0.26500  Biso   1.000  C
  H579     1.0000 0.27940  0.87830  0.26730  Biso   1.000  H
  H580     1.0000 0.29420  0.84610  0.23960  Biso   1.000  H
  C464     1.0000 0.58920  0.87430  0.27480  Biso   1.000  C
  H581     1.0000 0.60590  0.89220  0.25930  Biso   1.000  H
  H582     1.0000 0.60450  0.86530  0.29760  Biso   1.000  H
  N121     1.0000 0.55100  0.78000  0.29820  Biso   1.000  N
  N122     1.0000 0.45710  0.82900  0.34080  Biso   1.000  N
  N123     1.0000 0.37960  0.85016  0.32130  Biso   1.000  N
  N124     1.0000 0.48750  0.90000  0.30890  Biso   1.000  N
  O91      1.0000 0.57830  0.84140  0.25130  Biso   1.000  O
  H583     1.0000 0.57100  0.82040  0.24200  Biso   1.000  H
  O92      1.0000 0.24990  0.82990  0.26740  Biso   1.000  O
  H584     1.0000 0.23900  0.80810  0.27200  Biso   1.000  H
  H585     1.0000 0.29760  0.86050  0.24270  Biso   1.000  H
  H586     1.0000 0.26980  0.82840  0.25720  Biso   1.000  H
  C465     1.0000 0.58780  0.86940  0.28160  Biso   1.000  C
  H587     1.0000 0.61090  0.88500  0.27350  Biso   1.000  H
  H588     1.0000 0.59450  0.85540  0.30600  Biso   1.000  H
  O93      1.0000 0.25530  0.87750  0.27790  Biso   1.000  O
  H589     1.0000 0.25780  0.89760  0.26310  Biso   1.000  H
  C466     1.0000 0.03340  0.26900  0.82450  Biso   1.000  C
  C467     1.0000 0.97170  0.30210  0.85450  Biso   1.000  C
  C468     1.0000 0.85210  0.35640  0.79410  Biso   1.000  C
  H590     1.0000 0.85880  0.37150  0.77170  Biso   1.000  H
  C469     1.0000 0.81390  0.34190  0.79690  Biso   1.000  C
  C470     1.0000 0.80470  0.31920  0.82880  Biso   1.000  C
  H591     1.0000 0.77930  0.30810  0.83150  Biso   1.000  H
  C471     1.0000 0.83310  0.31260  0.85710  Biso   1.000  C
  H592     1.0000 0.82730  0.29720  0.87940  Biso   1.000  H
  C472     1.0000 0.86970  0.32870  0.85240  Biso   1.000  C
  H593     1.0000 0.88870  0.32450  0.87220  Biso   1.000  H
  C473     1.0000 0.01900  0.37770  0.79920  Biso   1.000  C
  H594     1.0000 0.01730  0.35000  0.79960  Biso   1.000  H
  C474     1.0000 0.05380  0.39590  0.78870  Biso   1.000  C
  C475     1.0000 0.05730  0.43570  0.78850  Biso   1.000  C
  H595     1.0000 0.08120  0.44780  0.78110  Biso   1.000  H
  C476     1.0000 0.02690  0.45720  0.79900  Biso   1.000  C
  H596     1.0000 0.02890  0.48490  0.79930  Biso   1.000  H
  C477     1.0000 0.99260  0.43960  0.80920  Biso   1.000  C
  H597     1.0000 0.97130  0.45560  0.81680  Biso   1.000  H
  C478     1.0000 0.78410  0.35100  0.76500  Biso   1.000  C
  H598     1.0000 0.77940  0.37830  0.76730  Biso   1.000  H
  H599     1.0000 0.79420  0.34610  0.73960  Biso   1.000  H
  C479     1.0000 0.08920  0.37430  0.77480  Biso   1.000  C
  H600     1.0000 0.10590  0.39220  0.75930  Biso   1.000  H
  H601     1.0000 0.10450  0.36530  0.79760  Biso   1.000  H
  N125     1.0000 0.05100  0.28000  0.79820  Biso   1.000  N
  N126     1.0000 0.95710  0.32900  0.84080  Biso   1.000  N
  N127     1.0000 0.87960  0.35016  0.82130  Biso   1.000  N
  N128     1.0000 0.98750  0.40000  0.80890  Biso   1.000  N
  O94      1.0000 0.07830  0.34140  0.75130  Biso   1.000  O
  H602     1.0000 0.07100  0.32040  0.74200  Biso   1.000  H
  O95      1.0000 0.74990  0.32990  0.76740  Biso   1.000  O
  H603     1.0000 0.73900  0.30810  0.77200  Biso   1.000  H
  H604     1.0000 0.79760  0.36050  0.74270  Biso   1.000  H
  H605     1.0000 0.76980  0.32840  0.75720  Biso   1.000  H
  C480     1.0000 0.08780  0.36940  0.78160  Biso   1.000  C
  H606     1.0000 0.11090  0.38500  0.77350  Biso   1.000  H
  H607     1.0000 0.09450  0.35540  0.80600  Biso   1.000  H
  O96      1.0000 0.75530  0.37750  0.77790  Biso   1.000  O
  H608     1.0000 0.75780  0.39760  0.76310  Biso   1.000  H
  C481     1.0000 0.76900  0.32450  0.53340  Biso   1.000  C
  C482     1.0000 0.80210  0.35450  0.47170  Biso   1.000  C
  C483     1.0000 0.85640  0.29410  0.35210  Biso   1.000  C
  H609     1.0000 0.87150  0.27170  0.35880  Biso   1.000  H
  C484     1.0000 0.84190  0.29690  0.31390  Biso   1.000  C
  C485     1.0000 0.81920  0.32880  0.30470  Biso   1.000  C
  H610     1.0000 0.80810  0.33150  0.27930  Biso   1.000  H
  C486     1.0000 0.81260  0.35710  0.33310  Biso   1.000  C
  H611     1.0000 0.79720  0.37940  0.32730  Biso   1.000  H
  C487     1.0000 0.82870  0.35240  0.36970  Biso   1.000  C
  H612     1.0000 0.82450  0.37220  0.38870  Biso   1.000  H
  C488     1.0000 0.87770  0.29920  0.51900  Biso   1.000  C
  H613     1.0000 0.85000  0.29960  0.51730  Biso   1.000  H
  C489     1.0000 0.89590  0.28870  0.55380  Biso   1.000  C
  C490     1.0000 0.93570  0.28850  0.55730  Biso   1.000  C
  H614     1.0000 0.94780  0.28110  0.58120  Biso   1.000  H
  C491     1.0000 0.95720  0.29900  0.52690  Biso   1.000  C
  H615     1.0000 0.98490  0.29930  0.52890  Biso   1.000  H
  C492     1.0000 0.93960  0.30920  0.49260  Biso   1.000  C
  H616     1.0000 0.95560  0.31680  0.47130  Biso   1.000  H
  C493     1.0000 0.85100  0.26500  0.28410  Biso   1.000  C
  H617     1.0000 0.87830  0.26730  0.27940  Biso   1.000  H
  H618     1.0000 0.84610  0.23960  0.29420  Biso   1.000  H
  C494     1.0000 0.87430  0.27480  0.58920  Biso   1.000  C
  H619     1.0000 0.89220  0.25930  0.60590  Biso   1.000  H
  H620     1.0000 0.86530  0.29760  0.60450  Biso   1.000  H
  N129     1.0000 0.78000  0.29820  0.55100  Biso   1.000  N
  N130     1.0000 0.82900  0.34080  0.45710  Biso   1.000  N
  N131     1.0000 0.85016  0.32130  0.37960  Biso   1.000  N
  N132     1.0000 0.90000  0.30890  0.48750  Biso   1.000  N
  O97      1.0000 0.84140  0.25130  0.57830  Biso   1.000  O
  H621     1.0000 0.82040  0.24200  0.57100  Biso   1.000  H
  O98      1.0000 0.82990  0.26740  0.24990  Biso   1.000  O
  H622     1.0000 0.80810  0.27200  0.23900  Biso   1.000  H
  H623     1.0000 0.86050  0.24270  0.29760  Biso   1.000  H
  H624     1.0000 0.82840  0.25720  0.26980  Biso   1.000  H
  C495     1.0000 0.86940  0.28160  0.58780  Biso   1.000  C
  H625     1.0000 0.88500  0.27350  0.61090  Biso   1.000  H
  H626     1.0000 0.85540  0.30600  0.59450  Biso   1.000  H
  O99      1.0000 0.87750  0.27790  0.25530  Biso   1.000  O
  H627     1.0000 0.89760  0.26310  0.25780  Biso   1.000  H
  C496     1.0000 0.26900  0.82450  0.03340  Biso   1.000  C
  C497     1.0000 0.30210  0.85450  0.97170  Biso   1.000  C
  C498     1.0000 0.35640  0.79410  0.85210  Biso   1.000  C
  H628     1.0000 0.37150  0.77170  0.85880  Biso   1.000  H
  C499     1.0000 0.34190  0.79690  0.81390  Biso   1.000  C
  C500     1.0000 0.31920  0.82880  0.80470  Biso   1.000  C
  H629     1.0000 0.30810  0.83150  0.77930  Biso   1.000  H
  C501     1.0000 0.31260  0.85710  0.83310  Biso   1.000  C
  H630     1.0000 0.29720  0.87940  0.82730  Biso   1.000  H
  C502     1.0000 0.32870  0.85240  0.86970  Biso   1.000  C
  H631     1.0000 0.32450  0.87220  0.88870  Biso   1.000  H
  C503     1.0000 0.37770  0.79920  0.01900  Biso   1.000  C
  H632     1.0000 0.35000  0.79960  0.01730  Biso   1.000  H
  C504     1.0000 0.39590  0.78870  0.05380  Biso   1.000  C
  C505     1.0000 0.43570  0.78850  0.05730  Biso   1.000  C
  H633     1.0000 0.44780  0.78110  0.08120  Biso   1.000  H
  C506     1.0000 0.45720  0.79900  0.02690  Biso   1.000  C
  H634     1.0000 0.48490  0.79930  0.02890  Biso   1.000  H
  C507     1.0000 0.43960  0.80920  0.99260  Biso   1.000  C
  H635     1.0000 0.45560  0.81680  0.97130  Biso   1.000  H
  C508     1.0000 0.35100  0.76500  0.78410  Biso   1.000  C
  H636     1.0000 0.37830  0.76730  0.77940  Biso   1.000  H
  H637     1.0000 0.34610  0.73960  0.79420  Biso   1.000  H
  C509     1.0000 0.37430  0.77480  0.08920  Biso   1.000  C
  H638     1.0000 0.39220  0.75930  0.10590  Biso   1.000  H
  H639     1.0000 0.36530  0.79760  0.10450  Biso   1.000  H
  N133     1.0000 0.28000  0.79820  0.05100  Biso   1.000  N
  N134     1.0000 0.32900  0.84080  0.95710  Biso   1.000  N
  N135     1.0000 0.35016  0.82130  0.87960  Biso   1.000  N
  N136     1.0000 0.40000  0.80890  0.98750  Biso   1.000  N
  O100     1.0000 0.34140  0.75130  0.07830  Biso   1.000  O
  H640     1.0000 0.32040  0.74200  0.07100  Biso   1.000  H
  O101     1.0000 0.32990  0.76740  0.74990  Biso   1.000  O
  H641     1.0000 0.30810  0.77200  0.73900  Biso   1.000  H
  H642     1.0000 0.36050  0.74270  0.79760  Biso   1.000  H
  H643     1.0000 0.32840  0.75720  0.76980  Biso   1.000  H
  C510     1.0000 0.36940  0.78160  0.08780  Biso   1.000  C
  H644     1.0000 0.38500  0.77350  0.11090  Biso   1.000  H
  H645     1.0000 0.35540  0.80600  0.09450  Biso   1.000  H
  O102     1.0000 0.37750  0.77790  0.75530  Biso   1.000  O
  H646     1.0000 0.39760  0.76310  0.75780  Biso   1.000  H
  C511     1.0000 0.23100  0.82450  0.96660  Biso   1.000  C
  C512     1.0000 0.19790  0.85450  0.02830  Biso   1.000  C
  C513     1.0000 0.14360  0.79410  0.14790  Biso   1.000  C
  H647     1.0000 0.12850  0.77170  0.14120  Biso   1.000  H
  C514     1.0000 0.15810  0.79690  0.18610  Biso   1.000  C
  C515     1.0000 0.18080  0.82880  0.19530  Biso   1.000  C
  H648     1.0000 0.19190  0.83150  0.22070  Biso   1.000  H
  C516     1.0000 0.18740  0.85710  0.16690  Biso   1.000  C
  H649     1.0000 0.20280  0.87940  0.17270  Biso   1.000  H
  C517     1.0000 0.17130  0.85240  0.13030  Biso   1.000  C
  H650     1.0000 0.17550  0.87220  0.11130  Biso   1.000  H
  C518     1.0000 0.12230  0.79920  0.98100  Biso   1.000  C
  H651     1.0000 0.15000  0.79960  0.98270  Biso   1.000  H
  C519     1.0000 0.10410  0.78870  0.94620  Biso   1.000  C
  C520     1.0000 0.06430  0.78850  0.94270  Biso   1.000  C
  H652     1.0000 0.05220  0.78110  0.91880  Biso   1.000  H
  C521     1.0000 0.04280  0.79900  0.97310  Biso   1.000  C
  H653     1.0000 0.01510  0.79930  0.97110  Biso   1.000  H
  C522     1.0000 0.06040  0.80920  0.00740  Biso   1.000  C
  H654     1.0000 0.04440  0.81680  0.02870  Biso   1.000  H
  C523     1.0000 0.14900  0.76500  0.21590  Biso   1.000  C
  H655     1.0000 0.12170  0.76730  0.22060  Biso   1.000  H
  H656     1.0000 0.15390  0.73960  0.20580  Biso   1.000  H
  C524     1.0000 0.12570  0.77480  0.91080  Biso   1.000  C
  H657     1.0000 0.10780  0.75930  0.89410  Biso   1.000  H
  H658     1.0000 0.13470  0.79760  0.89550  Biso   1.000  H
  N137     1.0000 0.22000  0.79820  0.94900  Biso   1.000  N
  N138     1.0000 0.17100  0.84080  0.04290  Biso   1.000  N
  N139     1.0000 0.14984  0.82130  0.12040  Biso   1.000  N
  N140     1.0000 0.10000  0.80890  0.01250  Biso   1.000  N
  O103     1.0000 0.15860  0.75130  0.92170  Biso   1.000  O
  H659     1.0000 0.17960  0.74200  0.92900  Biso   1.000  H
  O104     1.0000 0.17010  0.76740  0.25010  Biso   1.000  O
  H660     1.0000 0.19190  0.77200  0.26100  Biso   1.000  H
  H661     1.0000 0.13950  0.74270  0.20240  Biso   1.000  H
  H662     1.0000 0.17160  0.75720  0.23020  Biso   1.000  H
  C525     1.0000 0.13060  0.78160  0.91220  Biso   1.000  C
  H663     1.0000 0.11500  0.77350  0.88910  Biso   1.000  H
  H664     1.0000 0.14460  0.80600  0.90550  Biso   1.000  H
  O105     1.0000 0.12250  0.77790  0.24470  Biso   1.000  O
  H665     1.0000 0.10240  0.76310  0.24220  Biso   1.000  H
  C526     1.0000 0.73100  0.32450  0.46660  Biso   1.000  C
  C527     1.0000 0.69790  0.35450  0.52830  Biso   1.000  C
  C528     1.0000 0.64360  0.29410  0.64790  Biso   1.000  C
  H666     1.0000 0.62850  0.27170  0.64120  Biso   1.000  H
  C529     1.0000 0.65810  0.29690  0.68610  Biso   1.000  C
  C530     1.0000 0.68080  0.32880  0.69530  Biso   1.000  C
  H667     1.0000 0.69190  0.33150  0.72070  Biso   1.000  H
  C531     1.0000 0.68740  0.35710  0.66690  Biso   1.000  C
  H668     1.0000 0.70280  0.37940  0.67270  Biso   1.000  H
  C532     1.0000 0.67130  0.35240  0.63030  Biso   1.000  C
  H669     1.0000 0.67550  0.37220  0.61130  Biso   1.000  H
  C533     1.0000 0.62230  0.29920  0.48100  Biso   1.000  C
  H670     1.0000 0.65000  0.29960  0.48270  Biso   1.000  H
  C534     1.0000 0.60410  0.28870  0.44620  Biso   1.000  C
  C535     1.0000 0.56430  0.28850  0.44270  Biso   1.000  C
  H671     1.0000 0.55220  0.28110  0.41880  Biso   1.000  H
  C536     1.0000 0.54280  0.29900  0.47310  Biso   1.000  C
  H672     1.0000 0.51510  0.29930  0.47110  Biso   1.000  H
  C537     1.0000 0.56040  0.30920  0.50740  Biso   1.000  C
  H673     1.0000 0.54440  0.31680  0.52870  Biso   1.000  H
  C538     1.0000 0.64900  0.26500  0.71590  Biso   1.000  C
  H674     1.0000 0.62170  0.26730  0.72060  Biso   1.000  H
  H675     1.0000 0.65390  0.23960  0.70580  Biso   1.000  H
  C539     1.0000 0.62570  0.27480  0.41080  Biso   1.000  C
  H676     1.0000 0.60780  0.25930  0.39410  Biso   1.000  H
  H677     1.0000 0.63470  0.29760  0.39550  Biso   1.000  H
  N141     1.0000 0.72000  0.29820  0.44900  Biso   1.000  N
  N142     1.0000 0.67100  0.34080  0.54290  Biso   1.000  N
  N143     1.0000 0.64984  0.32130  0.62040  Biso   1.000  N
  N144     1.0000 0.60000  0.30890  0.51250  Biso   1.000  N
  O106     1.0000 0.65860  0.25130  0.42170  Biso   1.000  O
  H678     1.0000 0.67960  0.24200  0.42900  Biso   1.000  H
  O107     1.0000 0.67010  0.26740  0.75010  Biso   1.000  O
  H679     1.0000 0.69190  0.27200  0.76100  Biso   1.000  H
  H680     1.0000 0.63950  0.24270  0.70240  Biso   1.000  H
  H681     1.0000 0.67160  0.25720  0.73020  Biso   1.000  H
  C540     1.0000 0.63060  0.28160  0.41220  Biso   1.000  C
  H682     1.0000 0.61500  0.27350  0.38910  Biso   1.000  H
  H683     1.0000 0.64460  0.30600  0.40550  Biso   1.000  H
  O108     1.0000 0.62250  0.27790  0.74470  Biso   1.000  O
  H684     1.0000 0.60240  0.26310  0.74220  Biso   1.000  H
  C541     1.0000 0.73100  0.67550  0.03340  Biso   1.000  C
  C542     1.0000 0.69790  0.64550  0.97170  Biso   1.000  C
  C543     1.0000 0.64360  0.70590  0.85210  Biso   1.000  C
  H685     1.0000 0.62850  0.72830  0.85880  Biso   1.000  H
  C544     1.0000 0.65810  0.70310  0.81390  Biso   1.000  C
  C545     1.0000 0.68080  0.67120  0.80470  Biso   1.000  C
  H686     1.0000 0.69190  0.66850  0.77930  Biso   1.000  H
  C546     1.0000 0.68740  0.64290  0.83310  Biso   1.000  C
  H687     1.0000 0.70280  0.62060  0.82730  Biso   1.000  H
  C547     1.0000 0.67130  0.64760  0.86970  Biso   1.000  C
  H688     1.0000 0.67550  0.62780  0.88870  Biso   1.000  H
  C548     1.0000 0.62230  0.70080  0.01900  Biso   1.000  C
  H689     1.0000 0.65000  0.70040  0.01730  Biso   1.000  H
  C549     1.0000 0.60410  0.71130  0.05380  Biso   1.000  C
  C550     1.0000 0.56430  0.71150  0.05730  Biso   1.000  C
  H690     1.0000 0.55220  0.71890  0.08120  Biso   1.000  H
  C551     1.0000 0.54280  0.70100  0.02690  Biso   1.000  C
  H691     1.0000 0.51510  0.70070  0.02890  Biso   1.000  H
  C552     1.0000 0.56040  0.69080  0.99260  Biso   1.000  C
  H692     1.0000 0.54440  0.68320  0.97130  Biso   1.000  H
  C553     1.0000 0.64900  0.73500  0.78410  Biso   1.000  C
  H693     1.0000 0.62170  0.73270  0.77940  Biso   1.000  H
  H694     1.0000 0.65390  0.76040  0.79420  Biso   1.000  H
  C554     1.0000 0.62570  0.72520  0.08920  Biso   1.000  C
  H695     1.0000 0.60780  0.74070  0.10590  Biso   1.000  H
  H696     1.0000 0.63470  0.70240  0.10450  Biso   1.000  H
  N145     1.0000 0.72000  0.70180  0.05100  Biso   1.000  N
  N146     1.0000 0.67100  0.65920  0.95710  Biso   1.000  N
  N147     1.0000 0.64984  0.67870  0.87960  Biso   1.000  N
  N148     1.0000 0.60000  0.69110  0.98750  Biso   1.000  N
  O109     1.0000 0.65860  0.74870  0.07830  Biso   1.000  O
  H697     1.0000 0.67960  0.75800  0.07100  Biso   1.000  H
  O110     1.0000 0.67010  0.73260  0.74990  Biso   1.000  O
  H698     1.0000 0.69190  0.72800  0.73900  Biso   1.000  H
  H699     1.0000 0.63950  0.75730  0.79760  Biso   1.000  H
  H700     1.0000 0.67160  0.74280  0.76980  Biso   1.000  H
  C555     1.0000 0.63060  0.71840  0.08780  Biso   1.000  C
  H701     1.0000 0.61500  0.72650  0.11090  Biso   1.000  H
  H702     1.0000 0.64460  0.69400  0.09450  Biso   1.000  H
  O111     1.0000 0.62250  0.72210  0.75530  Biso   1.000  O
  H703     1.0000 0.60240  0.73690  0.75780  Biso   1.000  H
  C556     1.0000 0.23100  0.17550  0.53340  Biso   1.000  C
  C557     1.0000 0.19790  0.14550  0.47170  Biso   1.000  C
  C558     1.0000 0.14360  0.20590  0.35210  Biso   1.000  C
  H704     1.0000 0.12850  0.22830  0.35880  Biso   1.000  H
  C559     1.0000 0.15810  0.20310  0.31390  Biso   1.000  C
  C560     1.0000 0.18080  0.17120  0.30470  Biso   1.000  C
  H705     1.0000 0.19190  0.16850  0.27930  Biso   1.000  H
  C561     1.0000 0.18740  0.14290  0.33310  Biso   1.000  C
  H706     1.0000 0.20280  0.12060  0.32730  Biso   1.000  H
  C562     1.0000 0.17130  0.14760  0.36970  Biso   1.000  C
  H707     1.0000 0.17550  0.12780  0.38870  Biso   1.000  H
  C563     1.0000 0.12230  0.20080  0.51900  Biso   1.000  C
  H708     1.0000 0.15000  0.20040  0.51730  Biso   1.000  H
  C564     1.0000 0.10410  0.21130  0.55380  Biso   1.000  C
  C565     1.0000 0.06430  0.21150  0.55730  Biso   1.000  C
  H709     1.0000 0.05220  0.21890  0.58120  Biso   1.000  H
  C566     1.0000 0.04280  0.20100  0.52690  Biso   1.000  C
  H710     1.0000 0.01510  0.20070  0.52890  Biso   1.000  H
  C567     1.0000 0.06040  0.19080  0.49260  Biso   1.000  C
  H711     1.0000 0.04440  0.18320  0.47130  Biso   1.000  H
  C568     1.0000 0.14900  0.23500  0.28410  Biso   1.000  C
  H712     1.0000 0.12170  0.23270  0.27940  Biso   1.000  H
  H713     1.0000 0.15390  0.26040  0.29420  Biso   1.000  H
  C569     1.0000 0.12570  0.22520  0.58920  Biso   1.000  C
  H714     1.0000 0.10780  0.24070  0.60590  Biso   1.000  H
  H715     1.0000 0.13470  0.20240  0.60450  Biso   1.000  H
  N149     1.0000 0.22000  0.20180  0.55100  Biso   1.000  N
  N150     1.0000 0.17100  0.15920  0.45710  Biso   1.000  N
  N151     1.0000 0.14984  0.17870  0.37960  Biso   1.000  N
  N152     1.0000 0.10000  0.19110  0.48750  Biso   1.000  N
  O112     1.0000 0.15860  0.24870  0.57830  Biso   1.000  O
  H716     1.0000 0.17960  0.25800  0.57100  Biso   1.000  H
  O113     1.0000 0.17010  0.23260  0.24990  Biso   1.000  O
  H717     1.0000 0.19190  0.22800  0.23900  Biso   1.000  H
  H718     1.0000 0.13950  0.25730  0.29760  Biso   1.000  H
  H719     1.0000 0.17160  0.24280  0.26980  Biso   1.000  H
  C570     1.0000 0.13060  0.21840  0.58780  Biso   1.000  C
  H720     1.0000 0.11500  0.22650  0.61090  Biso   1.000  H
  H721     1.0000 0.14460  0.19400  0.59450  Biso   1.000  H
  O114     1.0000 0.12250  0.22210  0.25530  Biso   1.000  O
  H722     1.0000 0.10240  0.23690  0.25780  Biso   1.000  H
  C571     1.0000 0.26900  0.17550  0.46660  Biso   1.000  C
  C572     1.0000 0.30210  0.14550  0.52830  Biso   1.000  C
  C573     1.0000 0.35640  0.20590  0.64790  Biso   1.000  C
  H723     1.0000 0.37150  0.22830  0.64120  Biso   1.000  H
  C574     1.0000 0.34190  0.20310  0.68610  Biso   1.000  C
  C575     1.0000 0.31920  0.17120  0.69530  Biso   1.000  C
  H724     1.0000 0.30810  0.16850  0.72070  Biso   1.000  H
  C576     1.0000 0.31260  0.14290  0.66690  Biso   1.000  C
  H725     1.0000 0.29720  0.12060  0.67270  Biso   1.000  H
  C577     1.0000 0.32870  0.14760  0.63030  Biso   1.000  C
  H726     1.0000 0.32450  0.12780  0.61130  Biso   1.000  H
  C578     1.0000 0.37770  0.20080  0.48100  Biso   1.000  C
  H727     1.0000 0.35000  0.20040  0.48270  Biso   1.000  H
  C579     1.0000 0.39590  0.21130  0.44620  Biso   1.000  C
  C580     1.0000 0.43570  0.21150  0.44270  Biso   1.000  C
  H728     1.0000 0.44780  0.21890  0.41880  Biso   1.000  H
  C581     1.0000 0.45720  0.20100  0.47310  Biso   1.000  C
  H729     1.0000 0.48490  0.20070  0.47110  Biso   1.000  H
  C582     1.0000 0.43960  0.19080  0.50740  Biso   1.000  C
  H730     1.0000 0.45560  0.18320  0.52870  Biso   1.000  H
  C583     1.0000 0.35100  0.23500  0.71590  Biso   1.000  C
  H731     1.0000 0.37830  0.23270  0.72060  Biso   1.000  H
  H732     1.0000 0.34610  0.26040  0.70580  Biso   1.000  H
  C584     1.0000 0.37430  0.22520  0.41080  Biso   1.000  C
  H733     1.0000 0.39220  0.24070  0.39410  Biso   1.000  H
  H734     1.0000 0.36530  0.20240  0.39550  Biso   1.000  H
  N153     1.0000 0.28000  0.20180  0.44900  Biso   1.000  N
  N154     1.0000 0.32900  0.15920  0.54290  Biso   1.000  N
  N155     1.0000 0.35016  0.17870  0.62040  Biso   1.000  N
  N156     1.0000 0.40000  0.19110  0.51250  Biso   1.000  N
  O115     1.0000 0.34140  0.24870  0.42170  Biso   1.000  O
  H735     1.0000 0.32040  0.25800  0.42900  Biso   1.000  H
  O116     1.0000 0.32990  0.23260  0.75010  Biso   1.000  O
  H736     1.0000 0.30810  0.22800  0.76100  Biso   1.000  H
  H737     1.0000 0.36050  0.25730  0.70240  Biso   1.000  H
  H738     1.0000 0.32840  0.24280  0.73020  Biso   1.000  H
  C585     1.0000 0.36940  0.21840  0.41220  Biso   1.000  C
  H739     1.0000 0.38500  0.22650  0.38910  Biso   1.000  H
  H740     1.0000 0.35540  0.19400  0.40550  Biso   1.000  H
  O117     1.0000 0.37750  0.22210  0.74470  Biso   1.000  O
  H741     1.0000 0.39760  0.23690  0.74220  Biso   1.000  H
  C586     1.0000 0.76900  0.67550  0.96660  Biso   1.000  C
  C587     1.0000 0.80210  0.64550  0.02830  Biso   1.000  C
  C588     1.0000 0.85640  0.70590  0.14790  Biso   1.000  C
  H742     1.0000 0.87150  0.72830  0.14120  Biso   1.000  H
  C589     1.0000 0.84190  0.70310  0.18610  Biso   1.000  C
  C590     1.0000 0.81920  0.67120  0.19530  Biso   1.000  C
  H743     1.0000 0.80810  0.66850  0.22070  Biso   1.000  H
  C591     1.0000 0.81260  0.64290  0.16690  Biso   1.000  C
  H744     1.0000 0.79720  0.62060  0.17270  Biso   1.000  H
  C592     1.0000 0.82870  0.64760  0.13030  Biso   1.000  C
  H745     1.0000 0.82450  0.62780  0.11130  Biso   1.000  H
  C593     1.0000 0.87770  0.70080  0.98100  Biso   1.000  C
  H746     1.0000 0.85000  0.70040  0.98270  Biso   1.000  H
  C594     1.0000 0.89590  0.71130  0.94620  Biso   1.000  C
  C595     1.0000 0.93570  0.71150  0.94270  Biso   1.000  C
  H747     1.0000 0.94780  0.71890  0.91880  Biso   1.000  H
  C596     1.0000 0.95720  0.70100  0.97310  Biso   1.000  C
  H748     1.0000 0.98490  0.70070  0.97110  Biso   1.000  H
  C597     1.0000 0.93960  0.69080  0.00740  Biso   1.000  C
  H749     1.0000 0.95560  0.68320  0.02870  Biso   1.000  H
  C598     1.0000 0.85100  0.73500  0.21590  Biso   1.000  C
  H750     1.0000 0.87830  0.73270  0.22060  Biso   1.000  H
  H751     1.0000 0.84610  0.76040  0.20580  Biso   1.000  H
  C599     1.0000 0.87430  0.72520  0.91080  Biso   1.000  C
  H752     1.0000 0.89220  0.74070  0.89410  Biso   1.000  H
  H753     1.0000 0.86530  0.70240  0.89550  Biso   1.000  H
  N157     1.0000 0.78000  0.70180  0.94900  Biso   1.000  N
  N158     1.0000 0.82900  0.65920  0.04290  Biso   1.000  N
  N159     1.0000 0.85016  0.67870  0.12040  Biso   1.000  N
  N160     1.0000 0.90000  0.69110  0.01250  Biso   1.000  N
  O118     1.0000 0.84140  0.74870  0.92170  Biso   1.000  O
  H754     1.0000 0.82040  0.75800  0.92900  Biso   1.000  H
  O119     1.0000 0.82990  0.73260  0.25010  Biso   1.000  O
  H755     1.0000 0.80810  0.72800  0.26100  Biso   1.000  H
  H756     1.0000 0.86050  0.75730  0.20240  Biso   1.000  H
  H757     1.0000 0.82840  0.74280  0.23020  Biso   1.000  H
  C600     1.0000 0.86940  0.71840  0.91220  Biso   1.000  C
  H758     1.0000 0.88500  0.72650  0.88910  Biso   1.000  H
  H759     1.0000 0.85540  0.69400  0.90550  Biso   1.000  H
  O120     1.0000 0.87750  0.72210  0.24470  Biso   1.000  O
  H760     1.0000 0.89760  0.73690  0.24220  Biso   1.000  H
  C601     1.0000 0.82450  0.96660  0.23100  Biso   1.000  C
  C602     1.0000 0.85450  0.02830  0.19790  Biso   1.000  C
  C603     1.0000 0.79410  0.14790  0.14360  Biso   1.000  C
  H761     1.0000 0.77170  0.14120  0.12850  Biso   1.000  H
  C604     1.0000 0.79690  0.18610  0.15810  Biso   1.000  C
  C605     1.0000 0.82880  0.19530  0.18080  Biso   1.000  C
  H762     1.0000 0.83150  0.22070  0.19190  Biso   1.000  H
  C606     1.0000 0.85710  0.16690  0.18740  Biso   1.000  C
  H763     1.0000 0.87940  0.17270  0.20280  Biso   1.000  H
  C607     1.0000 0.85240  0.13030  0.17130  Biso   1.000  C
  H764     1.0000 0.87220  0.11130  0.17550  Biso   1.000  H
  C608     1.0000 0.79920  0.98100  0.12230  Biso   1.000  C
  H765     1.0000 0.79960  0.98270  0.15000  Biso   1.000  H
  C609     1.0000 0.78870  0.94620  0.10410  Biso   1.000  C
  C610     1.0000 0.78850  0.94270  0.06430  Biso   1.000  C
  H766     1.0000 0.78110  0.91880  0.05220  Biso   1.000  H
  C611     1.0000 0.79900  0.97310  0.04280  Biso   1.000  C
  H767     1.0000 0.79930  0.97110  0.01510  Biso   1.000  H
  C612     1.0000 0.80920  0.00740  0.06040  Biso   1.000  C
  H768     1.0000 0.81680  0.02870  0.04440  Biso   1.000  H
  C613     1.0000 0.76500  0.21590  0.14900  Biso   1.000  C
  H769     1.0000 0.76730  0.22060  0.12170  Biso   1.000  H
  H770     1.0000 0.73960  0.20580  0.15390  Biso   1.000  H
  C614     1.0000 0.77480  0.91080  0.12570  Biso   1.000  C
  H771     1.0000 0.75930  0.89410  0.10780  Biso   1.000  H
  H772     1.0000 0.79760  0.89550  0.13470  Biso   1.000  H
  N161     1.0000 0.79820  0.94900  0.22000  Biso   1.000  N
  N162     1.0000 0.84080  0.04290  0.17100  Biso   1.000  N
  N163     1.0000 0.82130  0.12040  0.14984  Biso   1.000  N
  N164     1.0000 0.80890  0.01250  0.10000  Biso   1.000  N
  O121     1.0000 0.75130  0.92170  0.15860  Biso   1.000  O
  H773     1.0000 0.74200  0.92900  0.17960  Biso   1.000  H
  O122     1.0000 0.76740  0.25010  0.17010  Biso   1.000  O
  H774     1.0000 0.77200  0.26100  0.19190  Biso   1.000  H
  H775     1.0000 0.74270  0.20240  0.13950  Biso   1.000  H
  H776     1.0000 0.75720  0.23020  0.17160  Biso   1.000  H
  C615     1.0000 0.78160  0.91220  0.13060  Biso   1.000  C
  H777     1.0000 0.77350  0.88910  0.11500  Biso   1.000  H
  H778     1.0000 0.80600  0.90550  0.14460  Biso   1.000  H
  O123     1.0000 0.77790  0.24470  0.12250  Biso   1.000  O
  H779     1.0000 0.76310  0.24220  0.10240  Biso   1.000  H
  C616     1.0000 0.32450  0.46660  0.73100  Biso   1.000  C
  C617     1.0000 0.35450  0.52830  0.69790  Biso   1.000  C
  C618     1.0000 0.29410  0.64790  0.64360  Biso   1.000  C
  H780     1.0000 0.27170  0.64120  0.62850  Biso   1.000  H
  C619     1.0000 0.29690  0.68610  0.65810  Biso   1.000  C
  C620     1.0000 0.32880  0.69530  0.68080  Biso   1.000  C
  H781     1.0000 0.33150  0.72070  0.69190  Biso   1.000  H
  C621     1.0000 0.35710  0.66690  0.68740  Biso   1.000  C
  H782     1.0000 0.37940  0.67270  0.70280  Biso   1.000  H
  C622     1.0000 0.35240  0.63030  0.67130  Biso   1.000  C
  H783     1.0000 0.37220  0.61130  0.67550  Biso   1.000  H
  C623     1.0000 0.29920  0.48100  0.62230  Biso   1.000  C
  H784     1.0000 0.29960  0.48270  0.65000  Biso   1.000  H
  C624     1.0000 0.28870  0.44620  0.60410  Biso   1.000  C
  C625     1.0000 0.28850  0.44270  0.56430  Biso   1.000  C
  H785     1.0000 0.28110  0.41880  0.55220  Biso   1.000  H
  C626     1.0000 0.29900  0.47310  0.54280  Biso   1.000  C
  H786     1.0000 0.29930  0.47110  0.51510  Biso   1.000  H
  C627     1.0000 0.30920  0.50740  0.56040  Biso   1.000  C
  H787     1.0000 0.31680  0.52870  0.54440  Biso   1.000  H
  C628     1.0000 0.26500  0.71590  0.64900  Biso   1.000  C
  H788     1.0000 0.26730  0.72060  0.62170  Biso   1.000  H
  H789     1.0000 0.23960  0.70580  0.65390  Biso   1.000  H
  C629     1.0000 0.27480  0.41080  0.62570  Biso   1.000  C
  H790     1.0000 0.25930  0.39410  0.60780  Biso   1.000  H
  H791     1.0000 0.29760  0.39550  0.63470  Biso   1.000  H
  N165     1.0000 0.29820  0.44900  0.72000  Biso   1.000  N
  N166     1.0000 0.34080  0.54290  0.67100  Biso   1.000  N
  N167     1.0000 0.32130  0.62040  0.64984  Biso   1.000  N
  N168     1.0000 0.30890  0.51250  0.60000  Biso   1.000  N
  O124     1.0000 0.25130  0.42170  0.65860  Biso   1.000  O
  H792     1.0000 0.24200  0.42900  0.67960  Biso   1.000  H
  O125     1.0000 0.26740  0.75010  0.67010  Biso   1.000  O
  H793     1.0000 0.27200  0.76100  0.69190  Biso   1.000  H
  H794     1.0000 0.24270  0.70240  0.63950  Biso   1.000  H
  H795     1.0000 0.25720  0.73020  0.67160  Biso   1.000  H
  C630     1.0000 0.28160  0.41220  0.63060  Biso   1.000  C
  H796     1.0000 0.27350  0.38910  0.61500  Biso   1.000  H
  H797     1.0000 0.30600  0.40550  0.64460  Biso   1.000  H
  O126     1.0000 0.27790  0.74470  0.62250  Biso   1.000  O
  H798     1.0000 0.26310  0.74220  0.60240  Biso   1.000  H
  C631     1.0000 0.32450  0.53340  0.76900  Biso   1.000  C
  C632     1.0000 0.35450  0.47170  0.80210  Biso   1.000  C
  C633     1.0000 0.29410  0.35210  0.85640  Biso   1.000  C
  H799     1.0000 0.27170  0.35880  0.87150  Biso   1.000  H
  C634     1.0000 0.29690  0.31390  0.84190  Biso   1.000  C
  C635     1.0000 0.32880  0.30470  0.81920  Biso   1.000  C
  H800     1.0000 0.33150  0.27930  0.80810  Biso   1.000  H
  C636     1.0000 0.35710  0.33310  0.81260  Biso   1.000  C
  H801     1.0000 0.37940  0.32730  0.79720  Biso   1.000  H
  C637     1.0000 0.35240  0.36970  0.82870  Biso   1.000  C
  H802     1.0000 0.37220  0.38870  0.82450  Biso   1.000  H
  C638     1.0000 0.29920  0.51900  0.87770  Biso   1.000  C
  H803     1.0000 0.29960  0.51730  0.85000  Biso   1.000  H
  C639     1.0000 0.28870  0.55380  0.89590  Biso   1.000  C
  C640     1.0000 0.28850  0.55730  0.93570  Biso   1.000  C
  H804     1.0000 0.28110  0.58120  0.94780  Biso   1.000  H
  C641     1.0000 0.29900  0.52690  0.95720  Biso   1.000  C
  H805     1.0000 0.29930  0.52890  0.98490  Biso   1.000  H
  C642     1.0000 0.30920  0.49260  0.93960  Biso   1.000  C
  H806     1.0000 0.31680  0.47130  0.95560  Biso   1.000  H
  C643     1.0000 0.26500  0.28410  0.85100  Biso   1.000  C
  H807     1.0000 0.26730  0.27940  0.87830  Biso   1.000  H
  H808     1.0000 0.23960  0.29420  0.84610  Biso   1.000  H
  C644     1.0000 0.27480  0.58920  0.87430  Biso   1.000  C
  H809     1.0000 0.25930  0.60590  0.89220  Biso   1.000  H
  H810     1.0000 0.29760  0.60450  0.86530  Biso   1.000  H
  N169     1.0000 0.29820  0.55100  0.78000  Biso   1.000  N
  N170     1.0000 0.34080  0.45710  0.82900  Biso   1.000  N
  N171     1.0000 0.32130  0.37960  0.85016  Biso   1.000  N
  N172     1.0000 0.30890  0.48750  0.90000  Biso   1.000  N
  O127     1.0000 0.25130  0.57830  0.84140  Biso   1.000  O
  H811     1.0000 0.24200  0.57100  0.82040  Biso   1.000  H
  O128     1.0000 0.26740  0.24990  0.82990  Biso   1.000  O
  H812     1.0000 0.27200  0.23900  0.80810  Biso   1.000  H
  H813     1.0000 0.24270  0.29760  0.86050  Biso   1.000  H
  H814     1.0000 0.25720  0.26980  0.82840  Biso   1.000  H
  C645     1.0000 0.28160  0.58780  0.86940  Biso   1.000  C
  H815     1.0000 0.27350  0.61090  0.88500  Biso   1.000  H
  H816     1.0000 0.30600  0.59450  0.85540  Biso   1.000  H
  O129     1.0000 0.27790  0.25530  0.87750  Biso   1.000  O
  H817     1.0000 0.26310  0.25780  0.89760  Biso   1.000  H
  C646     1.0000 0.82450  0.03340  0.26900  Biso   1.000  C
  C647     1.0000 0.85450  0.97170  0.30210  Biso   1.000  C
  C648     1.0000 0.79410  0.85210  0.35640  Biso   1.000  C
  H818     1.0000 0.77170  0.85880  0.37150  Biso   1.000  H
  C649     1.0000 0.79690  0.81390  0.34190  Biso   1.000  C
  C650     1.0000 0.82880  0.80470  0.31920  Biso   1.000  C
  H819     1.0000 0.83150  0.77930  0.30810  Biso   1.000  H
  C651     1.0000 0.85710  0.83310  0.31260  Biso   1.000  C
  H820     1.0000 0.87940  0.82730  0.29720  Biso   1.000  H
  C652     1.0000 0.85240  0.86970  0.32870  Biso   1.000  C
  H821     1.0000 0.87220  0.88870  0.32450  Biso   1.000  H
  C653     1.0000 0.79920  0.01900  0.37770  Biso   1.000  C
  H822     1.0000 0.79960  0.01730  0.35000  Biso   1.000  H
  C654     1.0000 0.78870  0.05380  0.39590  Biso   1.000  C
  C655     1.0000 0.78850  0.05730  0.43570  Biso   1.000  C
  H823     1.0000 0.78110  0.08120  0.44780  Biso   1.000  H
  C656     1.0000 0.79900  0.02690  0.45720  Biso   1.000  C
  H824     1.0000 0.79930  0.02890  0.48490  Biso   1.000  H
  C657     1.0000 0.80920  0.99260  0.43960  Biso   1.000  C
  H825     1.0000 0.81680  0.97130  0.45560  Biso   1.000  H
  C658     1.0000 0.76500  0.78410  0.35100  Biso   1.000  C
  H826     1.0000 0.76730  0.77940  0.37830  Biso   1.000  H
  H827     1.0000 0.73960  0.79420  0.34610  Biso   1.000  H
  C659     1.0000 0.77480  0.08920  0.37430  Biso   1.000  C
  H828     1.0000 0.75930  0.10590  0.39220  Biso   1.000  H
  H829     1.0000 0.79760  0.10450  0.36530  Biso   1.000  H
  N173     1.0000 0.79820  0.05100  0.28000  Biso   1.000  N
  N174     1.0000 0.84080  0.95710  0.32900  Biso   1.000  N
  N175     1.0000 0.82130  0.87960  0.35016  Biso   1.000  N
  N176     1.0000 0.80890  0.98750  0.40000  Biso   1.000  N
  O130     1.0000 0.75130  0.07830  0.34140  Biso   1.000  O
  H830     1.0000 0.74200  0.07100  0.32040  Biso   1.000  H
  O131     1.0000 0.76740  0.74990  0.32990  Biso   1.000  O
  H831     1.0000 0.77200  0.73900  0.30810  Biso   1.000  H
  H832     1.0000 0.74270  0.79760  0.36050  Biso   1.000  H
  H833     1.0000 0.75720  0.76980  0.32840  Biso   1.000  H
  C660     1.0000 0.78160  0.08780  0.36940  Biso   1.000  C
  H834     1.0000 0.77350  0.11090  0.38500  Biso   1.000  H
  H835     1.0000 0.80600  0.09450  0.35540  Biso   1.000  H
  O132     1.0000 0.77790  0.75530  0.37750  Biso   1.000  O
  H836     1.0000 0.76310  0.75780  0.39760  Biso   1.000  H
  C661     1.0000 0.17550  0.46660  0.26900  Biso   1.000  C
  C662     1.0000 0.14550  0.52830  0.30210  Biso   1.000  C
  C663     1.0000 0.20590  0.64790  0.35640  Biso   1.000  C
  H837     1.0000 0.22830  0.64120  0.37150  Biso   1.000  H
  C664     1.0000 0.20310  0.68610  0.34190  Biso   1.000  C
  C665     1.0000 0.17120  0.69530  0.31920  Biso   1.000  C
  H838     1.0000 0.16850  0.72070  0.30810  Biso   1.000  H
  C666     1.0000 0.14290  0.66690  0.31260  Biso   1.000  C
  H839     1.0000 0.12060  0.67270  0.29720  Biso   1.000  H
  C667     1.0000 0.14760  0.63030  0.32870  Biso   1.000  C
  H840     1.0000 0.12780  0.61130  0.32450  Biso   1.000  H
  C668     1.0000 0.20080  0.48100  0.37770  Biso   1.000  C
  H841     1.0000 0.20040  0.48270  0.35000  Biso   1.000  H
  C669     1.0000 0.21130  0.44620  0.39590  Biso   1.000  C
  C670     1.0000 0.21150  0.44270  0.43570  Biso   1.000  C
  H842     1.0000 0.21890  0.41880  0.44780  Biso   1.000  H
  C671     1.0000 0.20100  0.47310  0.45720  Biso   1.000  C
  H843     1.0000 0.20070  0.47110  0.48490  Biso   1.000  H
  C672     1.0000 0.19080  0.50740  0.43960  Biso   1.000  C
  H844     1.0000 0.18320  0.52870  0.45560  Biso   1.000  H
  C673     1.0000 0.23500  0.71590  0.35100  Biso   1.000  C
  H845     1.0000 0.23270  0.72060  0.37830  Biso   1.000  H
  H846     1.0000 0.26040  0.70580  0.34610  Biso   1.000  H
  C674     1.0000 0.22520  0.41080  0.37430  Biso   1.000  C
  H847     1.0000 0.24070  0.39410  0.39220  Biso   1.000  H
  H848     1.0000 0.20240  0.39550  0.36530  Biso   1.000  H
  N177     1.0000 0.20180  0.44900  0.28000  Biso   1.000  N
  N178     1.0000 0.15920  0.54290  0.32900  Biso   1.000  N
  N179     1.0000 0.17870  0.62040  0.35016  Biso   1.000  N
  N180     1.0000 0.19110  0.51250  0.40000  Biso   1.000  N
  O133     1.0000 0.24870  0.42170  0.34140  Biso   1.000  O
  H849     1.0000 0.25800  0.42900  0.32040  Biso   1.000  H
  O134     1.0000 0.23260  0.75010  0.32990  Biso   1.000  O
  H850     1.0000 0.22800  0.76100  0.30810  Biso   1.000  H
  H851     1.0000 0.25730  0.70240  0.36050  Biso   1.000  H
  H852     1.0000 0.24280  0.73020  0.32840  Biso   1.000  H
  C675     1.0000 0.21840  0.41220  0.36940  Biso   1.000  C
  H853     1.0000 0.22650  0.38910  0.38500  Biso   1.000  H
  H854     1.0000 0.19400  0.40550  0.35540  Biso   1.000  H
  O135     1.0000 0.22210  0.74470  0.37750  Biso   1.000  O
  H855     1.0000 0.23690  0.74220  0.39760  Biso   1.000  H
  C676     1.0000 0.67550  0.96660  0.76900  Biso   1.000  C
  C677     1.0000 0.64550  0.02830  0.80210  Biso   1.000  C
  C678     1.0000 0.70590  0.14790  0.85640  Biso   1.000  C
  H856     1.0000 0.72830  0.14120  0.87150  Biso   1.000  H
  C679     1.0000 0.70310  0.18610  0.84190  Biso   1.000  C
  C680     1.0000 0.67120  0.19530  0.81920  Biso   1.000  C
  H857     1.0000 0.66850  0.22070  0.80810  Biso   1.000  H
  C681     1.0000 0.64290  0.16690  0.81260  Biso   1.000  C
  H858     1.0000 0.62060  0.17270  0.79720  Biso   1.000  H
  C682     1.0000 0.64760  0.13030  0.82870  Biso   1.000  C
  H859     1.0000 0.62780  0.11130  0.82450  Biso   1.000  H
  C683     1.0000 0.70080  0.98100  0.87770  Biso   1.000  C
  H860     1.0000 0.70040  0.98270  0.85000  Biso   1.000  H
  C684     1.0000 0.71130  0.94620  0.89590  Biso   1.000  C
  C685     1.0000 0.71150  0.94270  0.93570  Biso   1.000  C
  H861     1.0000 0.71890  0.91880  0.94780  Biso   1.000  H
  C686     1.0000 0.70100  0.97310  0.95720  Biso   1.000  C
  H862     1.0000 0.70070  0.97110  0.98490  Biso   1.000  H
  C687     1.0000 0.69080  0.00740  0.93960  Biso   1.000  C
  H863     1.0000 0.68320  0.02870  0.95560  Biso   1.000  H
  C688     1.0000 0.73500  0.21590  0.85100  Biso   1.000  C
  H864     1.0000 0.73270  0.22060  0.87830  Biso   1.000  H
  H865     1.0000 0.76040  0.20580  0.84610  Biso   1.000  H
  C689     1.0000 0.72520  0.91080  0.87430  Biso   1.000  C
  H866     1.0000 0.74070  0.89410  0.89220  Biso   1.000  H
  H867     1.0000 0.70240  0.89550  0.86530  Biso   1.000  H
  N181     1.0000 0.70180  0.94900  0.78000  Biso   1.000  N
  N182     1.0000 0.65920  0.04290  0.82900  Biso   1.000  N
  N183     1.0000 0.67870  0.12040  0.85016  Biso   1.000  N
  N184     1.0000 0.69110  0.01250  0.90000  Biso   1.000  N
  O136     1.0000 0.74870  0.92170  0.84140  Biso   1.000  O
  H868     1.0000 0.75800  0.92900  0.82040  Biso   1.000  H
  O137     1.0000 0.73260  0.25010  0.82990  Biso   1.000  O
  H869     1.0000 0.72800  0.26100  0.80810  Biso   1.000  H
  H870     1.0000 0.75730  0.20240  0.86050  Biso   1.000  H
  H871     1.0000 0.74280  0.23020  0.82840  Biso   1.000  H
  C690     1.0000 0.71840  0.91220  0.86940  Biso   1.000  C
  H872     1.0000 0.72650  0.88910  0.88500  Biso   1.000  H
  H873     1.0000 0.69400  0.90550  0.85540  Biso   1.000  H
  O138     1.0000 0.72210  0.24470  0.87750  Biso   1.000  O
  H874     1.0000 0.73690  0.24220  0.89760  Biso   1.000  H
  C691     1.0000 0.67550  0.03340  0.73100  Biso   1.000  C
  C692     1.0000 0.64550  0.97170  0.69790  Biso   1.000  C
  C693     1.0000 0.70590  0.85210  0.64360  Biso   1.000  C
  H875     1.0000 0.72830  0.85880  0.62850  Biso   1.000  H
  C694     1.0000 0.70310  0.81390  0.65810  Biso   1.000  C
  C695     1.0000 0.67120  0.80470  0.68080  Biso   1.000  C
  H876     1.0000 0.66850  0.77930  0.69190  Biso   1.000  H
  C696     1.0000 0.64290  0.83310  0.68740  Biso   1.000  C
  H877     1.0000 0.62060  0.82730  0.70280  Biso   1.000  H
  C697     1.0000 0.64760  0.86970  0.67130  Biso   1.000  C
  H878     1.0000 0.62780  0.88870  0.67550  Biso   1.000  H
  C698     1.0000 0.70080  0.01900  0.62230  Biso   1.000  C
  H879     1.0000 0.70040  0.01730  0.65000  Biso   1.000  H
  C699     1.0000 0.71130  0.05380  0.60410  Biso   1.000  C
  C700     1.0000 0.71150  0.05730  0.56430  Biso   1.000  C
  H880     1.0000 0.71890  0.08120  0.55220  Biso   1.000  H
  C701     1.0000 0.70100  0.02690  0.54280  Biso   1.000  C
  H881     1.0000 0.70070  0.02890  0.51510  Biso   1.000  H
  C702     1.0000 0.69080  0.99260  0.56040  Biso   1.000  C
  H882     1.0000 0.68320  0.97130  0.54440  Biso   1.000  H
  C703     1.0000 0.73500  0.78410  0.64900  Biso   1.000  C
  H883     1.0000 0.73270  0.77940  0.62170  Biso   1.000  H
  H884     1.0000 0.76040  0.79420  0.65390  Biso   1.000  H
  C704     1.0000 0.72520  0.08920  0.62570  Biso   1.000  C
  H885     1.0000 0.74070  0.10590  0.60780  Biso   1.000  H
  H886     1.0000 0.70240  0.10450  0.63470  Biso   1.000  H
  N185     1.0000 0.70180  0.05100  0.72000  Biso   1.000  N
  N186     1.0000 0.65920  0.95710  0.67100  Biso   1.000  N
  N187     1.0000 0.67870  0.87960  0.64984  Biso   1.000  N
  N188     1.0000 0.69110  0.98750  0.60000  Biso   1.000  N
  O139     1.0000 0.74870  0.07830  0.65860  Biso   1.000  O
  H887     1.0000 0.75800  0.07100  0.67960  Biso   1.000  H
  O140     1.0000 0.73260  0.74990  0.67010  Biso   1.000  O
  H888     1.0000 0.72800  0.73900  0.69190  Biso   1.000  H
  H889     1.0000 0.75730  0.79760  0.63950  Biso   1.000  H
  H890     1.0000 0.74280  0.76980  0.67160  Biso   1.000  H
  C705     1.0000 0.71840  0.08780  0.63060  Biso   1.000  C
  H891     1.0000 0.72650  0.11090  0.61500  Biso   1.000  H
  H892     1.0000 0.69400  0.09450  0.64460  Biso   1.000  H
  O141     1.0000 0.72210  0.75530  0.62250  Biso   1.000  O
  H893     1.0000 0.73690  0.75780  0.60240  Biso   1.000  H
  C706     1.0000 0.17550  0.53340  0.23100  Biso   1.000  C
  C707     1.0000 0.14550  0.47170  0.19790  Biso   1.000  C
  C708     1.0000 0.20590  0.35210  0.14360  Biso   1.000  C
  H894     1.0000 0.22830  0.35880  0.12850  Biso   1.000  H
  C709     1.0000 0.20310  0.31390  0.15810  Biso   1.000  C
  C710     1.0000 0.17120  0.30470  0.18080  Biso   1.000  C
  H895     1.0000 0.16850  0.27930  0.19190  Biso   1.000  H
  C711     1.0000 0.14290  0.33310  0.18740  Biso   1.000  C
  H896     1.0000 0.12060  0.32730  0.20280  Biso   1.000  H
  C712     1.0000 0.14760  0.36970  0.17130  Biso   1.000  C
  H897     1.0000 0.12780  0.38870  0.17550  Biso   1.000  H
  C713     1.0000 0.20080  0.51900  0.12230  Biso   1.000  C
  H898     1.0000 0.20040  0.51730  0.15000  Biso   1.000  H
  C714     1.0000 0.21130  0.55380  0.10410  Biso   1.000  C
  C715     1.0000 0.21150  0.55730  0.06430  Biso   1.000  C
  H899     1.0000 0.21890  0.58120  0.05220  Biso   1.000  H
  C716     1.0000 0.20100  0.52690  0.04280  Biso   1.000  C
  H900     1.0000 0.20070  0.52890  0.01510  Biso   1.000  H
  C717     1.0000 0.19080  0.49260  0.06040  Biso   1.000  C
  H901     1.0000 0.18320  0.47130  0.04440  Biso   1.000  H
  C718     1.0000 0.23500  0.28410  0.14900  Biso   1.000  C
  H902     1.0000 0.23270  0.27940  0.12170  Biso   1.000  H
  H903     1.0000 0.26040  0.29420  0.15390  Biso   1.000  H
  C719     1.0000 0.22520  0.58920  0.12570  Biso   1.000  C
  H904     1.0000 0.24070  0.60590  0.10780  Biso   1.000  H
  H905     1.0000 0.20240  0.60450  0.13470  Biso   1.000  H
  N189     1.0000 0.20180  0.55100  0.22000  Biso   1.000  N
  N190     1.0000 0.15920  0.45710  0.17100  Biso   1.000  N
  N191     1.0000 0.17870  0.37960  0.14984  Biso   1.000  N
  N192     1.0000 0.19110  0.48750  0.10000  Biso   1.000  N
  O142     1.0000 0.24870  0.57830  0.15860  Biso   1.000  O
  H906     1.0000 0.25800  0.57100  0.17960  Biso   1.000  H
  O143     1.0000 0.23260  0.24990  0.17010  Biso   1.000  O
  H907     1.0000 0.22800  0.23900  0.19190  Biso   1.000  H
  H908     1.0000 0.25730  0.29760  0.13950  Biso   1.000  H
  H909     1.0000 0.24280  0.26980  0.17160  Biso   1.000  H
  C720     1.0000 0.21840  0.58780  0.13060  Biso   1.000  C
  H910     1.0000 0.22650  0.61090  0.11500  Biso   1.000  H
  H911     1.0000 0.19400  0.59450  0.14460  Biso   1.000  H
  O144     1.0000 0.22210  0.25530  0.12250  Biso   1.000  O
  H912     1.0000 0.23690  0.25780  0.10240  Biso   1.000  H
  C721     1.0000 0.98100  0.28340  0.92550  Biso   1.000  C
  C722     1.0000 0.94790  0.22170  0.89550  Biso   1.000  C
  C723     1.0000 0.89360  0.10210  0.95590  Biso   1.000  C
  H913     1.0000 0.87850  0.10880  0.97830  Biso   1.000  H
  C724     1.0000 0.90810  0.06390  0.95310  Biso   1.000  C
  C725     1.0000 0.93080  0.05470  0.92120  Biso   1.000  C
  H914     1.0000 0.94190  0.02930  0.91850  Biso   1.000  H
  C726     1.0000 0.93740  0.08310  0.89290  Biso   1.000  C
  H915     1.0000 0.95280  0.07730  0.87060  Biso   1.000  H
  C727     1.0000 0.92130  0.11970  0.89760  Biso   1.000  C
  H916     1.0000 0.92550  0.13870  0.87780  Biso   1.000  H
  C728     1.0000 0.87230  0.26900  0.95080  Biso   1.000  C
  H917     1.0000 0.90000  0.26730  0.95040  Biso   1.000  H
  C729     1.0000 0.85410  0.30380  0.96130  Biso   1.000  C
  C730     1.0000 0.81430  0.30730  0.96150  Biso   1.000  C
  H918     1.0000 0.80220  0.33120  0.96890  Biso   1.000  H
  C731     1.0000 0.79280  0.27690  0.95100  Biso   1.000  C
  H919     1.0000 0.76510  0.27890  0.95070  Biso   1.000  H
  C732     1.0000 0.81040  0.24260  0.94080  Biso   1.000  C
  H920     1.0000 0.79440  0.22130  0.93320  Biso   1.000  H
  C733     1.0000 0.89900  0.03410  0.98500  Biso   1.000  C
  H921     1.0000 0.87170  0.02940  0.98270  Biso   1.000  H
  H922     1.0000 0.90390  0.04420  0.01040  Biso   1.000  H
  C734     1.0000 0.87570  0.33920  0.97520  Biso   1.000  C
  H923     1.0000 0.85780  0.35590  0.99070  Biso   1.000  H
  H924     1.0000 0.88470  0.35450  0.95240  Biso   1.000  H
  N193     1.0000 0.97000  0.30100  0.95180  Biso   1.000  N
  N194     1.0000 0.92100  0.20710  0.90920  Biso   1.000  N
  N195     1.0000 0.89984  0.12960  0.92870  Biso   1.000  N
  N196     1.0000 0.85000  0.23750  0.94110  Biso   1.000  N
  O145     1.0000 0.90860  0.32830  0.99870  Biso   1.000  O
  H925     1.0000 0.92960  0.32100  0.00800  Biso   1.000  H
  O146     1.0000 0.92010  0.99990  0.98260  Biso   1.000  O
  H926     1.0000 0.94190  0.98900  0.97800  Biso   1.000  H
  H927     1.0000 0.88950  0.04760  0.00730  Biso   1.000  H
  H928     1.0000 0.92160  0.01980  0.99280  Biso   1.000  H
  C735     1.0000 0.88060  0.33780  0.96840  Biso   1.000  C
  H929     1.0000 0.86500  0.36090  0.97650  Biso   1.000  H
  H930     1.0000 0.89460  0.34450  0.94400  Biso   1.000  H
  O147     1.0000 0.87250  0.00530  0.97210  Biso   1.000  O
  H931     1.0000 0.85240  0.00780  0.98690  Biso   1.000  H
  C736     1.0000 0.48100  0.78340  0.42550  Biso   1.000  C
  C737     1.0000 0.44790  0.72170  0.39550  Biso   1.000  C
  C738     1.0000 0.39360  0.60210  0.45590  Biso   1.000  C
  H932     1.0000 0.37850  0.60880  0.47830  Biso   1.000  H
  C739     1.0000 0.40810  0.56390  0.45310  Biso   1.000  C
  C740     1.0000 0.43080  0.55470  0.42120  Biso   1.000  C
  H933     1.0000 0.44190  0.52930  0.41850  Biso   1.000  H
  C741     1.0000 0.43740  0.58310  0.39290  Biso   1.000  C
  H934     1.0000 0.45280  0.57730  0.37060  Biso   1.000  H
  C742     1.0000 0.42130  0.61970  0.39760  Biso   1.000  C
  H935     1.0000 0.42550  0.63870  0.37780  Biso   1.000  H
  C743     1.0000 0.37230  0.76900  0.45080  Biso   1.000  C
  H936     1.0000 0.40000  0.76730  0.45040  Biso   1.000  H
  C744     1.0000 0.35410  0.80380  0.46130  Biso   1.000  C
  C745     1.0000 0.31430  0.80730  0.46150  Biso   1.000  C
  H937     1.0000 0.30220  0.83120  0.46890  Biso   1.000  H
  C746     1.0000 0.29280  0.77690  0.45100  Biso   1.000  C
  H938     1.0000 0.26510  0.77890  0.45070  Biso   1.000  H
  C747     1.0000 0.31040  0.74260  0.44080  Biso   1.000  C
  H939     1.0000 0.29440  0.72130  0.43320  Biso   1.000  H
  C748     1.0000 0.39900  0.53410  0.48500  Biso   1.000  C
  H940     1.0000 0.37170  0.52940  0.48270  Biso   1.000  H
  H941     1.0000 0.40390  0.54420  0.51040  Biso   1.000  H
  C749     1.0000 0.37570  0.83920  0.47520  Biso   1.000  C
  H942     1.0000 0.35780  0.85590  0.49070  Biso   1.000  H
  H943     1.0000 0.38470  0.85450  0.45240  Biso   1.000  H
  N197     1.0000 0.47000  0.80100  0.45180  Biso   1.000  N
  N198     1.0000 0.42100  0.70710  0.40920  Biso   1.000  N
  N199     1.0000 0.39984  0.62960  0.42870  Biso   1.000  N
  N200     1.0000 0.35000  0.73750  0.44110  Biso   1.000  N
  O148     1.0000 0.40860  0.82830  0.49870  Biso   1.000  O
  H944     1.0000 0.42960  0.82100  0.50800  Biso   1.000  H
  O149     1.0000 0.42010  0.49990  0.48260  Biso   1.000  O
  H945     1.0000 0.44190  0.48900  0.47800  Biso   1.000  H
  H946     1.0000 0.38950  0.54760  0.50730  Biso   1.000  H
  H947     1.0000 0.42160  0.51980  0.49280  Biso   1.000  H
  C750     1.0000 0.38060  0.83780  0.46840  Biso   1.000  C
  H948     1.0000 0.36500  0.86090  0.47650  Biso   1.000  H
  H949     1.0000 0.39460  0.84450  0.44400  Biso   1.000  H
  O150     1.0000 0.37250  0.50530  0.47210  Biso   1.000  O
  H950     1.0000 0.35240  0.50780  0.48690  Biso   1.000  H
  C751     1.0000 0.51900  0.71660  0.42550  Biso   1.000  C
  C752     1.0000 0.55210  0.77830  0.39550  Biso   1.000  C
  C753     1.0000 0.60640  0.89790  0.45590  Biso   1.000  C
  H951     1.0000 0.62150  0.89120  0.47830  Biso   1.000  H
  C754     1.0000 0.59190  0.93610  0.45310  Biso   1.000  C
  C755     1.0000 0.56920  0.94530  0.42120  Biso   1.000  C
  H952     1.0000 0.55810  0.97070  0.41850  Biso   1.000  H
  C756     1.0000 0.56260  0.91690  0.39290  Biso   1.000  C
  H953     1.0000 0.54720  0.92270  0.37060  Biso   1.000  H
  C757     1.0000 0.57870  0.88030  0.39760  Biso   1.000  C
  H954     1.0000 0.57450  0.86130  0.37780  Biso   1.000  H
  C758     1.0000 0.62770  0.73100  0.45080  Biso   1.000  C
  H955     1.0000 0.60000  0.73270  0.45040  Biso   1.000  H
  C759     1.0000 0.64590  0.69620  0.46130  Biso   1.000  C
  C760     1.0000 0.68570  0.69270  0.46150  Biso   1.000  C
  H956     1.0000 0.69780  0.66880  0.46890  Biso   1.000  H
  C761     1.0000 0.70720  0.72310  0.45100  Biso   1.000  C
  H957     1.0000 0.73490  0.72110  0.45070  Biso   1.000  H
  C762     1.0000 0.68960  0.75740  0.44080  Biso   1.000  C
  H958     1.0000 0.70560  0.77870  0.43320  Biso   1.000  H
  C763     1.0000 0.60100  0.96590  0.48500  Biso   1.000  C
  H959     1.0000 0.62830  0.97060  0.48270  Biso   1.000  H
  H960     1.0000 0.59610  0.95580  0.51040  Biso   1.000  H
  C764     1.0000 0.62430  0.66080  0.47520  Biso   1.000  C
  H961     1.0000 0.64220  0.64410  0.49070  Biso   1.000  H
  H962     1.0000 0.61530  0.64550  0.45240  Biso   1.000  H
  N201     1.0000 0.53000  0.69900  0.45180  Biso   1.000  N
  N202     1.0000 0.57900  0.79290  0.40920  Biso   1.000  N
  N203     1.0000 0.60016  0.87040  0.42870  Biso   1.000  N
  N204     1.0000 0.65000  0.76250  0.44110  Biso   1.000  N
  O151     1.0000 0.59140  0.67170  0.49870  Biso   1.000  O
  H963     1.0000 0.57040  0.67900  0.50800  Biso   1.000  H
  O152     1.0000 0.57990  0.00010  0.48260  Biso   1.000  O
  H964     1.0000 0.55810  0.01100  0.47800  Biso   1.000  H
  H965     1.0000 0.61050  0.95240  0.50730  Biso   1.000  H
  H966     1.0000 0.57840  0.98020  0.49280  Biso   1.000  H
  C765     1.0000 0.61940  0.66220  0.46840  Biso   1.000  C
  H967     1.0000 0.63500  0.63910  0.47650  Biso   1.000  H
  H968     1.0000 0.60540  0.65550  0.44400  Biso   1.000  H
  O153     1.0000 0.62750  0.99470  0.47210  Biso   1.000  O
  H969     1.0000 0.64760  0.99220  0.48690  Biso   1.000  H
  C766     1.0000 0.01900  0.21660  0.92550  Biso   1.000  C
  C767     1.0000 0.05210  0.27830  0.89550  Biso   1.000  C
  C768     1.0000 0.10640  0.39790  0.95590  Biso   1.000  C
  H970     1.0000 0.12150  0.39120  0.97830  Biso   1.000  H
  C769     1.0000 0.09190  0.43610  0.95310  Biso   1.000  C
  C770     1.0000 0.06920  0.44530  0.92120  Biso   1.000  C
  H971     1.0000 0.05810  0.47070  0.91850  Biso   1.000  H
  C771     1.0000 0.06260  0.41690  0.89290  Biso   1.000  C
  H972     1.0000 0.04720  0.42270  0.87060  Biso   1.000  H
  C772     1.0000 0.07870  0.38030  0.89760  Biso   1.000  C
  H973     1.0000 0.07450  0.36130  0.87780  Biso   1.000  H
  C773     1.0000 0.12770  0.23100  0.95080  Biso   1.000  C
  H974     1.0000 0.10000  0.23270  0.95040  Biso   1.000  H
  C774     1.0000 0.14590  0.19620  0.96130  Biso   1.000  C
  C775     1.0000 0.18570  0.19270  0.96150  Biso   1.000  C
  H975     1.0000 0.19780  0.16880  0.96890  Biso   1.000  H
  C776     1.0000 0.20720  0.22310  0.95100  Biso   1.000  C
  H976     1.0000 0.23490  0.22110  0.95070  Biso   1.000  H
  C777     1.0000 0.18960  0.25740  0.94080  Biso   1.000  C
  H977     1.0000 0.20560  0.27870  0.93320  Biso   1.000  H
  C778     1.0000 0.10100  0.46590  0.98500  Biso   1.000  C
  H978     1.0000 0.12830  0.47060  0.98270  Biso   1.000  H
  H979     1.0000 0.09610  0.45580  0.01040  Biso   1.000  H
  C779     1.0000 0.12430  0.16080  0.97520  Biso   1.000  C
  H980     1.0000 0.14220  0.14410  0.99070  Biso   1.000  H
  H981     1.0000 0.11530  0.14550  0.95240  Biso   1.000  H
  N205     1.0000 0.03000  0.19900  0.95180  Biso   1.000  N
  N206     1.0000 0.07900  0.29290  0.90920  Biso   1.000  N
  N207     1.0000 0.10016  0.37040  0.92870  Biso   1.000  N
  N208     1.0000 0.15000  0.26250  0.94110  Biso   1.000  N
  O154     1.0000 0.09140  0.17170  0.99870  Biso   1.000  O
  H982     1.0000 0.07040  0.17900  0.00800  Biso   1.000  H
  O155     1.0000 0.07990  0.50010  0.98260  Biso   1.000  O
  H983     1.0000 0.05810  0.51100  0.97800  Biso   1.000  H
  H984     1.0000 0.11050  0.45240  0.00730  Biso   1.000  H
  H985     1.0000 0.07840  0.48020  0.99280  Biso   1.000  H
  C780     1.0000 0.11940  0.16220  0.96840  Biso   1.000  C
  H986     1.0000 0.13500  0.13910  0.97650  Biso   1.000  H
  H987     1.0000 0.10540  0.15550  0.94400  Biso   1.000  H
  O156     1.0000 0.12750  0.49470  0.97210  Biso   1.000  O
  H988     1.0000 0.14760  0.49220  0.98690  Biso   1.000  H
  C781     1.0000 0.01900  0.78340  0.57450  Biso   1.000  C
  C782     1.0000 0.05210  0.72170  0.60450  Biso   1.000  C
  C783     1.0000 0.10640  0.60210  0.54410  Biso   1.000  C
  H989     1.0000 0.12150  0.60880  0.52170  Biso   1.000  H
  C784     1.0000 0.09190  0.56390  0.54690  Biso   1.000  C
  C785     1.0000 0.06920  0.55470  0.57880  Biso   1.000  C
  H990     1.0000 0.05810  0.52930  0.58150  Biso   1.000  H
  C786     1.0000 0.06260  0.58310  0.60710  Biso   1.000  C
  H991     1.0000 0.04720  0.57730  0.62940  Biso   1.000  H
  C787     1.0000 0.07870  0.61970  0.60240  Biso   1.000  C
  H992     1.0000 0.07450  0.63870  0.62220  Biso   1.000  H
  C788     1.0000 0.12770  0.76900  0.54920  Biso   1.000  C
  H993     1.0000 0.10000  0.76730  0.54960  Biso   1.000  H
  C789     1.0000 0.14590  0.80380  0.53870  Biso   1.000  C
  C790     1.0000 0.18570  0.80730  0.53850  Biso   1.000  C
  H994     1.0000 0.19780  0.83120  0.53110  Biso   1.000  H
  C791     1.0000 0.20720  0.77690  0.54900  Biso   1.000  C
  H995     1.0000 0.23490  0.77890  0.54930  Biso   1.000  H
  C792     1.0000 0.18960  0.74260  0.55920  Biso   1.000  C
  H996     1.0000 0.20560  0.72130  0.56680  Biso   1.000  H
  C793     1.0000 0.10100  0.53410  0.51500  Biso   1.000  C
  H997     1.0000 0.12830  0.52940  0.51730  Biso   1.000  H
  H998     1.0000 0.09610  0.54420  0.48960  Biso   1.000  H
  C794     1.0000 0.12430  0.83920  0.52480  Biso   1.000  C
  H999     1.0000 0.14220  0.85590  0.50930  Biso   1.000  H
  H1000    1.0000 0.11530  0.85450  0.54760  Biso   1.000  H
  N209     1.0000 0.03000  0.80100  0.54820  Biso   1.000  N
  N210     1.0000 0.07900  0.70710  0.59080  Biso   1.000  N
  N211     1.0000 0.10016  0.62960  0.57130  Biso   1.000  N
  N212     1.0000 0.15000  0.73750  0.55890  Biso   1.000  N
  O157     1.0000 0.09140  0.82830  0.50130  Biso   1.000  O
  H1001    1.0000 0.07040  0.82100  0.49200  Biso   1.000  H
  O158     1.0000 0.07990  0.49990  0.51740  Biso   1.000  O
  H1002    1.0000 0.05810  0.48900  0.52200  Biso   1.000  H
  H1003    1.0000 0.11050  0.54760  0.49270  Biso   1.000  H
  H1004    1.0000 0.07840  0.51980  0.50720  Biso   1.000  H
  C795     1.0000 0.11940  0.83780  0.53160  Biso   1.000  C
  H1005    1.0000 0.13500  0.86090  0.52350  Biso   1.000  H
  H1006    1.0000 0.10540  0.84450  0.55600  Biso   1.000  H
  O159     1.0000 0.12750  0.50530  0.52790  Biso   1.000  O
  H1007    1.0000 0.14760  0.50780  0.51310  Biso   1.000  H
  C796     1.0000 0.51900  0.28340  0.07450  Biso   1.000  C
  C797     1.0000 0.55210  0.22170  0.10450  Biso   1.000  C
  C798     1.0000 0.60640  0.10210  0.04410  Biso   1.000  C
  H1008    1.0000 0.62150  0.10880  0.02170  Biso   1.000  H
  C799     1.0000 0.59190  0.06390  0.04690  Biso   1.000  C
  C800     1.0000 0.56920  0.05470  0.07880  Biso   1.000  C
  H1009    1.0000 0.55810  0.02930  0.08150  Biso   1.000  H
  C801     1.0000 0.56260  0.08310  0.10710  Biso   1.000  C
  H1010    1.0000 0.54720  0.07730  0.12940  Biso   1.000  H
  C802     1.0000 0.57870  0.11970  0.10240  Biso   1.000  C
  H1011    1.0000 0.57450  0.13870  0.12220  Biso   1.000  H
  C803     1.0000 0.62770  0.26900  0.04920  Biso   1.000  C
  H1012    1.0000 0.60000  0.26730  0.04960  Biso   1.000  H
  C804     1.0000 0.64590  0.30380  0.03870  Biso   1.000  C
  C805     1.0000 0.68570  0.30730  0.03850  Biso   1.000  C
  H1013    1.0000 0.69780  0.33120  0.03110  Biso   1.000  H
  C806     1.0000 0.70720  0.27690  0.04900  Biso   1.000  C
  H1014    1.0000 0.73490  0.27890  0.04930  Biso   1.000  H
  C807     1.0000 0.68960  0.24260  0.05920  Biso   1.000  C
  H1015    1.0000 0.70560  0.22130  0.06680  Biso   1.000  H
  C808     1.0000 0.60100  0.03410  0.01500  Biso   1.000  C
  H1016    1.0000 0.62830  0.02940  0.01730  Biso   1.000  H
  H1017    1.0000 0.59610  0.04420  0.98960  Biso   1.000  H
  C809     1.0000 0.62430  0.33920  0.02480  Biso   1.000  C
  H1018    1.0000 0.64220  0.35590  0.00930  Biso   1.000  H
  H1019    1.0000 0.61530  0.35450  0.04760  Biso   1.000  H
  N213     1.0000 0.53000  0.30100  0.04820  Biso   1.000  N
  N214     1.0000 0.57900  0.20710  0.09080  Biso   1.000  N
  N215     1.0000 0.60016  0.12960  0.07130  Biso   1.000  N
  N216     1.0000 0.65000  0.23750  0.05890  Biso   1.000  N
  O160     1.0000 0.59140  0.32830  0.00130  Biso   1.000  O
  H1020    1.0000 0.57040  0.32100  0.99200  Biso   1.000  H
  O161     1.0000 0.57990  0.99990  0.01740  Biso   1.000  O
  H1021    1.0000 0.55810  0.98900  0.02200  Biso   1.000  H
  H1022    1.0000 0.61050  0.04760  0.99270  Biso   1.000  H
  H1023    1.0000 0.57840  0.01980  0.00720  Biso   1.000  H
  C810     1.0000 0.61940  0.33780  0.03160  Biso   1.000  C
  H1024    1.0000 0.63500  0.36090  0.02350  Biso   1.000  H
  H1025    1.0000 0.60540  0.34450  0.05600  Biso   1.000  H
  O162     1.0000 0.62750  0.00530  0.02790  Biso   1.000  O
  H1026    1.0000 0.64760  0.00780  0.01310  Biso   1.000  H
  C811     1.0000 0.48100  0.21660  0.07450  Biso   1.000  C
  C812     1.0000 0.44790  0.27830  0.10450  Biso   1.000  C
  C813     1.0000 0.39360  0.39790  0.04410  Biso   1.000  C
  H1027    1.0000 0.37850  0.39120  0.02170  Biso   1.000  H
  C814     1.0000 0.40810  0.43610  0.04690  Biso   1.000  C
  C815     1.0000 0.43080  0.44530  0.07880  Biso   1.000  C
  H1028    1.0000 0.44190  0.47070  0.08150  Biso   1.000  H
  C816     1.0000 0.43740  0.41690  0.10710  Biso   1.000  C
  H1029    1.0000 0.45280  0.42270  0.12940  Biso   1.000  H
  C817     1.0000 0.42130  0.38030  0.10240  Biso   1.000  C
  H1030    1.0000 0.42550  0.36130  0.12220  Biso   1.000  H
  C818     1.0000 0.37230  0.23100  0.04920  Biso   1.000  C
  H1031    1.0000 0.40000  0.23270  0.04960  Biso   1.000  H
  C819     1.0000 0.35410  0.19620  0.03870  Biso   1.000  C
  C820     1.0000 0.31430  0.19270  0.03850  Biso   1.000  C
  H1032    1.0000 0.30220  0.16880  0.03110  Biso   1.000  H
  C821     1.0000 0.29280  0.22310  0.04900  Biso   1.000  C
  H1033    1.0000 0.26510  0.22110  0.04930  Biso   1.000  H
  C822     1.0000 0.31040  0.25740  0.05920  Biso   1.000  C
  H1034    1.0000 0.29440  0.27870  0.06680  Biso   1.000  H
  C823     1.0000 0.39900  0.46590  0.01500  Biso   1.000  C
  H1035    1.0000 0.37170  0.47060  0.01730  Biso   1.000  H
  H1036    1.0000 0.40390  0.45580  0.98960  Biso   1.000  H
  C824     1.0000 0.37570  0.16080  0.02480  Biso   1.000  C
  H1037    1.0000 0.35780  0.14410  0.00930  Biso   1.000  H
  H1038    1.0000 0.38470  0.14550  0.04760  Biso   1.000  H
  N217     1.0000 0.47000  0.19900  0.04820  Biso   1.000  N
  N218     1.0000 0.42100  0.29290  0.09080  Biso   1.000  N
  N219     1.0000 0.39984  0.37040  0.07130  Biso   1.000  N
  N220     1.0000 0.35000  0.26250  0.05890  Biso   1.000  N
  O163     1.0000 0.40860  0.17170  0.00130  Biso   1.000  O
  H1039    1.0000 0.42960  0.17900  0.99200  Biso   1.000  H
  O164     1.0000 0.42010  0.50010  0.01740  Biso   1.000  O
  H1040    1.0000 0.44190  0.51100  0.02200  Biso   1.000  H
  H1041    1.0000 0.38950  0.45240  0.99270  Biso   1.000  H
  H1042    1.0000 0.42160  0.48020  0.00720  Biso   1.000  H
  C825     1.0000 0.38060  0.16220  0.03160  Biso   1.000  C
  H1043    1.0000 0.36500  0.13910  0.02350  Biso   1.000  H
  H1044    1.0000 0.39460  0.15550  0.05600  Biso   1.000  H
  O165     1.0000 0.37250  0.49470  0.02790  Biso   1.000  O
  H1045    1.0000 0.35240  0.49220  0.01310  Biso   1.000  H
  C826     1.0000 0.98100  0.71660  0.57450  Biso   1.000  C
  C827     1.0000 0.94790  0.77830  0.60450  Biso   1.000  C
  C828     1.0000 0.89360  0.89790  0.54410  Biso   1.000  C
  H1046    1.0000 0.87850  0.89120  0.52170  Biso   1.000  H
  C829     1.0000 0.90810  0.93610  0.54690  Biso   1.000  C
  C830     1.0000 0.93080  0.94530  0.57880  Biso   1.000  C
  H1047    1.0000 0.94190  0.97070  0.58150  Biso   1.000  H
  C831     1.0000 0.93740  0.91690  0.60710  Biso   1.000  C
  H1048    1.0000 0.95280  0.92270  0.62940  Biso   1.000  H
  C832     1.0000 0.92130  0.88030  0.60240  Biso   1.000  C
  H1049    1.0000 0.92550  0.86130  0.62220  Biso   1.000  H
  C833     1.0000 0.87230  0.73100  0.54920  Biso   1.000  C
  H1050    1.0000 0.90000  0.73270  0.54960  Biso   1.000  H
  C834     1.0000 0.85410  0.69620  0.53870  Biso   1.000  C
  C835     1.0000 0.81430  0.69270  0.53850  Biso   1.000  C
  H1051    1.0000 0.80220  0.66880  0.53110  Biso   1.000  H
  C836     1.0000 0.79280  0.72310  0.54900  Biso   1.000  C
  H1052    1.0000 0.76510  0.72110  0.54930  Biso   1.000  H
  C837     1.0000 0.81040  0.75740  0.55920  Biso   1.000  C
  H1053    1.0000 0.79440  0.77870  0.56680  Biso   1.000  H
  C838     1.0000 0.89900  0.96590  0.51500  Biso   1.000  C
  H1054    1.0000 0.87170  0.97060  0.51730  Biso   1.000  H
  H1055    1.0000 0.90390  0.95580  0.48960  Biso   1.000  H
  C839     1.0000 0.87570  0.66080  0.52480  Biso   1.000  C
  H1056    1.0000 0.85780  0.64410  0.50930  Biso   1.000  H
  H1057    1.0000 0.88470  0.64550  0.54760  Biso   1.000  H
  N221     1.0000 0.97000  0.69900  0.54820  Biso   1.000  N
  N222     1.0000 0.92100  0.79290  0.59080  Biso   1.000  N
  N223     1.0000 0.89984  0.87040  0.57130  Biso   1.000  N
  N224     1.0000 0.85000  0.76250  0.55890  Biso   1.000  N
  O166     1.0000 0.90860  0.67170  0.50130  Biso   1.000  O
  H1058    1.0000 0.92960  0.67900  0.49200  Biso   1.000  H
  O167     1.0000 0.92010  0.00010  0.51740  Biso   1.000  O
  H1059    1.0000 0.94190  0.01100  0.52200  Biso   1.000  H
  H1060    1.0000 0.88950  0.95240  0.49270  Biso   1.000  H
  H1061    1.0000 0.92160  0.98020  0.50720  Biso   1.000  H
  C840     1.0000 0.88060  0.66220  0.53160  Biso   1.000  C
  H1062    1.0000 0.86500  0.63910  0.52350  Biso   1.000  H
  H1063    1.0000 0.89460  0.65550  0.55600  Biso   1.000  H
  O168     1.0000 0.87250  0.99470  0.52790  Biso   1.000  O
  H1064    1.0000 0.85240  0.99220  0.51310  Biso   1.000  H
  C841     1.0000 0.92550  0.98100  0.28340  Biso   1.000  C
  C842     1.0000 0.89550  0.94790  0.22170  Biso   1.000  C
  C843     1.0000 0.95590  0.89360  0.10210  Biso   1.000  C
  H1065    1.0000 0.97830  0.87850  0.10880  Biso   1.000  H
  C844     1.0000 0.95310  0.90810  0.06390  Biso   1.000  C
  C845     1.0000 0.92120  0.93080  0.05470  Biso   1.000  C
  H1066    1.0000 0.91850  0.94190  0.02930  Biso   1.000  H
  C846     1.0000 0.89290  0.93740  0.08310  Biso   1.000  C
  H1067    1.0000 0.87060  0.95280  0.07730  Biso   1.000  H
  C847     1.0000 0.89760  0.92130  0.11970  Biso   1.000  C
  H1068    1.0000 0.87780  0.92550  0.13870  Biso   1.000  H
  C848     1.0000 0.95080  0.87230  0.26900  Biso   1.000  C
  H1069    1.0000 0.95040  0.90000  0.26730  Biso   1.000  H
  C849     1.0000 0.96130  0.85410  0.30380  Biso   1.000  C
  C850     1.0000 0.96150  0.81430  0.30730  Biso   1.000  C
  H1070    1.0000 0.96890  0.80220  0.33120  Biso   1.000  H
  C851     1.0000 0.95100  0.79280  0.27690  Biso   1.000  C
  H1071    1.0000 0.95070  0.76510  0.27890  Biso   1.000  H
  C852     1.0000 0.94080  0.81040  0.24260  Biso   1.000  C
  H1072    1.0000 0.93320  0.79440  0.22130  Biso   1.000  H
  C853     1.0000 0.98500  0.89900  0.03410  Biso   1.000  C
  H1073    1.0000 0.98270  0.87170  0.02940  Biso   1.000  H
  H1074    1.0000 0.01040  0.90390  0.04420  Biso   1.000  H
  C854     1.0000 0.97520  0.87570  0.33920  Biso   1.000  C
  H1075    1.0000 0.99070  0.85780  0.35590  Biso   1.000  H
  H1076    1.0000 0.95240  0.88470  0.35450  Biso   1.000  H
  N225     1.0000 0.95180  0.97000  0.30100  Biso   1.000  N
  N226     1.0000 0.90920  0.92100  0.20710  Biso   1.000  N
  N227     1.0000 0.92870  0.89984  0.12960  Biso   1.000  N
  N228     1.0000 0.94110  0.85000  0.23750  Biso   1.000  N
  O169     1.0000 0.99870  0.90860  0.32830  Biso   1.000  O
  H1077    1.0000 0.00800  0.92960  0.32100  Biso   1.000  H
  O170     1.0000 0.98260  0.92010  0.99990  Biso   1.000  O
  H1078    1.0000 0.97800  0.94190  0.98900  Biso   1.000  H
  H1079    1.0000 0.00730  0.88950  0.04760  Biso   1.000  H
  H1080    1.0000 0.99280  0.92160  0.01980  Biso   1.000  H
  C855     1.0000 0.96840  0.88060  0.33780  Biso   1.000  C
  H1081    1.0000 0.97650  0.86500  0.36090  Biso   1.000  H
  H1082    1.0000 0.94400  0.89460  0.34450  Biso   1.000  H
  O171     1.0000 0.97210  0.87250  0.00530  Biso   1.000  O
  H1083    1.0000 0.98690  0.85240  0.00780  Biso   1.000  H
  C856     1.0000 0.42550  0.48100  0.78340  Biso   1.000  C
  C857     1.0000 0.39550  0.44790  0.72170  Biso   1.000  C
  C858     1.0000 0.45590  0.39360  0.60210  Biso   1.000  C
  H1084    1.0000 0.47830  0.37850  0.60880  Biso   1.000  H
  C859     1.0000 0.45310  0.40810  0.56390  Biso   1.000  C
  C860     1.0000 0.42120  0.43080  0.55470  Biso   1.000  C
  H1085    1.0000 0.41850  0.44190  0.52930  Biso   1.000  H
  C861     1.0000 0.39290  0.43740  0.58310  Biso   1.000  C
  H1086    1.0000 0.37060  0.45280  0.57730  Biso   1.000  H
  C862     1.0000 0.39760  0.42130  0.61970  Biso   1.000  C
  H1087    1.0000 0.37780  0.42550  0.63870  Biso   1.000  H
  C863     1.0000 0.45080  0.37230  0.76900  Biso   1.000  C
  H1088    1.0000 0.45040  0.40000  0.76730  Biso   1.000  H
  C864     1.0000 0.46130  0.35410  0.80380  Biso   1.000  C
  C865     1.0000 0.46150  0.31430  0.80730  Biso   1.000  C
  H1089    1.0000 0.46890  0.30220  0.83120  Biso   1.000  H
  C866     1.0000 0.45100  0.29280  0.77690  Biso   1.000  C
  H1090    1.0000 0.45070  0.26510  0.77890  Biso   1.000  H
  C867     1.0000 0.44080  0.31040  0.74260  Biso   1.000  C
  H1091    1.0000 0.43320  0.29440  0.72130  Biso   1.000  H
  C868     1.0000 0.48500  0.39900  0.53410  Biso   1.000  C
  H1092    1.0000 0.48270  0.37170  0.52940  Biso   1.000  H
  H1093    1.0000 0.51040  0.40390  0.54420  Biso   1.000  H
  C869     1.0000 0.47520  0.37570  0.83920  Biso   1.000  C
  H1094    1.0000 0.49070  0.35780  0.85590  Biso   1.000  H
  H1095    1.0000 0.45240  0.38470  0.85450  Biso   1.000  H
  N229     1.0000 0.45180  0.47000  0.80100  Biso   1.000  N
  N230     1.0000 0.40920  0.42100  0.70710  Biso   1.000  N
  N231     1.0000 0.42870  0.39984  0.62960  Biso   1.000  N
  N232     1.0000 0.44110  0.35000  0.73750  Biso   1.000  N
  O172     1.0000 0.49870  0.40860  0.82830  Biso   1.000  O
  H1096    1.0000 0.50800  0.42960  0.82100  Biso   1.000  H
  O173     1.0000 0.48260  0.42010  0.49990  Biso   1.000  O
  H1097    1.0000 0.47800  0.44190  0.48900  Biso   1.000  H
  H1098    1.0000 0.50730  0.38950  0.54760  Biso   1.000  H
  H1099    1.0000 0.49280  0.42160  0.51980  Biso   1.000  H
  C870     1.0000 0.46840  0.38060  0.83780  Biso   1.000  C
  H1100    1.0000 0.47650  0.36500  0.86090  Biso   1.000  H
  H1101    1.0000 0.44400  0.39460  0.84450  Biso   1.000  H
  O174     1.0000 0.47210  0.37250  0.50530  Biso   1.000  O
  H1102    1.0000 0.48690  0.35240  0.50780  Biso   1.000  H
  C871     1.0000 0.42550  0.51900  0.71660  Biso   1.000  C
  C872     1.0000 0.39550  0.55210  0.77830  Biso   1.000  C
  C873     1.0000 0.45590  0.60640  0.89790  Biso   1.000  C
  H1103    1.0000 0.47830  0.62150  0.89120  Biso   1.000  H
  C874     1.0000 0.45310  0.59190  0.93610  Biso   1.000  C
  C875     1.0000 0.42120  0.56920  0.94530  Biso   1.000  C
  H1104    1.0000 0.41850  0.55810  0.97070  Biso   1.000  H
  C876     1.0000 0.39290  0.56260  0.91690  Biso   1.000  C
  H1105    1.0000 0.37060  0.54720  0.92270  Biso   1.000  H
  C877     1.0000 0.39760  0.57870  0.88030  Biso   1.000  C
  H1106    1.0000 0.37780  0.57450  0.86130  Biso   1.000  H
  C878     1.0000 0.45080  0.62770  0.73100  Biso   1.000  C
  H1107    1.0000 0.45040  0.60000  0.73270  Biso   1.000  H
  C879     1.0000 0.46130  0.64590  0.69620  Biso   1.000  C
  C880     1.0000 0.46150  0.68570  0.69270  Biso   1.000  C
  H1108    1.0000 0.46890  0.69780  0.66880  Biso   1.000  H
  C881     1.0000 0.45100  0.70720  0.72310  Biso   1.000  C
  H1109    1.0000 0.45070  0.73490  0.72110  Biso   1.000  H
  C882     1.0000 0.44080  0.68960  0.75740  Biso   1.000  C
  H1110    1.0000 0.43320  0.70560  0.77870  Biso   1.000  H
  C883     1.0000 0.48500  0.60100  0.96590  Biso   1.000  C
  H1111    1.0000 0.48270  0.62830  0.97060  Biso   1.000  H
  H1112    1.0000 0.51040  0.59610  0.95580  Biso   1.000  H
  C884     1.0000 0.47520  0.62430  0.66080  Biso   1.000  C
  H1113    1.0000 0.49070  0.64220  0.64410  Biso   1.000  H
  H1114    1.0000 0.45240  0.61530  0.64550  Biso   1.000  H
  N233     1.0000 0.45180  0.53000  0.69900  Biso   1.000  N
  N234     1.0000 0.40920  0.57900  0.79290  Biso   1.000  N
  N235     1.0000 0.42870  0.60016  0.87040  Biso   1.000  N
  N236     1.0000 0.44110  0.65000  0.76250  Biso   1.000  N
  O175     1.0000 0.49870  0.59140  0.67170  Biso   1.000  O
  H1115    1.0000 0.50800  0.57040  0.67900  Biso   1.000  H
  O176     1.0000 0.48260  0.57990  0.00010  Biso   1.000  O
  H1116    1.0000 0.47800  0.55810  0.01100  Biso   1.000  H
  H1117    1.0000 0.50730  0.61050  0.95240  Biso   1.000  H
  H1118    1.0000 0.49280  0.57840  0.98020  Biso   1.000  H
  C885     1.0000 0.46840  0.61940  0.66220  Biso   1.000  C
  H1119    1.0000 0.47650  0.63500  0.63910  Biso   1.000  H
  H1120    1.0000 0.44400  0.60540  0.65550  Biso   1.000  H
  O177     1.0000 0.47210  0.62750  0.99470  Biso   1.000  O
  H1121    1.0000 0.48690  0.64760  0.99220  Biso   1.000  H
  C886     1.0000 0.92550  0.01900  0.21660  Biso   1.000  C
  C887     1.0000 0.89550  0.05210  0.27830  Biso   1.000  C
  C888     1.0000 0.95590  0.10640  0.39790  Biso   1.000  C
  H1122    1.0000 0.97830  0.12150  0.39120  Biso   1.000  H
  C889     1.0000 0.95310  0.09190  0.43610  Biso   1.000  C
  C890     1.0000 0.92120  0.06920  0.44530  Biso   1.000  C
  H1123    1.0000 0.91850  0.05810  0.47070  Biso   1.000  H
  C891     1.0000 0.89290  0.06260  0.41690  Biso   1.000  C
  H1124    1.0000 0.87060  0.04720  0.42270  Biso   1.000  H
  C892     1.0000 0.89760  0.07870  0.38030  Biso   1.000  C
  H1125    1.0000 0.87780  0.07450  0.36130  Biso   1.000  H
  C893     1.0000 0.95080  0.12770  0.23100  Biso   1.000  C
  H1126    1.0000 0.95040  0.10000  0.23270  Biso   1.000  H
  C894     1.0000 0.96130  0.14590  0.19620  Biso   1.000  C
  C895     1.0000 0.96150  0.18570  0.19270  Biso   1.000  C
  H1127    1.0000 0.96890  0.19780  0.16880  Biso   1.000  H
  C896     1.0000 0.95100  0.20720  0.22310  Biso   1.000  C
  H1128    1.0000 0.95070  0.23490  0.22110  Biso   1.000  H
  C897     1.0000 0.94080  0.18960  0.25740  Biso   1.000  C
  H1129    1.0000 0.93320  0.20560  0.27870  Biso   1.000  H
  C898     1.0000 0.98500  0.10100  0.46590  Biso   1.000  C
  H1130    1.0000 0.98270  0.12830  0.47060  Biso   1.000  H
  H1131    1.0000 0.01040  0.09610  0.45580  Biso   1.000  H
  C899     1.0000 0.97520  0.12430  0.16080  Biso   1.000  C
  H1132    1.0000 0.99070  0.14220  0.14410  Biso   1.000  H
  H1133    1.0000 0.95240  0.11530  0.14550  Biso   1.000  H
  N237     1.0000 0.95180  0.03000  0.19900  Biso   1.000  N
  N238     1.0000 0.90920  0.07900  0.29290  Biso   1.000  N
  N239     1.0000 0.92870  0.10016  0.37040  Biso   1.000  N
  N240     1.0000 0.94110  0.15000  0.26250  Biso   1.000  N
  O178     1.0000 0.99870  0.09140  0.17170  Biso   1.000  O
  H1134    1.0000 0.00800  0.07040  0.17900  Biso   1.000  H
  O179     1.0000 0.98260  0.07990  0.50010  Biso   1.000  O
  H1135    1.0000 0.97800  0.05810  0.51100  Biso   1.000  H
  H1136    1.0000 0.00730  0.11050  0.45240  Biso   1.000  H
  H1137    1.0000 0.99280  0.07840  0.48020  Biso   1.000  H
  C900     1.0000 0.96840  0.11940  0.16220  Biso   1.000  C
  H1138    1.0000 0.97650  0.13500  0.13910  Biso   1.000  H
  H1139    1.0000 0.94400  0.10540  0.15550  Biso   1.000  H
  O180     1.0000 0.97210  0.12750  0.49470  Biso   1.000  O
  H1140    1.0000 0.98690  0.14760  0.49220  Biso   1.000  H
  C901     1.0000 0.57450  0.01900  0.78340  Biso   1.000  C
  C902     1.0000 0.60450  0.05210  0.72170  Biso   1.000  C
  C903     1.0000 0.54410  0.10640  0.60210  Biso   1.000  C
  H1141    1.0000 0.52170  0.12150  0.60880  Biso   1.000  H
  C904     1.0000 0.54690  0.09190  0.56390  Biso   1.000  C
  C905     1.0000 0.57880  0.06920  0.55470  Biso   1.000  C
  H1142    1.0000 0.58150  0.05810  0.52930  Biso   1.000  H
  C906     1.0000 0.60710  0.06260  0.58310  Biso   1.000  C
  H1143    1.0000 0.62940  0.04720  0.57730  Biso   1.000  H
  C907     1.0000 0.60240  0.07870  0.61970  Biso   1.000  C
  H1144    1.0000 0.62220  0.07450  0.63870  Biso   1.000  H
  C908     1.0000 0.54920  0.12770  0.76900  Biso   1.000  C
  H1145    1.0000 0.54960  0.10000  0.76730  Biso   1.000  H
  C909     1.0000 0.53870  0.14590  0.80380  Biso   1.000  C
  C910     1.0000 0.53850  0.18570  0.80730  Biso   1.000  C
  H1146    1.0000 0.53110  0.19780  0.83120  Biso   1.000  H
  C911     1.0000 0.54900  0.20720  0.77690  Biso   1.000  C
  H1147    1.0000 0.54930  0.23490  0.77890  Biso   1.000  H
  C912     1.0000 0.55920  0.18960  0.74260  Biso   1.000  C
  H1148    1.0000 0.56680  0.20560  0.72130  Biso   1.000  H
  C913     1.0000 0.51500  0.10100  0.53410  Biso   1.000  C
  H1149    1.0000 0.51730  0.12830  0.52940  Biso   1.000  H
  H1150    1.0000 0.48960  0.09610  0.54420  Biso   1.000  H
  C914     1.0000 0.52480  0.12430  0.83920  Biso   1.000  C
  H1151    1.0000 0.50930  0.14220  0.85590  Biso   1.000  H
  H1152    1.0000 0.54760  0.11530  0.85450  Biso   1.000  H
  N241     1.0000 0.54820  0.03000  0.80100  Biso   1.000  N
  N242     1.0000 0.59080  0.07900  0.70710  Biso   1.000  N
  N243     1.0000 0.57130  0.10016  0.62960  Biso   1.000  N
  N244     1.0000 0.55890  0.15000  0.73750  Biso   1.000  N
  O181     1.0000 0.50130  0.09140  0.82830  Biso   1.000  O
  H1153    1.0000 0.49200  0.07040  0.82100  Biso   1.000  H
  O182     1.0000 0.51740  0.07990  0.49990  Biso   1.000  O
  H1154    1.0000 0.52200  0.05810  0.48900  Biso   1.000  H
  H1155    1.0000 0.49270  0.11050  0.54760  Biso   1.000  H
  H1156    1.0000 0.50720  0.07840  0.51980  Biso   1.000  H
  C915     1.0000 0.53160  0.11940  0.83780  Biso   1.000  C
  H1157    1.0000 0.52350  0.13500  0.86090  Biso   1.000  H
  H1158    1.0000 0.55600  0.10540  0.84450  Biso   1.000  H
  O183     1.0000 0.52790  0.12750  0.50530  Biso   1.000  O
  H1159    1.0000 0.51310  0.14760  0.50780  Biso   1.000  H
  C916     1.0000 0.07450  0.51900  0.28340  Biso   1.000  C
  C917     1.0000 0.10450  0.55210  0.22170  Biso   1.000  C
  C918     1.0000 0.04410  0.60640  0.10210  Biso   1.000  C
  H1160    1.0000 0.02170  0.62150  0.10880  Biso   1.000  H
  C919     1.0000 0.04690  0.59190  0.06390  Biso   1.000  C
  C920     1.0000 0.07880  0.56920  0.05470  Biso   1.000  C
  H1161    1.0000 0.08150  0.55810  0.02930  Biso   1.000  H
  C921     1.0000 0.10710  0.56260  0.08310  Biso   1.000  C
  H1162    1.0000 0.12940  0.54720  0.07730  Biso   1.000  H
  C922     1.0000 0.10240  0.57870  0.11970  Biso   1.000  C
  H1163    1.0000 0.12220  0.57450  0.13870  Biso   1.000  H
  C923     1.0000 0.04920  0.62770  0.26900  Biso   1.000  C
  H1164    1.0000 0.04960  0.60000  0.26730  Biso   1.000  H
  C924     1.0000 0.03870  0.64590  0.30380  Biso   1.000  C
  C925     1.0000 0.03850  0.68570  0.30730  Biso   1.000  C
  H1165    1.0000 0.03110  0.69780  0.33120  Biso   1.000  H
  C926     1.0000 0.04900  0.70720  0.27690  Biso   1.000  C
  H1166    1.0000 0.04930  0.73490  0.27890  Biso   1.000  H
  C927     1.0000 0.05920  0.68960  0.24260  Biso   1.000  C
  H1167    1.0000 0.06680  0.70560  0.22130  Biso   1.000  H
  C928     1.0000 0.01500  0.60100  0.03410  Biso   1.000  C
  H1168    1.0000 0.01730  0.62830  0.02940  Biso   1.000  H
  H1169    1.0000 0.98960  0.59610  0.04420  Biso   1.000  H
  C929     1.0000 0.02480  0.62430  0.33920  Biso   1.000  C
  H1170    1.0000 0.00930  0.64220  0.35590  Biso   1.000  H
  H1171    1.0000 0.04760  0.61530  0.35450  Biso   1.000  H
  N245     1.0000 0.04820  0.53000  0.30100  Biso   1.000  N
  N246     1.0000 0.09080  0.57900  0.20710  Biso   1.000  N
  N247     1.0000 0.07130  0.60016  0.12960  Biso   1.000  N
  N248     1.0000 0.05890  0.65000  0.23750  Biso   1.000  N
  O184     1.0000 0.00130  0.59140  0.32830  Biso   1.000  O
  H1172    1.0000 0.99200  0.57040  0.32100  Biso   1.000  H
  O185     1.0000 0.01740  0.57990  0.99990  Biso   1.000  O
  H1173    1.0000 0.02200  0.55810  0.98900  Biso   1.000  H
  H1174    1.0000 0.99270  0.61050  0.04760  Biso   1.000  H
  H1175    1.0000 0.00720  0.57840  0.01980  Biso   1.000  H
  C930     1.0000 0.03160  0.61940  0.33780  Biso   1.000  C
  H1176    1.0000 0.02350  0.63500  0.36090  Biso   1.000  H
  H1177    1.0000 0.05600  0.60540  0.34450  Biso   1.000  H
  O186     1.0000 0.02790  0.62750  0.00530  Biso   1.000  O
  H1178    1.0000 0.01310  0.64760  0.00780  Biso   1.000  H
  C931     1.0000 0.07450  0.48100  0.21660  Biso   1.000  C
  C932     1.0000 0.10450  0.44790  0.27830  Biso   1.000  C
  C933     1.0000 0.04410  0.39360  0.39790  Biso   1.000  C
  H1179    1.0000 0.02170  0.37850  0.39120  Biso   1.000  H
  C934     1.0000 0.04690  0.40810  0.43610  Biso   1.000  C
  C935     1.0000 0.07880  0.43080  0.44530  Biso   1.000  C
  H1180    1.0000 0.08150  0.44190  0.47070  Biso   1.000  H
  C936     1.0000 0.10710  0.43740  0.41690  Biso   1.000  C
  H1181    1.0000 0.12940  0.45280  0.42270  Biso   1.000  H
  C937     1.0000 0.10240  0.42130  0.38030  Biso   1.000  C
  H1182    1.0000 0.12220  0.42550  0.36130  Biso   1.000  H
  C938     1.0000 0.04920  0.37230  0.23100  Biso   1.000  C
  H1183    1.0000 0.04960  0.40000  0.23270  Biso   1.000  H
  C939     1.0000 0.03870  0.35410  0.19620  Biso   1.000  C
  C940     1.0000 0.03850  0.31430  0.19270  Biso   1.000  C
  H1184    1.0000 0.03110  0.30220  0.16880  Biso   1.000  H
  C941     1.0000 0.04900  0.29280  0.22310  Biso   1.000  C
  H1185    1.0000 0.04930  0.26510  0.22110  Biso   1.000  H
  C942     1.0000 0.05920  0.31040  0.25740  Biso   1.000  C
  H1186    1.0000 0.06680  0.29440  0.27870  Biso   1.000  H
  C943     1.0000 0.01500  0.39900  0.46590  Biso   1.000  C
  H1187    1.0000 0.01730  0.37170  0.47060  Biso   1.000  H
  H1188    1.0000 0.98960  0.40390  0.45580  Biso   1.000  H
  C944     1.0000 0.02480  0.37570  0.16080  Biso   1.000  C
  H1189    1.0000 0.00930  0.35780  0.14410  Biso   1.000  H
  H1190    1.0000 0.04760  0.38470  0.14550  Biso   1.000  H
  N249     1.0000 0.04820  0.47000  0.19900  Biso   1.000  N
  N250     1.0000 0.09080  0.42100  0.29290  Biso   1.000  N
  N251     1.0000 0.07130  0.39984  0.37040  Biso   1.000  N
  N252     1.0000 0.05890  0.35000  0.26250  Biso   1.000  N
  O187     1.0000 0.00130  0.40860  0.17170  Biso   1.000  O
  H1191    1.0000 0.99200  0.42960  0.17900  Biso   1.000  H
  O188     1.0000 0.01740  0.42010  0.50010  Biso   1.000  O
  H1192    1.0000 0.02200  0.44190  0.51100  Biso   1.000  H
  H1193    1.0000 0.99270  0.38950  0.45240  Biso   1.000  H
  H1194    1.0000 0.00720  0.42160  0.48020  Biso   1.000  H
  C945     1.0000 0.03160  0.38060  0.16220  Biso   1.000  C
  H1195    1.0000 0.02350  0.36500  0.13910  Biso   1.000  H
  H1196    1.0000 0.05600  0.39460  0.15550  Biso   1.000  H
  O189     1.0000 0.02790  0.37250  0.49470  Biso   1.000  O
  H1197    1.0000 0.01310  0.35240  0.49220  Biso   1.000  H
  C946     1.0000 0.57450  0.98100  0.71660  Biso   1.000  C
  C947     1.0000 0.60450  0.94790  0.77830  Biso   1.000  C
  C948     1.0000 0.54410  0.89360  0.89790  Biso   1.000  C
  H1198    1.0000 0.52170  0.87850  0.89120  Biso   1.000  H
  C949     1.0000 0.54690  0.90810  0.93610  Biso   1.000  C
  C950     1.0000 0.57880  0.93080  0.94530  Biso   1.000  C
  H1199    1.0000 0.58150  0.94190  0.97070  Biso   1.000  H
  C951     1.0000 0.60710  0.93740  0.91690  Biso   1.000  C
  H1200    1.0000 0.62940  0.95280  0.92270  Biso   1.000  H
  C952     1.0000 0.60240  0.92130  0.88030  Biso   1.000  C
  H1201    1.0000 0.62220  0.92550  0.86130  Biso   1.000  H
  C953     1.0000 0.54920  0.87230  0.73100  Biso   1.000  C
  H1202    1.0000 0.54960  0.90000  0.73270  Biso   1.000  H
  C954     1.0000 0.53870  0.85410  0.69620  Biso   1.000  C
  C955     1.0000 0.53850  0.81430  0.69270  Biso   1.000  C
  H1203    1.0000 0.53110  0.80220  0.66880  Biso   1.000  H
  C956     1.0000 0.54900  0.79280  0.72310  Biso   1.000  C
  H1204    1.0000 0.54930  0.76510  0.72110  Biso   1.000  H
  C957     1.0000 0.55920  0.81040  0.75740  Biso   1.000  C
  H1205    1.0000 0.56680  0.79440  0.77870  Biso   1.000  H
  C958     1.0000 0.51500  0.89900  0.96590  Biso   1.000  C
  H1206    1.0000 0.51730  0.87170  0.97060  Biso   1.000  H
  H1207    1.0000 0.48960  0.90390  0.95580  Biso   1.000  H
  C959     1.0000 0.52480  0.87570  0.66080  Biso   1.000  C
  H1208    1.0000 0.50930  0.85780  0.64410  Biso   1.000  H
  H1209    1.0000 0.54760  0.88470  0.64550  Biso   1.000  H
  N253     1.0000 0.54820  0.97000  0.69900  Biso   1.000  N
  N254     1.0000 0.59080  0.92100  0.79290  Biso   1.000  N
  N255     1.0000 0.57130  0.89984  0.87040  Biso   1.000  N
  N256     1.0000 0.55890  0.85000  0.76250  Biso   1.000  N
  O190     1.0000 0.50130  0.90860  0.67170  Biso   1.000  O
  H1210    1.0000 0.49200  0.92960  0.67900  Biso   1.000  H
  O191     1.0000 0.51740  0.92010  0.00010  Biso   1.000  O
  H1211    1.0000 0.52200  0.94190  0.01100  Biso   1.000  H
  H1212    1.0000 0.49270  0.88950  0.95240  Biso   1.000  H
  H1213    1.0000 0.50720  0.92160  0.98020  Biso   1.000  H
  C960     1.0000 0.53160  0.88060  0.66220  Biso   1.000  C
  H1214    1.0000 0.52350  0.86500  0.63910  Biso   1.000  H
  H1215    1.0000 0.55600  0.89460  0.65550  Biso   1.000  H
  O192     1.0000 0.52790  0.87250  0.99470  Biso   1.000  O
  H1216    1.0000 0.51310  0.85240  0.99220  Biso   1.000  H
  C961     1.0000 0.28340  0.92550  0.98100  Biso   1.000  C
  C962     1.0000 0.22170  0.89550  0.94790  Biso   1.000  C
  C963     1.0000 0.10210  0.95590  0.89360  Biso   1.000  C
  H1217    1.0000 0.10880  0.97830  0.87850  Biso   1.000  H
  C964     1.0000 0.06390  0.95310  0.90810  Biso   1.000  C
  C965     1.0000 0.05470  0.92120  0.93080  Biso   1.000  C
  H1218    1.0000 0.02930  0.91850  0.94190  Biso   1.000  H
  C966     1.0000 0.08310  0.89290  0.93740  Biso   1.000  C
  H1219    1.0000 0.07730  0.87060  0.95280  Biso   1.000  H
  C967     1.0000 0.11970  0.89760  0.92130  Biso   1.000  C
  H1220    1.0000 0.13870  0.87780  0.92550  Biso   1.000  H
  C968     1.0000 0.26900  0.95080  0.87230  Biso   1.000  C
  H1221    1.0000 0.26730  0.95040  0.90000  Biso   1.000  H
  C969     1.0000 0.30380  0.96130  0.85410  Biso   1.000  C
  C970     1.0000 0.30730  0.96150  0.81430  Biso   1.000  C
  H1222    1.0000 0.33120  0.96890  0.80220  Biso   1.000  H
  C971     1.0000 0.27690  0.95100  0.79280  Biso   1.000  C
  H1223    1.0000 0.27890  0.95070  0.76510  Biso   1.000  H
  C972     1.0000 0.24260  0.94080  0.81040  Biso   1.000  C
  H1224    1.0000 0.22130  0.93320  0.79440  Biso   1.000  H
  C973     1.0000 0.03410  0.98500  0.89900  Biso   1.000  C
  H1225    1.0000 0.02940  0.98270  0.87170  Biso   1.000  H
  H1226    1.0000 0.04420  0.01040  0.90390  Biso   1.000  H
  C974     1.0000 0.33920  0.97520  0.87570  Biso   1.000  C
  H1227    1.0000 0.35590  0.99070  0.85780  Biso   1.000  H
  H1228    1.0000 0.35450  0.95240  0.88470  Biso   1.000  H
  N257     1.0000 0.30100  0.95180  0.97000  Biso   1.000  N
  N258     1.0000 0.20710  0.90920  0.92100  Biso   1.000  N
  N259     1.0000 0.12960  0.92870  0.89984  Biso   1.000  N
  N260     1.0000 0.23750  0.94110  0.85000  Biso   1.000  N
  O193     1.0000 0.32830  0.99870  0.90860  Biso   1.000  O
  H1229    1.0000 0.32100  0.00800  0.92960  Biso   1.000  H
  O194     1.0000 0.99990  0.98260  0.92010  Biso   1.000  O
  H1230    1.0000 0.98900  0.97800  0.94190  Biso   1.000  H
  H1231    1.0000 0.04760  0.00730  0.88950  Biso   1.000  H
  H1232    1.0000 0.01980  0.99280  0.92160  Biso   1.000  H
  C975     1.0000 0.33780  0.96840  0.88060  Biso   1.000  C
  H1233    1.0000 0.36090  0.97650  0.86500  Biso   1.000  H
  H1234    1.0000 0.34450  0.94400  0.89460  Biso   1.000  H
  O195     1.0000 0.00530  0.97210  0.87250  Biso   1.000  O
  H1235    1.0000 0.00780  0.98690  0.85240  Biso   1.000  H
  C976     1.0000 0.78340  0.42550  0.48100  Biso   1.000  C
  C977     1.0000 0.72170  0.39550  0.44790  Biso   1.000  C
  C978     1.0000 0.60210  0.45590  0.39360  Biso   1.000  C
  H1236    1.0000 0.60880  0.47830  0.37850  Biso   1.000  H
  C979     1.0000 0.56390  0.45310  0.40810  Biso   1.000  C
  C980     1.0000 0.55470  0.42120  0.43080  Biso   1.000  C
  H1237    1.0000 0.52930  0.41850  0.44190  Biso   1.000  H
  C981     1.0000 0.58310  0.39290  0.43740  Biso   1.000  C
  H1238    1.0000 0.57730  0.37060  0.45280  Biso   1.000  H
  C982     1.0000 0.61970  0.39760  0.42130  Biso   1.000  C
  H1239    1.0000 0.63870  0.37780  0.42550  Biso   1.000  H
  C983     1.0000 0.76900  0.45080  0.37230  Biso   1.000  C
  H1240    1.0000 0.76730  0.45040  0.40000  Biso   1.000  H
  C984     1.0000 0.80380  0.46130  0.35410  Biso   1.000  C
  C985     1.0000 0.80730  0.46150  0.31430  Biso   1.000  C
  H1241    1.0000 0.83120  0.46890  0.30220  Biso   1.000  H
  C986     1.0000 0.77690  0.45100  0.29280  Biso   1.000  C
  H1242    1.0000 0.77890  0.45070  0.26510  Biso   1.000  H
  C987     1.0000 0.74260  0.44080  0.31040  Biso   1.000  C
  H1243    1.0000 0.72130  0.43320  0.29440  Biso   1.000  H
  C988     1.0000 0.53410  0.48500  0.39900  Biso   1.000  C
  H1244    1.0000 0.52940  0.48270  0.37170  Biso   1.000  H
  H1245    1.0000 0.54420  0.51040  0.40390  Biso   1.000  H
  C989     1.0000 0.83920  0.47520  0.37570  Biso   1.000  C
  H1246    1.0000 0.85590  0.49070  0.35780  Biso   1.000  H
  H1247    1.0000 0.85450  0.45240  0.38470  Biso   1.000  H
  N261     1.0000 0.80100  0.45180  0.47000  Biso   1.000  N
  N262     1.0000 0.70710  0.40920  0.42100  Biso   1.000  N
  N263     1.0000 0.62960  0.42870  0.39984  Biso   1.000  N
  N264     1.0000 0.73750  0.44110  0.35000  Biso   1.000  N
  O196     1.0000 0.82830  0.49870  0.40860  Biso   1.000  O
  H1248    1.0000 0.82100  0.50800  0.42960  Biso   1.000  H
  O197     1.0000 0.49990  0.48260  0.42010  Biso   1.000  O
  H1249    1.0000 0.48900  0.47800  0.44190  Biso   1.000  H
  H1250    1.0000 0.54760  0.50730  0.38950  Biso   1.000  H
  H1251    1.0000 0.51980  0.49280  0.42160  Biso   1.000  H
  C990     1.0000 0.83780  0.46840  0.38060  Biso   1.000  C
  H1252    1.0000 0.86090  0.47650  0.36500  Biso   1.000  H
  H1253    1.0000 0.84450  0.44400  0.39460  Biso   1.000  H
  O198     1.0000 0.50530  0.47210  0.37250  Biso   1.000  O
  H1254    1.0000 0.50780  0.48690  0.35240  Biso   1.000  H
  C991     1.0000 0.71660  0.42550  0.51900  Biso   1.000  C
  C992     1.0000 0.77830  0.39550  0.55210  Biso   1.000  C
  C993     1.0000 0.89790  0.45590  0.60640  Biso   1.000  C
  H1255    1.0000 0.89120  0.47830  0.62150  Biso   1.000  H
  C994     1.0000 0.93610  0.45310  0.59190  Biso   1.000  C
  C995     1.0000 0.94530  0.42120  0.56920  Biso   1.000  C
  H1256    1.0000 0.97070  0.41850  0.55810  Biso   1.000  H
  C996     1.0000 0.91690  0.39290  0.56260  Biso   1.000  C
  H1257    1.0000 0.92270  0.37060  0.54720  Biso   1.000  H
  C997     1.0000 0.88030  0.39760  0.57870  Biso   1.000  C
  H1258    1.0000 0.86130  0.37780  0.57450  Biso   1.000  H
  C998     1.0000 0.73100  0.45080  0.62770  Biso   1.000  C
  H1259    1.0000 0.73270  0.45040  0.60000  Biso   1.000  H
  C999     1.0000 0.69620  0.46130  0.64590  Biso   1.000  C
  C1000    1.0000 0.69270  0.46150  0.68570  Biso   1.000  C
  H1260    1.0000 0.66880  0.46890  0.69780  Biso   1.000  H
  C1001    1.0000 0.72310  0.45100  0.70720  Biso   1.000  C
  H1261    1.0000 0.72110  0.45070  0.73490  Biso   1.000  H
  C1002    1.0000 0.75740  0.44080  0.68960  Biso   1.000  C
  H1262    1.0000 0.77870  0.43320  0.70560  Biso   1.000  H
  C1003    1.0000 0.96590  0.48500  0.60100  Biso   1.000  C
  H1263    1.0000 0.97060  0.48270  0.62830  Biso   1.000  H
  H1264    1.0000 0.95580  0.51040  0.59610  Biso   1.000  H
  C1004    1.0000 0.66080  0.47520  0.62430  Biso   1.000  C
  H1265    1.0000 0.64410  0.49070  0.64220  Biso   1.000  H
  H1266    1.0000 0.64550  0.45240  0.61530  Biso   1.000  H
  N265     1.0000 0.69900  0.45180  0.53000  Biso   1.000  N
  N266     1.0000 0.79290  0.40920  0.57900  Biso   1.000  N
  N267     1.0000 0.87040  0.42870  0.60016  Biso   1.000  N
  N268     1.0000 0.76250  0.44110  0.65000  Biso   1.000  N
  O199     1.0000 0.67170  0.49870  0.59140  Biso   1.000  O
  H1267    1.0000 0.67900  0.50800  0.57040  Biso   1.000  H
  O200     1.0000 0.00010  0.48260  0.57990  Biso   1.000  O
  H1268    1.0000 0.01100  0.47800  0.55810  Biso   1.000  H
  H1269    1.0000 0.95240  0.50730  0.61050  Biso   1.000  H
  H1270    1.0000 0.98020  0.49280  0.57840  Biso   1.000  H
  C1005    1.0000 0.66220  0.46840  0.61940  Biso   1.000  C
  H1271    1.0000 0.63910  0.47650  0.63500  Biso   1.000  H
  H1272    1.0000 0.65550  0.44400  0.60540  Biso   1.000  H
  O201     1.0000 0.99470  0.47210  0.62750  Biso   1.000  O
  H1273    1.0000 0.99220  0.48690  0.64760  Biso   1.000  H
  C1006    1.0000 0.21660  0.92550  0.01900  Biso   1.000  C
  C1007    1.0000 0.27830  0.89550  0.05210  Biso   1.000  C
  C1008    1.0000 0.39790  0.95590  0.10640  Biso   1.000  C
  H1274    1.0000 0.39120  0.97830  0.12150  Biso   1.000  H
  C1009    1.0000 0.43610  0.95310  0.09190  Biso   1.000  C
  C1010    1.0000 0.44530  0.92120  0.06920  Biso   1.000  C
  H1275    1.0000 0.47070  0.91850  0.05810  Biso   1.000  H
  C1011    1.0000 0.41690  0.89290  0.06260  Biso   1.000  C
  H1276    1.0000 0.42270  0.87060  0.04720  Biso   1.000  H
  C1012    1.0000 0.38030  0.89760  0.07870  Biso   1.000  C
  H1277    1.0000 0.36130  0.87780  0.07450  Biso   1.000  H
  C1013    1.0000 0.23100  0.95080  0.12770  Biso   1.000  C
  H1278    1.0000 0.23270  0.95040  0.10000  Biso   1.000  H
  C1014    1.0000 0.19620  0.96130  0.14590  Biso   1.000  C
  C1015    1.0000 0.19270  0.96150  0.18570  Biso   1.000  C
  H1279    1.0000 0.16880  0.96890  0.19780  Biso   1.000  H
  C1016    1.0000 0.22310  0.95100  0.20720  Biso   1.000  C
  H1280    1.0000 0.22110  0.95070  0.23490  Biso   1.000  H
  C1017    1.0000 0.25740  0.94080  0.18960  Biso   1.000  C
  H1281    1.0000 0.27870  0.93320  0.20560  Biso   1.000  H
  C1018    1.0000 0.46590  0.98500  0.10100  Biso   1.000  C
  H1282    1.0000 0.47060  0.98270  0.12830  Biso   1.000  H
  H1283    1.0000 0.45580  0.01040  0.09610  Biso   1.000  H
  C1019    1.0000 0.16080  0.97520  0.12430  Biso   1.000  C
  H1284    1.0000 0.14410  0.99070  0.14220  Biso   1.000  H
  H1285    1.0000 0.14550  0.95240  0.11530  Biso   1.000  H
  N269     1.0000 0.19900  0.95180  0.03000  Biso   1.000  N
  N270     1.0000 0.29290  0.90920  0.07900  Biso   1.000  N
  N271     1.0000 0.37040  0.92870  0.10016  Biso   1.000  N
  N272     1.0000 0.26250  0.94110  0.15000  Biso   1.000  N
  O202     1.0000 0.17170  0.99870  0.09140  Biso   1.000  O
  H1286    1.0000 0.17900  0.00800  0.07040  Biso   1.000  H
  O203     1.0000 0.50010  0.98260  0.07990  Biso   1.000  O
  H1287    1.0000 0.51100  0.97800  0.05810  Biso   1.000  H
  H1288    1.0000 0.45240  0.00730  0.11050  Biso   1.000  H
  H1289    1.0000 0.48020  0.99280  0.07840  Biso   1.000  H
  C1020    1.0000 0.16220  0.96840  0.11940  Biso   1.000  C
  H1290    1.0000 0.13910  0.97650  0.13500  Biso   1.000  H
  H1291    1.0000 0.15550  0.94400  0.10540  Biso   1.000  H
  O204     1.0000 0.49470  0.97210  0.12750  Biso   1.000  O
  H1292    1.0000 0.49220  0.98690  0.14760  Biso   1.000  H
  C1021    1.0000 0.78340  0.57450  0.01900  Biso   1.000  C
  C1022    1.0000 0.72170  0.60450  0.05210  Biso   1.000  C
  C1023    1.0000 0.60210  0.54410  0.10640  Biso   1.000  C
  H1293    1.0000 0.60880  0.52170  0.12150  Biso   1.000  H
  C1024    1.0000 0.56390  0.54690  0.09190  Biso   1.000  C
  C1025    1.0000 0.55470  0.57880  0.06920  Biso   1.000  C
  H1294    1.0000 0.52930  0.58150  0.05810  Biso   1.000  H
  C1026    1.0000 0.58310  0.60710  0.06260  Biso   1.000  C
  H1295    1.0000 0.57730  0.62940  0.04720  Biso   1.000  H
  C1027    1.0000 0.61970  0.60240  0.07870  Biso   1.000  C
  H1296    1.0000 0.63870  0.62220  0.07450  Biso   1.000  H
  C1028    1.0000 0.76900  0.54920  0.12770  Biso   1.000  C
  H1297    1.0000 0.76730  0.54960  0.10000  Biso   1.000  H
  C1029    1.0000 0.80380  0.53870  0.14590  Biso   1.000  C
  C1030    1.0000 0.80730  0.53850  0.18570  Biso   1.000  C
  H1298    1.0000 0.83120  0.53110  0.19780  Biso   1.000  H
  C1031    1.0000 0.77690  0.54900  0.20720  Biso   1.000  C
  H1299    1.0000 0.77890  0.54930  0.23490  Biso   1.000  H
  C1032    1.0000 0.74260  0.55920  0.18960  Biso   1.000  C
  H1300    1.0000 0.72130  0.56680  0.20560  Biso   1.000  H
  C1033    1.0000 0.53410  0.51500  0.10100  Biso   1.000  C
  H1301    1.0000 0.52940  0.51730  0.12830  Biso   1.000  H
  H1302    1.0000 0.54420  0.48960  0.09610  Biso   1.000  H
  C1034    1.0000 0.83920  0.52480  0.12430  Biso   1.000  C
  H1303    1.0000 0.85590  0.50930  0.14220  Biso   1.000  H
  H1304    1.0000 0.85450  0.54760  0.11530  Biso   1.000  H
  N273     1.0000 0.80100  0.54820  0.03000  Biso   1.000  N
  N274     1.0000 0.70710  0.59080  0.07900  Biso   1.000  N
  N275     1.0000 0.62960  0.57130  0.10016  Biso   1.000  N
  N276     1.0000 0.73750  0.55890  0.15000  Biso   1.000  N
  O205     1.0000 0.82830  0.50130  0.09140  Biso   1.000  O
  H1305    1.0000 0.82100  0.49200  0.07040  Biso   1.000  H
  O206     1.0000 0.49990  0.51740  0.07990  Biso   1.000  O
  H1306    1.0000 0.48900  0.52200  0.05810  Biso   1.000  H
  H1307    1.0000 0.54760  0.49270  0.11050  Biso   1.000  H
  H1308    1.0000 0.51980  0.50720  0.07840  Biso   1.000  H
  C1035    1.0000 0.83780  0.53160  0.11940  Biso   1.000  C
  H1309    1.0000 0.86090  0.52350  0.13500  Biso   1.000  H
  H1310    1.0000 0.84450  0.55600  0.10540  Biso   1.000  H
  O207     1.0000 0.50530  0.52790  0.12750  Biso   1.000  O
  H1311    1.0000 0.50780  0.51310  0.14760  Biso   1.000  H
  C1036    1.0000 0.28340  0.07450  0.51900  Biso   1.000  C
  C1037    1.0000 0.22170  0.10450  0.55210  Biso   1.000  C
  C1038    1.0000 0.10210  0.04410  0.60640  Biso   1.000  C
  H1312    1.0000 0.10880  0.02170  0.62150  Biso   1.000  H
  C1039    1.0000 0.06390  0.04690  0.59190  Biso   1.000  C
  C1040    1.0000 0.05470  0.07880  0.56920  Biso   1.000  C
  H1313    1.0000 0.02930  0.08150  0.55810  Biso   1.000  H
  C1041    1.0000 0.08310  0.10710  0.56260  Biso   1.000  C
  H1314    1.0000 0.07730  0.12940  0.54720  Biso   1.000  H
  C1042    1.0000 0.11970  0.10240  0.57870  Biso   1.000  C
  H1315    1.0000 0.13870  0.12220  0.57450  Biso   1.000  H
  C1043    1.0000 0.26900  0.04920  0.62770  Biso   1.000  C
  H1316    1.0000 0.26730  0.04960  0.60000  Biso   1.000  H
  C1044    1.0000 0.30380  0.03870  0.64590  Biso   1.000  C
  C1045    1.0000 0.30730  0.03850  0.68570  Biso   1.000  C
  H1317    1.0000 0.33120  0.03110  0.69780  Biso   1.000  H
  C1046    1.0000 0.27690  0.04900  0.70720  Biso   1.000  C
  H1318    1.0000 0.27890  0.04930  0.73490  Biso   1.000  H
  C1047    1.0000 0.24260  0.05920  0.68960  Biso   1.000  C
  H1319    1.0000 0.22130  0.06680  0.70560  Biso   1.000  H
  C1048    1.0000 0.03410  0.01500  0.60100  Biso   1.000  C
  H1320    1.0000 0.02940  0.01730  0.62830  Biso   1.000  H
  H1321    1.0000 0.04420  0.98960  0.59610  Biso   1.000  H
  C1049    1.0000 0.33920  0.02480  0.62430  Biso   1.000  C
  H1322    1.0000 0.35590  0.00930  0.64220  Biso   1.000  H
  H1323    1.0000 0.35450  0.04760  0.61530  Biso   1.000  H
  N277     1.0000 0.30100  0.04820  0.53000  Biso   1.000  N
  N278     1.0000 0.20710  0.09080  0.57900  Biso   1.000  N
  N279     1.0000 0.12960  0.07130  0.60016  Biso   1.000  N
  N280     1.0000 0.23750  0.05890  0.65000  Biso   1.000  N
  O208     1.0000 0.32830  0.00130  0.59140  Biso   1.000  O
  H1324    1.0000 0.32100  0.99200  0.57040  Biso   1.000  H
  O209     1.0000 0.99990  0.01740  0.57990  Biso   1.000  O
  H1325    1.0000 0.98900  0.02200  0.55810  Biso   1.000  H
  H1326    1.0000 0.04760  0.99270  0.61050  Biso   1.000  H
  H1327    1.0000 0.01980  0.00720  0.57840  Biso   1.000  H
  C1050    1.0000 0.33780  0.03160  0.61940  Biso   1.000  C
  H1328    1.0000 0.36090  0.02350  0.63500  Biso   1.000  H
  H1329    1.0000 0.34450  0.05600  0.60540  Biso   1.000  H
  O210     1.0000 0.00530  0.02790  0.62750  Biso   1.000  O
  H1330    1.0000 0.00780  0.01310  0.64760  Biso   1.000  H
  C1051    1.0000 0.21660  0.07450  0.48100  Biso   1.000  C
  C1052    1.0000 0.27830  0.10450  0.44790  Biso   1.000  C
  C1053    1.0000 0.39790  0.04410  0.39360  Biso   1.000  C
  H1331    1.0000 0.39120  0.02170  0.37850  Biso   1.000  H
  C1054    1.0000 0.43610  0.04690  0.40810  Biso   1.000  C
  C1055    1.0000 0.44530  0.07880  0.43080  Biso   1.000  C
  H1332    1.0000 0.47070  0.08150  0.44190  Biso   1.000  H
  C1056    1.0000 0.41690  0.10710  0.43740  Biso   1.000  C
  H1333    1.0000 0.42270  0.12940  0.45280  Biso   1.000  H
  C1057    1.0000 0.38030  0.10240  0.42130  Biso   1.000  C
  H1334    1.0000 0.36130  0.12220  0.42550  Biso   1.000  H
  C1058    1.0000 0.23100  0.04920  0.37230  Biso   1.000  C
  H1335    1.0000 0.23270  0.04960  0.40000  Biso   1.000  H
  C1059    1.0000 0.19620  0.03870  0.35410  Biso   1.000  C
  C1060    1.0000 0.19270  0.03850  0.31430  Biso   1.000  C
  H1336    1.0000 0.16880  0.03110  0.30220  Biso   1.000  H
  C1061    1.0000 0.22310  0.04900  0.29280  Biso   1.000  C
  H1337    1.0000 0.22110  0.04930  0.26510  Biso   1.000  H
  C1062    1.0000 0.25740  0.05920  0.31040  Biso   1.000  C
  H1338    1.0000 0.27870  0.06680  0.29440  Biso   1.000  H
  C1063    1.0000 0.46590  0.01500  0.39900  Biso   1.000  C
  H1339    1.0000 0.47060  0.01730  0.37170  Biso   1.000  H
  H1340    1.0000 0.45580  0.98960  0.40390  Biso   1.000  H
  C1064    1.0000 0.16080  0.02480  0.37570  Biso   1.000  C
  H1341    1.0000 0.14410  0.00930  0.35780  Biso   1.000  H
  H1342    1.0000 0.14550  0.04760  0.38470  Biso   1.000  H
  N281     1.0000 0.19900  0.04820  0.47000  Biso   1.000  N
  N282     1.0000 0.29290  0.09080  0.42100  Biso   1.000  N
  N283     1.0000 0.37040  0.07130  0.39984  Biso   1.000  N
  N284     1.0000 0.26250  0.05890  0.35000  Biso   1.000  N
  O211     1.0000 0.17170  0.00130  0.40860  Biso   1.000  O
  H1343    1.0000 0.17900  0.99200  0.42960  Biso   1.000  H
  O212     1.0000 0.50010  0.01740  0.42010  Biso   1.000  O
  H1344    1.0000 0.51100  0.02200  0.44190  Biso   1.000  H
  H1345    1.0000 0.45240  0.99270  0.38950  Biso   1.000  H
  H1346    1.0000 0.48020  0.00720  0.42160  Biso   1.000  H
  C1065    1.0000 0.16220  0.03160  0.38060  Biso   1.000  C
  H1347    1.0000 0.13910  0.02350  0.36500  Biso   1.000  H
  H1348    1.0000 0.15550  0.05600  0.39460  Biso   1.000  H
  O213     1.0000 0.49470  0.02790  0.37250  Biso   1.000  O
  H1349    1.0000 0.49220  0.01310  0.35240  Biso   1.000  H
  C1066    1.0000 0.71660  0.57450  0.98100  Biso   1.000  C
  C1067    1.0000 0.77830  0.60450  0.94790  Biso   1.000  C
  C1068    1.0000 0.89790  0.54410  0.89360  Biso   1.000  C
  H1350    1.0000 0.89120  0.52170  0.87850  Biso   1.000  H
  C1069    1.0000 0.93610  0.54690  0.90810  Biso   1.000  C
  C1070    1.0000 0.94530  0.57880  0.93080  Biso   1.000  C
  H1351    1.0000 0.97070  0.58150  0.94190  Biso   1.000  H
  C1071    1.0000 0.91690  0.60710  0.93740  Biso   1.000  C
  H1352    1.0000 0.92270  0.62940  0.95280  Biso   1.000  H
  C1072    1.0000 0.88030  0.60240  0.92130  Biso   1.000  C
  H1353    1.0000 0.86130  0.62220  0.92550  Biso   1.000  H
  C1073    1.0000 0.73100  0.54920  0.87230  Biso   1.000  C
  H1354    1.0000 0.73270  0.54960  0.90000  Biso   1.000  H
  C1074    1.0000 0.69620  0.53870  0.85410  Biso   1.000  C
  C1075    1.0000 0.69270  0.53850  0.81430  Biso   1.000  C
  H1355    1.0000 0.66880  0.53110  0.80220  Biso   1.000  H
  C1076    1.0000 0.72310  0.54900  0.79280  Biso   1.000  C
  H1356    1.0000 0.72110  0.54930  0.76510  Biso   1.000  H
  C1077    1.0000 0.75740  0.55920  0.81040  Biso   1.000  C
  H1357    1.0000 0.77870  0.56680  0.79440  Biso   1.000  H
  C1078    1.0000 0.96590  0.51500  0.89900  Biso   1.000  C
  H1358    1.0000 0.97060  0.51730  0.87170  Biso   1.000  H
  H1359    1.0000 0.95580  0.48960  0.90390  Biso   1.000  H
  C1079    1.0000 0.66080  0.52480  0.87570  Biso   1.000  C
  H1360    1.0000 0.64410  0.50930  0.85780  Biso   1.000  H
  H1361    1.0000 0.64550  0.54760  0.88470  Biso   1.000  H
  N285     1.0000 0.69900  0.54820  0.97000  Biso   1.000  N
  N286     1.0000 0.79290  0.59080  0.92100  Biso   1.000  N
  N287     1.0000 0.87040  0.57130  0.89984  Biso   1.000  N
  N288     1.0000 0.76250  0.55890  0.85000  Biso   1.000  N
  O214     1.0000 0.67170  0.50130  0.90860  Biso   1.000  O
  H1362    1.0000 0.67900  0.49200  0.92960  Biso   1.000  H
  O215     1.0000 0.00010  0.51740  0.92010  Biso   1.000  O
  H1363    1.0000 0.01100  0.52200  0.94190  Biso   1.000  H
  H1364    1.0000 0.95240  0.49270  0.88950  Biso   1.000  H
  H1365    1.0000 0.98020  0.50720  0.92160  Biso   1.000  H
  C1080    1.0000 0.66220  0.53160  0.88060  Biso   1.000  C
  H1366    1.0000 0.63910  0.52350  0.86500  Biso   1.000  H
  H1367    1.0000 0.65550  0.55600  0.89460  Biso   1.000  H
  O216     1.0000 0.99470  0.52790  0.87250  Biso   1.000  O
  H1368    1.0000 0.99220  0.51310  0.85240  Biso   1.000  H
  C1081    1.0000 0.53340  0.73100  0.82450  Biso   1.000  C
  C1082    1.0000 0.47170  0.69790  0.85450  Biso   1.000  C
  C1083    1.0000 0.35210  0.64360  0.79410  Biso   1.000  C
  H1369    1.0000 0.35880  0.62850  0.77170  Biso   1.000  H
  C1084    1.0000 0.31390  0.65810  0.79690  Biso   1.000  C
  C1085    1.0000 0.30470  0.68080  0.82880  Biso   1.000  C
  H1370    1.0000 0.27930  0.69190  0.83150  Biso   1.000  H
  C1086    1.0000 0.33310  0.68740  0.85710  Biso   1.000  C
  H1371    1.0000 0.32730  0.70280  0.87940  Biso   1.000  H
  C1087    1.0000 0.36970  0.67130  0.85240  Biso   1.000  C
  H1372    1.0000 0.38870  0.67550  0.87220  Biso   1.000  H
  C1088    1.0000 0.51900  0.62230  0.79920  Biso   1.000  C
  H1373    1.0000 0.51730  0.65000  0.79960  Biso   1.000  H
  C1089    1.0000 0.55380  0.60410  0.78870  Biso   1.000  C
  C1090    1.0000 0.55730  0.56430  0.78850  Biso   1.000  C
  H1374    1.0000 0.58120  0.55220  0.78110  Biso   1.000  H
  C1091    1.0000 0.52690  0.54280  0.79900  Biso   1.000  C
  H1375    1.0000 0.52890  0.51510  0.79930  Biso   1.000  H
  C1092    1.0000 0.49260  0.56040  0.80920  Biso   1.000  C
  H1376    1.0000 0.47130  0.54440  0.81680  Biso   1.000  H
  C1093    1.0000 0.28410  0.64900  0.76500  Biso   1.000  C
  H1377    1.0000 0.27940  0.62170  0.76730  Biso   1.000  H
  H1378    1.0000 0.29420  0.65390  0.73960  Biso   1.000  H
  C1094    1.0000 0.58920  0.62570  0.77480  Biso   1.000  C
  H1379    1.0000 0.60590  0.60780  0.75930  Biso   1.000  H
  H1380    1.0000 0.60450  0.63470  0.79760  Biso   1.000  H
  N289     1.0000 0.55100  0.72000  0.79820  Biso   1.000  N
  N290     1.0000 0.45710  0.67100  0.84080  Biso   1.000  N
  N291     1.0000 0.37960  0.64984  0.82130  Biso   1.000  N
  N292     1.0000 0.48750  0.60000  0.80890  Biso   1.000  N
  O217     1.0000 0.57830  0.65860  0.75130  Biso   1.000  O
  H1381    1.0000 0.57100  0.67960  0.74200  Biso   1.000  H
  O218     1.0000 0.24990  0.67010  0.76740  Biso   1.000  O
  H1382    1.0000 0.23900  0.69190  0.77200  Biso   1.000  H
  H1383    1.0000 0.29760  0.63950  0.74270  Biso   1.000  H
  H1384    1.0000 0.26980  0.67160  0.75720  Biso   1.000  H
  C1095    1.0000 0.58780  0.63060  0.78160  Biso   1.000  C
  H1385    1.0000 0.61090  0.61500  0.77350  Biso   1.000  H
  H1386    1.0000 0.59450  0.64460  0.80600  Biso   1.000  H
  O219     1.0000 0.25530  0.62250  0.77790  Biso   1.000  O
  H1387    1.0000 0.25780  0.60240  0.76310  Biso   1.000  H
  C1096    1.0000 0.03340  0.23100  0.32450  Biso   1.000  C
  C1097    1.0000 0.97170  0.19790  0.35450  Biso   1.000  C
  C1098    1.0000 0.85210  0.14360  0.29410  Biso   1.000  C
  H1388    1.0000 0.85880  0.12850  0.27170  Biso   1.000  H
  C1099    1.0000 0.81390  0.15810  0.29690  Biso   1.000  C
  C1100    1.0000 0.80470  0.18080  0.32880  Biso   1.000  C
  H1389    1.0000 0.77930  0.19190  0.33150  Biso   1.000  H
  C1101    1.0000 0.83310  0.18740  0.35710  Biso   1.000  C
  H1390    1.0000 0.82730  0.20280  0.37940  Biso   1.000  H
  C1102    1.0000 0.86970  0.17130  0.35240  Biso   1.000  C
  H1391    1.0000 0.88870  0.17550  0.37220  Biso   1.000  H
  C1103    1.0000 0.01900  0.12230  0.29920  Biso   1.000  C
  H1392    1.0000 0.01730  0.15000  0.29960  Biso   1.000  H
  C1104    1.0000 0.05380  0.10410  0.28870  Biso   1.000  C
  C1105    1.0000 0.05730  0.06430  0.28850  Biso   1.000  C
  H1393    1.0000 0.08120  0.05220  0.28110  Biso   1.000  H
  C1106    1.0000 0.02690  0.04280  0.29900  Biso   1.000  C
  H1394    1.0000 0.02890  0.01510  0.29930  Biso   1.000  H
  C1107    1.0000 0.99260  0.06040  0.30920  Biso   1.000  C
  H1395    1.0000 0.97130  0.04440  0.31680  Biso   1.000  H
  C1108    1.0000 0.78410  0.14900  0.26500  Biso   1.000  C
  H1396    1.0000 0.77940  0.12170  0.26730  Biso   1.000  H
  H1397    1.0000 0.79420  0.15390  0.23960  Biso   1.000  H
  C1109    1.0000 0.08920  0.12570  0.27480  Biso   1.000  C
  H1398    1.0000 0.10590  0.10780  0.25930  Biso   1.000  H
  H1399    1.0000 0.10450  0.13470  0.29760  Biso   1.000  H
  N293     1.0000 0.05100  0.22000  0.29820  Biso   1.000  N
  N294     1.0000 0.95710  0.17100  0.34080  Biso   1.000  N
  N295     1.0000 0.87960  0.14984  0.32130  Biso   1.000  N
  N296     1.0000 0.98750  0.10000  0.30890  Biso   1.000  N
  O220     1.0000 0.07830  0.15860  0.25130  Biso   1.000  O
  H1400    1.0000 0.07100  0.17960  0.24200  Biso   1.000  H
  O221     1.0000 0.74990  0.17010  0.26740  Biso   1.000  O
  H1401    1.0000 0.73900  0.19190  0.27200  Biso   1.000  H
  H1402    1.0000 0.79760  0.13950  0.24270  Biso   1.000  H
  H1403    1.0000 0.76980  0.17160  0.25720  Biso   1.000  H
  C1110    1.0000 0.08780  0.13060  0.28160  Biso   1.000  C
  H1404    1.0000 0.11090  0.11500  0.27350  Biso   1.000  H
  H1405    1.0000 0.09450  0.14460  0.30600  Biso   1.000  H
  O222     1.0000 0.75530  0.12250  0.27790  Biso   1.000  O
  H1406    1.0000 0.75780  0.10240  0.26310  Biso   1.000  H
  C1111    1.0000 0.96660  0.26900  0.32450  Biso   1.000  C
  C1112    1.0000 0.02830  0.30210  0.35450  Biso   1.000  C
  C1113    1.0000 0.14790  0.35640  0.29410  Biso   1.000  C
  H1407    1.0000 0.14120  0.37150  0.27170  Biso   1.000  H
  C1114    1.0000 0.18610  0.34190  0.29690  Biso   1.000  C
  C1115    1.0000 0.19530  0.31920  0.32880  Biso   1.000  C
  H1408    1.0000 0.22070  0.30810  0.33150  Biso   1.000  H
  C1116    1.0000 0.16690  0.31260  0.35710  Biso   1.000  C
  H1409    1.0000 0.17270  0.29720  0.37940  Biso   1.000  H
  C1117    1.0000 0.13030  0.32870  0.35240  Biso   1.000  C
  H1410    1.0000 0.11130  0.32450  0.37220  Biso   1.000  H
  C1118    1.0000 0.98100  0.37770  0.29920  Biso   1.000  C
  H1411    1.0000 0.98270  0.35000  0.29960  Biso   1.000  H
  C1119    1.0000 0.94620  0.39590  0.28870  Biso   1.000  C
  C1120    1.0000 0.94270  0.43570  0.28850  Biso   1.000  C
  H1412    1.0000 0.91880  0.44780  0.28110  Biso   1.000  H
  C1121    1.0000 0.97310  0.45720  0.29900  Biso   1.000  C
  H1413    1.0000 0.97110  0.48490  0.29930  Biso   1.000  H
  C1122    1.0000 0.00740  0.43960  0.30920  Biso   1.000  C
  H1414    1.0000 0.02870  0.45560  0.31680  Biso   1.000  H
  C1123    1.0000 0.21590  0.35100  0.26500  Biso   1.000  C
  H1415    1.0000 0.22060  0.37830  0.26730  Biso   1.000  H
  H1416    1.0000 0.20580  0.34610  0.23960  Biso   1.000  H
  C1124    1.0000 0.91080  0.37430  0.27480  Biso   1.000  C
  H1417    1.0000 0.89410  0.39220  0.25930  Biso   1.000  H
  H1418    1.0000 0.89550  0.36530  0.29760  Biso   1.000  H
  N297     1.0000 0.94900  0.28000  0.29820  Biso   1.000  N
  N298     1.0000 0.04290  0.32900  0.34080  Biso   1.000  N
  N299     1.0000 0.12040  0.35016  0.32130  Biso   1.000  N
  N300     1.0000 0.01250  0.40000  0.30890  Biso   1.000  N
  O223     1.0000 0.92170  0.34140  0.25130  Biso   1.000  O
  H1419    1.0000 0.92900  0.32040  0.24200  Biso   1.000  H
  O224     1.0000 0.25010  0.32990  0.26740  Biso   1.000  O
  H1420    1.0000 0.26100  0.30810  0.27200  Biso   1.000  H
  H1421    1.0000 0.20240  0.36050  0.24270  Biso   1.000  H
  H1422    1.0000 0.23020  0.32840  0.25720  Biso   1.000  H
  C1125    1.0000 0.91220  0.36940  0.28160  Biso   1.000  C
  H1423    1.0000 0.88910  0.38500  0.27350  Biso   1.000  H
  H1424    1.0000 0.90550  0.35540  0.30600  Biso   1.000  H
  O225     1.0000 0.24470  0.37750  0.27790  Biso   1.000  O
  H1425    1.0000 0.24220  0.39760  0.26310  Biso   1.000  H
  C1126    1.0000 0.46660  0.76900  0.82450  Biso   1.000  C
  C1127    1.0000 0.52830  0.80210  0.85450  Biso   1.000  C
  C1128    1.0000 0.64790  0.85640  0.79410  Biso   1.000  C
  H1426    1.0000 0.64120  0.87150  0.77170  Biso   1.000  H
  C1129    1.0000 0.68610  0.84190  0.79690  Biso   1.000  C
  C1130    1.0000 0.69530  0.81920  0.82880  Biso   1.000  C
  H1427    1.0000 0.72070  0.80810  0.83150  Biso   1.000  H
  C1131    1.0000 0.66690  0.81260  0.85710  Biso   1.000  C
  H1428    1.0000 0.67270  0.79720  0.87940  Biso   1.000  H
  C1132    1.0000 0.63030  0.82870  0.85240  Biso   1.000  C
  H1429    1.0000 0.61130  0.82450  0.87220  Biso   1.000  H
  C1133    1.0000 0.48100  0.87770  0.79920  Biso   1.000  C
  H1430    1.0000 0.48270  0.85000  0.79960  Biso   1.000  H
  C1134    1.0000 0.44620  0.89590  0.78870  Biso   1.000  C
  C1135    1.0000 0.44270  0.93570  0.78850  Biso   1.000  C
  H1431    1.0000 0.41880  0.94780  0.78110  Biso   1.000  H
  C1136    1.0000 0.47310  0.95720  0.79900  Biso   1.000  C
  H1432    1.0000 0.47110  0.98490  0.79930  Biso   1.000  H
  C1137    1.0000 0.50740  0.93960  0.80920  Biso   1.000  C
  H1433    1.0000 0.52870  0.95560  0.81680  Biso   1.000  H
  C1138    1.0000 0.71590  0.85100  0.76500  Biso   1.000  C
  H1434    1.0000 0.72060  0.87830  0.76730  Biso   1.000  H
  H1435    1.0000 0.70580  0.84610  0.73960  Biso   1.000  H
  C1139    1.0000 0.41080  0.87430  0.77480  Biso   1.000  C
  H1436    1.0000 0.39410  0.89220  0.75930  Biso   1.000  H
  H1437    1.0000 0.39550  0.86530  0.79760  Biso   1.000  H
  N301     1.0000 0.44900  0.78000  0.79820  Biso   1.000  N
  N302     1.0000 0.54290  0.82900  0.84080  Biso   1.000  N
  N303     1.0000 0.62040  0.85016  0.82130  Biso   1.000  N
  N304     1.0000 0.51250  0.90000  0.80890  Biso   1.000  N
  O226     1.0000 0.42170  0.84140  0.75130  Biso   1.000  O
  H1438    1.0000 0.42900  0.82040  0.74200  Biso   1.000  H
  O227     1.0000 0.75010  0.82990  0.76740  Biso   1.000  O
  H1439    1.0000 0.76100  0.80810  0.77200  Biso   1.000  H
  H1440    1.0000 0.70240  0.86050  0.74270  Biso   1.000  H
  H1441    1.0000 0.73020  0.82840  0.75720  Biso   1.000  H
  C1140    1.0000 0.41220  0.86940  0.78160  Biso   1.000  C
  H1442    1.0000 0.38910  0.88500  0.77350  Biso   1.000  H
  H1443    1.0000 0.40550  0.85540  0.80600  Biso   1.000  H
  O228     1.0000 0.74470  0.87750  0.77790  Biso   1.000  O
  H1444    1.0000 0.74220  0.89760  0.76310  Biso   1.000  H
  C1141    1.0000 0.03340  0.76900  0.17550  Biso   1.000  C
  C1142    1.0000 0.97170  0.80210  0.14550  Biso   1.000  C
  C1143    1.0000 0.85210  0.85640  0.20590  Biso   1.000  C
  H1445    1.0000 0.85880  0.87150  0.22830  Biso   1.000  H
  C1144    1.0000 0.81390  0.84190  0.20310  Biso   1.000  C
  C1145    1.0000 0.80470  0.81920  0.17120  Biso   1.000  C
  H1446    1.0000 0.77930  0.80810  0.16850  Biso   1.000  H
  C1146    1.0000 0.83310  0.81260  0.14290  Biso   1.000  C
  H1447    1.0000 0.82730  0.79720  0.12060  Biso   1.000  H
  C1147    1.0000 0.86970  0.82870  0.14760  Biso   1.000  C
  H1448    1.0000 0.88870  0.82450  0.12780  Biso   1.000  H
  C1148    1.0000 0.01900  0.87770  0.20080  Biso   1.000  C
  H1449    1.0000 0.01730  0.85000  0.20040  Biso   1.000  H
  C1149    1.0000 0.05380  0.89590  0.21130  Biso   1.000  C
  C1150    1.0000 0.05730  0.93570  0.21150  Biso   1.000  C
  H1450    1.0000 0.08120  0.94780  0.21890  Biso   1.000  H
  C1151    1.0000 0.02690  0.95720  0.20100  Biso   1.000  C
  H1451    1.0000 0.02890  0.98490  0.20070  Biso   1.000  H
  C1152    1.0000 0.99260  0.93960  0.19080  Biso   1.000  C
  H1452    1.0000 0.97130  0.95560  0.18320  Biso   1.000  H
  C1153    1.0000 0.78410  0.85100  0.23500  Biso   1.000  C
  H1453    1.0000 0.77940  0.87830  0.23270  Biso   1.000  H
  H1454    1.0000 0.79420  0.84610  0.26040  Biso   1.000  H
  C1154    1.0000 0.08920  0.87430  0.22520  Biso   1.000  C
  H1455    1.0000 0.10590  0.89220  0.24070  Biso   1.000  H
  H1456    1.0000 0.10450  0.86530  0.20240  Biso   1.000  H
  N305     1.0000 0.05100  0.78000  0.20180  Biso   1.000  N
  N306     1.0000 0.95710  0.82900  0.15920  Biso   1.000  N
  N307     1.0000 0.87960  0.85016  0.17870  Biso   1.000  N
  N308     1.0000 0.98750  0.90000  0.19110  Biso   1.000  N
  O229     1.0000 0.07830  0.84140  0.24870  Biso   1.000  O
  H1457    1.0000 0.07100  0.82040  0.25800  Biso   1.000  H
  O230     1.0000 0.74990  0.82990  0.23260  Biso   1.000  O
  H1458    1.0000 0.73900  0.80810  0.22800  Biso   1.000  H
  H1459    1.0000 0.79760  0.86050  0.25730  Biso   1.000  H
  H1460    1.0000 0.76980  0.82840  0.24280  Biso   1.000  H
  C1155    1.0000 0.08780  0.86940  0.21840  Biso   1.000  C
  H1461    1.0000 0.11090  0.88500  0.22650  Biso   1.000  H
  H1462    1.0000 0.09450  0.85540  0.19400  Biso   1.000  H
  O231     1.0000 0.75530  0.87750  0.22210  Biso   1.000  O
  H1463    1.0000 0.75780  0.89760  0.23690  Biso   1.000  H
  C1156    1.0000 0.53340  0.26900  0.67550  Biso   1.000  C
  C1157    1.0000 0.47170  0.30210  0.64550  Biso   1.000  C
  C1158    1.0000 0.35210  0.35640  0.70590  Biso   1.000  C
  H1464    1.0000 0.35880  0.37150  0.72830  Biso   1.000  H
  C1159    1.0000 0.31390  0.34190  0.70310  Biso   1.000  C
  C1160    1.0000 0.30470  0.31920  0.67120  Biso   1.000  C
  H1465    1.0000 0.27930  0.30810  0.66850  Biso   1.000  H
  C1161    1.0000 0.33310  0.31260  0.64290  Biso   1.000  C
  H1466    1.0000 0.32730  0.29720  0.62060  Biso   1.000  H
  C1162    1.0000 0.36970  0.32870  0.64760  Biso   1.000  C
  H1467    1.0000 0.38870  0.32450  0.62780  Biso   1.000  H
  C1163    1.0000 0.51900  0.37770  0.70080  Biso   1.000  C
  H1468    1.0000 0.51730  0.35000  0.70040  Biso   1.000  H
  C1164    1.0000 0.55380  0.39590  0.71130  Biso   1.000  C
  C1165    1.0000 0.55730  0.43570  0.71150  Biso   1.000  C
  H1469    1.0000 0.58120  0.44780  0.71890  Biso   1.000  H
  C1166    1.0000 0.52690  0.45720  0.70100  Biso   1.000  C
  H1470    1.0000 0.52890  0.48490  0.70070  Biso   1.000  H
  C1167    1.0000 0.49260  0.43960  0.69080  Biso   1.000  C
  H1471    1.0000 0.47130  0.45560  0.68320  Biso   1.000  H
  C1168    1.0000 0.28410  0.35100  0.73500  Biso   1.000  C
  H1472    1.0000 0.27940  0.37830  0.73270  Biso   1.000  H
  H1473    1.0000 0.29420  0.34610  0.76040  Biso   1.000  H
  C1169    1.0000 0.58920  0.37430  0.72520  Biso   1.000  C
  H1474    1.0000 0.60590  0.39220  0.74070  Biso   1.000  H
  H1475    1.0000 0.60450  0.36530  0.70240  Biso   1.000  H
  N309     1.0000 0.55100  0.28000  0.70180  Biso   1.000  N
  N310     1.0000 0.45710  0.32900  0.65920  Biso   1.000  N
  N311     1.0000 0.37960  0.35016  0.67870  Biso   1.000  N
  N312     1.0000 0.48750  0.40000  0.69110  Biso   1.000  N
  O232     1.0000 0.57830  0.34140  0.74870  Biso   1.000  O
  H1476    1.0000 0.57100  0.32040  0.75800  Biso   1.000  H
  O233     1.0000 0.24990  0.32990  0.73260  Biso   1.000  O
  H1477    1.0000 0.23900  0.30810  0.72800  Biso   1.000  H
  H1478    1.0000 0.29760  0.36050  0.75730  Biso   1.000  H
  H1479    1.0000 0.26980  0.32840  0.74280  Biso   1.000  H
  C1170    1.0000 0.58780  0.36940  0.71840  Biso   1.000  C
  H1480    1.0000 0.61090  0.38500  0.72650  Biso   1.000  H
  H1481    1.0000 0.59450  0.35540  0.69400  Biso   1.000  H
  O234     1.0000 0.25530  0.37750  0.72210  Biso   1.000  O
  H1482    1.0000 0.25780  0.39760  0.73690  Biso   1.000  H
  C1171    1.0000 0.46660  0.23100  0.67550  Biso   1.000  C
  C1172    1.0000 0.52830  0.19790  0.64550  Biso   1.000  C
  C1173    1.0000 0.64790  0.14360  0.70590  Biso   1.000  C
  H1483    1.0000 0.64120  0.12850  0.72830  Biso   1.000  H
  C1174    1.0000 0.68610  0.15810  0.70310  Biso   1.000  C
  C1175    1.0000 0.69530  0.18080  0.67120  Biso   1.000  C
  H1484    1.0000 0.72070  0.19190  0.66850  Biso   1.000  H
  C1176    1.0000 0.66690  0.18740  0.64290  Biso   1.000  C
  H1485    1.0000 0.67270  0.20280  0.62060  Biso   1.000  H
  C1177    1.0000 0.63030  0.17130  0.64760  Biso   1.000  C
  H1486    1.0000 0.61130  0.17550  0.62780  Biso   1.000  H
  C1178    1.0000 0.48100  0.12230  0.70080  Biso   1.000  C
  H1487    1.0000 0.48270  0.15000  0.70040  Biso   1.000  H
  C1179    1.0000 0.44620  0.10410  0.71130  Biso   1.000  C
  C1180    1.0000 0.44270  0.06430  0.71150  Biso   1.000  C
  H1488    1.0000 0.41880  0.05220  0.71890  Biso   1.000  H
  C1181    1.0000 0.47310  0.04280  0.70100  Biso   1.000  C
  H1489    1.0000 0.47110  0.01510  0.70070  Biso   1.000  H
  C1182    1.0000 0.50740  0.06040  0.69080  Biso   1.000  C
  H1490    1.0000 0.52870  0.04440  0.68320  Biso   1.000  H
  C1183    1.0000 0.71590  0.14900  0.73500  Biso   1.000  C
  H1491    1.0000 0.72060  0.12170  0.73270  Biso   1.000  H
  H1492    1.0000 0.70580  0.15390  0.76040  Biso   1.000  H
  C1184    1.0000 0.41080  0.12570  0.72520  Biso   1.000  C
  H1493    1.0000 0.39410  0.10780  0.74070  Biso   1.000  H
  H1494    1.0000 0.39550  0.13470  0.70240  Biso   1.000  H
  N313     1.0000 0.44900  0.22000  0.70180  Biso   1.000  N
  N314     1.0000 0.54290  0.17100  0.65920  Biso   1.000  N
  N315     1.0000 0.62040  0.14984  0.67870  Biso   1.000  N
  N316     1.0000 0.51250  0.10000  0.69110  Biso   1.000  N
  O235     1.0000 0.42170  0.15860  0.74870  Biso   1.000  O
  H1495    1.0000 0.42900  0.17960  0.75800  Biso   1.000  H
  O236     1.0000 0.75010  0.17010  0.73260  Biso   1.000  O
  H1496    1.0000 0.76100  0.19190  0.72800  Biso   1.000  H
  H1497    1.0000 0.70240  0.13950  0.75730  Biso   1.000  H
  H1498    1.0000 0.73020  0.17160  0.74280  Biso   1.000  H
  C1185    1.0000 0.41220  0.13060  0.71840  Biso   1.000  C
  H1499    1.0000 0.38910  0.11500  0.72650  Biso   1.000  H
  H1500    1.0000 0.40550  0.14460  0.69400  Biso   1.000  H
  O237     1.0000 0.74470  0.12250  0.72210  Biso   1.000  O
  H1501    1.0000 0.74220  0.10240  0.73690  Biso   1.000  H
  C1186    1.0000 0.96660  0.73100  0.17550  Biso   1.000  C
  C1187    1.0000 0.02830  0.69790  0.14550  Biso   1.000  C
  C1188    1.0000 0.14790  0.64360  0.20590  Biso   1.000  C
  H1502    1.0000 0.14120  0.62850  0.22830  Biso   1.000  H
  C1189    1.0000 0.18610  0.65810  0.20310  Biso   1.000  C
  C1190    1.0000 0.19530  0.68080  0.17120  Biso   1.000  C
  H1503    1.0000 0.22070  0.69190  0.16850  Biso   1.000  H
  C1191    1.0000 0.16690  0.68740  0.14290  Biso   1.000  C
  H1504    1.0000 0.17270  0.70280  0.12060  Biso   1.000  H
  C1192    1.0000 0.13030  0.67130  0.14760  Biso   1.000  C
  H1505    1.0000 0.11130  0.67550  0.12780  Biso   1.000  H
  C1193    1.0000 0.98100  0.62230  0.20080  Biso   1.000  C
  H1506    1.0000 0.98270  0.65000  0.20040  Biso   1.000  H
  C1194    1.0000 0.94620  0.60410  0.21130  Biso   1.000  C
  C1195    1.0000 0.94270  0.56430  0.21150  Biso   1.000  C
  H1507    1.0000 0.91880  0.55220  0.21890  Biso   1.000  H
  C1196    1.0000 0.97310  0.54280  0.20100  Biso   1.000  C
  H1508    1.0000 0.97110  0.51510  0.20070  Biso   1.000  H
  C1197    1.0000 0.00740  0.56040  0.19080  Biso   1.000  C
  H1509    1.0000 0.02870  0.54440  0.18320  Biso   1.000  H
  C1198    1.0000 0.21590  0.64900  0.23500  Biso   1.000  C
  H1510    1.0000 0.22060  0.62170  0.23270  Biso   1.000  H
  H1511    1.0000 0.20580  0.65390  0.26040  Biso   1.000  H
  C1199    1.0000 0.91080  0.62570  0.22520  Biso   1.000  C
  H1512    1.0000 0.89410  0.60780  0.24070  Biso   1.000  H
  H1513    1.0000 0.89550  0.63470  0.20240  Biso   1.000  H
  N317     1.0000 0.94900  0.72000  0.20180  Biso   1.000  N
  N318     1.0000 0.04290  0.67100  0.15920  Biso   1.000  N
  N319     1.0000 0.12040  0.64984  0.17870  Biso   1.000  N
  N320     1.0000 0.01250  0.60000  0.19110  Biso   1.000  N
  O238     1.0000 0.92170  0.65860  0.24870  Biso   1.000  O
  H1514    1.0000 0.92900  0.67960  0.25800  Biso   1.000  H
  O239     1.0000 0.25010  0.67010  0.23260  Biso   1.000  O
  H1515    1.0000 0.26100  0.69190  0.22800  Biso   1.000  H
  H1516    1.0000 0.20240  0.63950  0.25730  Biso   1.000  H
  H1517    1.0000 0.23020  0.67160  0.24280  Biso   1.000  H
  C1200    1.0000 0.91220  0.63060  0.21840  Biso   1.000  C
  H1518    1.0000 0.88910  0.61500  0.22650  Biso   1.000  H
  H1519    1.0000 0.90550  0.64460  0.19400  Biso   1.000  H
  O240     1.0000 0.24470  0.62250  0.22210  Biso   1.000  O
  H1520    1.0000 0.24220  0.60240  0.23690  Biso   1.000  H
  C1201    1.0000 0.23100  0.67550  0.46660  Biso   1.000  C
  C1202    1.0000 0.19790  0.64550  0.52830  Biso   1.000  C
  C1203    1.0000 0.14360  0.70590  0.64790  Biso   1.000  C
  H1521    1.0000 0.12850  0.72830  0.64120  Biso   1.000  H
  C1204    1.0000 0.15810  0.70310  0.68610  Biso   1.000  C
  C1205    1.0000 0.18080  0.67120  0.69530  Biso   1.000  C
  H1522    1.0000 0.19190  0.66850  0.72070  Biso   1.000  H
  C1206    1.0000 0.18740  0.64290  0.66690  Biso   1.000  C
  H1523    1.0000 0.20280  0.62060  0.67270  Biso   1.000  H
  C1207    1.0000 0.17130  0.64760  0.63030  Biso   1.000  C
  H1524    1.0000 0.17550  0.62780  0.61130  Biso   1.000  H
  C1208    1.0000 0.12230  0.70080  0.48100  Biso   1.000  C
  H1525    1.0000 0.15000  0.70040  0.48270  Biso   1.000  H
  C1209    1.0000 0.10410  0.71130  0.44620  Biso   1.000  C
  C1210    1.0000 0.06430  0.71150  0.44270  Biso   1.000  C
  H1526    1.0000 0.05220  0.71890  0.41880  Biso   1.000  H
  C1211    1.0000 0.04280  0.70100  0.47310  Biso   1.000  C
  H1527    1.0000 0.01510  0.70070  0.47110  Biso   1.000  H
  C1212    1.0000 0.06040  0.69080  0.50740  Biso   1.000  C
  H1528    1.0000 0.04440  0.68320  0.52870  Biso   1.000  H
  C1213    1.0000 0.14900  0.73500  0.71590  Biso   1.000  C
  H1529    1.0000 0.12170  0.73270  0.72060  Biso   1.000  H
  H1530    1.0000 0.15390  0.76040  0.70580  Biso   1.000  H
  C1214    1.0000 0.12570  0.72520  0.41080  Biso   1.000  C
  H1531    1.0000 0.10780  0.74070  0.39410  Biso   1.000  H
  H1532    1.0000 0.13470  0.70240  0.39550  Biso   1.000  H
  N321     1.0000 0.22000  0.70180  0.44900  Biso   1.000  N
  N322     1.0000 0.17100  0.65920  0.54290  Biso   1.000  N
  N323     1.0000 0.14984  0.67870  0.62040  Biso   1.000  N
  N324     1.0000 0.10000  0.69110  0.51250  Biso   1.000  N
  O241     1.0000 0.15860  0.74870  0.42170  Biso   1.000  O
  H1533    1.0000 0.17960  0.75800  0.42900  Biso   1.000  H
  O242     1.0000 0.17010  0.73260  0.75010  Biso   1.000  O
  H1534    1.0000 0.19190  0.72800  0.76100  Biso   1.000  H
  H1535    1.0000 0.13950  0.75730  0.70240  Biso   1.000  H
  H1536    1.0000 0.17160  0.74280  0.73020  Biso   1.000  H
  C1215    1.0000 0.13060  0.71840  0.41220  Biso   1.000  C
  H1537    1.0000 0.11500  0.72650  0.38910  Biso   1.000  H
  H1538    1.0000 0.14460  0.69400  0.40550  Biso   1.000  H
  O243     1.0000 0.12250  0.72210  0.74470  Biso   1.000  O
  H1539    1.0000 0.10240  0.73690  0.74220  Biso   1.000  H
  C1216    1.0000 0.73100  0.17550  0.96660  Biso   1.000  C
  C1217    1.0000 0.69790  0.14550  0.02830  Biso   1.000  C
  C1218    1.0000 0.64360  0.20590  0.14790  Biso   1.000  C
  H1540    1.0000 0.62850  0.22830  0.14120  Biso   1.000  H
  C1219    1.0000 0.65810  0.20310  0.18610  Biso   1.000  C
  C1220    1.0000 0.68080  0.17120  0.19530  Biso   1.000  C
  H1541    1.0000 0.69190  0.16850  0.22070  Biso   1.000  H
  C1221    1.0000 0.68740  0.14290  0.16690  Biso   1.000  C
  H1542    1.0000 0.70280  0.12060  0.17270  Biso   1.000  H
  C1222    1.0000 0.67130  0.14760  0.13030  Biso   1.000  C
  H1543    1.0000 0.67550  0.12780  0.11130  Biso   1.000  H
  C1223    1.0000 0.62230  0.20080  0.98100  Biso   1.000  C
  H1544    1.0000 0.65000  0.20040  0.98270  Biso   1.000  H
  C1224    1.0000 0.60410  0.21130  0.94620  Biso   1.000  C
  C1225    1.0000 0.56430  0.21150  0.94270  Biso   1.000  C
  H1545    1.0000 0.55220  0.21890  0.91880  Biso   1.000  H
  C1226    1.0000 0.54280  0.20100  0.97310  Biso   1.000  C
  H1546    1.0000 0.51510  0.20070  0.97110  Biso   1.000  H
  C1227    1.0000 0.56040  0.19080  0.00740  Biso   1.000  C
  H1547    1.0000 0.54440  0.18320  0.02870  Biso   1.000  H
  C1228    1.0000 0.64900  0.23500  0.21590  Biso   1.000  C
  H1548    1.0000 0.62170  0.23270  0.22060  Biso   1.000  H
  H1549    1.0000 0.65390  0.26040  0.20580  Biso   1.000  H
  C1229    1.0000 0.62570  0.22520  0.91080  Biso   1.000  C
  H1550    1.0000 0.60780  0.24070  0.89410  Biso   1.000  H
  H1551    1.0000 0.63470  0.20240  0.89550  Biso   1.000  H
  N325     1.0000 0.72000  0.20180  0.94900  Biso   1.000  N
  N326     1.0000 0.67100  0.15920  0.04290  Biso   1.000  N
  N327     1.0000 0.64984  0.17870  0.12040  Biso   1.000  N
  N328     1.0000 0.60000  0.19110  0.01250  Biso   1.000  N
  O244     1.0000 0.65860  0.24870  0.92170  Biso   1.000  O
  H1552    1.0000 0.67960  0.25800  0.92900  Biso   1.000  H
  O245     1.0000 0.67010  0.23260  0.25010  Biso   1.000  O
  H1553    1.0000 0.69190  0.22800  0.26100  Biso   1.000  H
  H1554    1.0000 0.63950  0.25730  0.20240  Biso   1.000  H
  H1555    1.0000 0.67160  0.24280  0.23020  Biso   1.000  H
  C1230    1.0000 0.63060  0.21840  0.91220  Biso   1.000  C
  H1556    1.0000 0.61500  0.22650  0.88910  Biso   1.000  H
  H1557    1.0000 0.64460  0.19400  0.90550  Biso   1.000  H
  O246     1.0000 0.62250  0.22210  0.24470  Biso   1.000  O
  H1558    1.0000 0.60240  0.23690  0.24220  Biso   1.000  H
  C1231    1.0000 0.76900  0.17550  0.03340  Biso   1.000  C
  C1232    1.0000 0.80210  0.14550  0.97170  Biso   1.000  C
  C1233    1.0000 0.85640  0.20590  0.85210  Biso   1.000  C
  H1559    1.0000 0.87150  0.22830  0.85880  Biso   1.000  H
  C1234    1.0000 0.84190  0.20310  0.81390  Biso   1.000  C
  C1235    1.0000 0.81920  0.17120  0.80470  Biso   1.000  C
  H1560    1.0000 0.80810  0.16850  0.77930  Biso   1.000  H
  C1236    1.0000 0.81260  0.14290  0.83310  Biso   1.000  C
  H1561    1.0000 0.79720  0.12060  0.82730  Biso   1.000  H
  C1237    1.0000 0.82870  0.14760  0.86970  Biso   1.000  C
  H1562    1.0000 0.82450  0.12780  0.88870  Biso   1.000  H
  C1238    1.0000 0.87770  0.20080  0.01900  Biso   1.000  C
  H1563    1.0000 0.85000  0.20040  0.01730  Biso   1.000  H
  C1239    1.0000 0.89590  0.21130  0.05380  Biso   1.000  C
  C1240    1.0000 0.93570  0.21150  0.05730  Biso   1.000  C
  H1564    1.0000 0.94780  0.21890  0.08120  Biso   1.000  H
  C1241    1.0000 0.95720  0.20100  0.02690  Biso   1.000  C
  H1565    1.0000 0.98490  0.20070  0.02890  Biso   1.000  H
  C1242    1.0000 0.93960  0.19080  0.99260  Biso   1.000  C
  H1566    1.0000 0.95560  0.18320  0.97130  Biso   1.000  H
  C1243    1.0000 0.85100  0.23500  0.78410  Biso   1.000  C
  H1567    1.0000 0.87830  0.23270  0.77940  Biso   1.000  H
  H1568    1.0000 0.84610  0.26040  0.79420  Biso   1.000  H
  C1244    1.0000 0.87430  0.22520  0.08920  Biso   1.000  C
  H1569    1.0000 0.89220  0.24070  0.10590  Biso   1.000  H
  H1570    1.0000 0.86530  0.20240  0.10450  Biso   1.000  H
  N329     1.0000 0.78000  0.20180  0.05100  Biso   1.000  N
  N330     1.0000 0.82900  0.15920  0.95710  Biso   1.000  N
  N331     1.0000 0.85016  0.17870  0.87960  Biso   1.000  N
  N332     1.0000 0.90000  0.19110  0.98750  Biso   1.000  N
  O247     1.0000 0.84140  0.24870  0.07830  Biso   1.000  O
  H1571    1.0000 0.82040  0.25800  0.07100  Biso   1.000  H
  O248     1.0000 0.82990  0.23260  0.74990  Biso   1.000  O
  H1572    1.0000 0.80810  0.22800  0.73900  Biso   1.000  H
  H1573    1.0000 0.86050  0.25730  0.79760  Biso   1.000  H
  H1574    1.0000 0.82840  0.24280  0.76980  Biso   1.000  H
  C1245    1.0000 0.86940  0.21840  0.08780  Biso   1.000  C
  H1575    1.0000 0.88500  0.22650  0.11090  Biso   1.000  H
  H1576    1.0000 0.85540  0.19400  0.09450  Biso   1.000  H
  O249     1.0000 0.87750  0.22210  0.75530  Biso   1.000  O
  H1577    1.0000 0.89760  0.23690  0.75780  Biso   1.000  H
  C1246    1.0000 0.26900  0.67550  0.53340  Biso   1.000  C
  C1247    1.0000 0.30210  0.64550  0.47170  Biso   1.000  C
  C1248    1.0000 0.35640  0.70590  0.35210  Biso   1.000  C
  H1578    1.0000 0.37150  0.72830  0.35880  Biso   1.000  H
  C1249    1.0000 0.34190  0.70310  0.31390  Biso   1.000  C
  C1250    1.0000 0.31920  0.67120  0.30470  Biso   1.000  C
  H1579    1.0000 0.30810  0.66850  0.27930  Biso   1.000  H
  C1251    1.0000 0.31260  0.64290  0.33310  Biso   1.000  C
  H1580    1.0000 0.29720  0.62060  0.32730  Biso   1.000  H
  C1252    1.0000 0.32870  0.64760  0.36970  Biso   1.000  C
  H1581    1.0000 0.32450  0.62780  0.38870  Biso   1.000  H
  C1253    1.0000 0.37770  0.70080  0.51900  Biso   1.000  C
  H1582    1.0000 0.35000  0.70040  0.51730  Biso   1.000  H
  C1254    1.0000 0.39590  0.71130  0.55380  Biso   1.000  C
  C1255    1.0000 0.43570  0.71150  0.55730  Biso   1.000  C
  H1583    1.0000 0.44780  0.71890  0.58120  Biso   1.000  H
  C1256    1.0000 0.45720  0.70100  0.52690  Biso   1.000  C
  H1584    1.0000 0.48490  0.70070  0.52890  Biso   1.000  H
  C1257    1.0000 0.43960  0.69080  0.49260  Biso   1.000  C
  H1585    1.0000 0.45560  0.68320  0.47130  Biso   1.000  H
  C1258    1.0000 0.35100  0.73500  0.28410  Biso   1.000  C
  H1586    1.0000 0.37830  0.73270  0.27940  Biso   1.000  H
  H1587    1.0000 0.34610  0.76040  0.29420  Biso   1.000  H
  C1259    1.0000 0.37430  0.72520  0.58920  Biso   1.000  C
  H1588    1.0000 0.39220  0.74070  0.60590  Biso   1.000  H
  H1589    1.0000 0.36530  0.70240  0.60450  Biso   1.000  H
  N333     1.0000 0.28000  0.70180  0.55100  Biso   1.000  N
  N334     1.0000 0.32900  0.65920  0.45710  Biso   1.000  N
  N335     1.0000 0.35016  0.67870  0.37960  Biso   1.000  N
  N336     1.0000 0.40000  0.69110  0.48750  Biso   1.000  N
  O250     1.0000 0.34140  0.74870  0.57830  Biso   1.000  O
  H1590    1.0000 0.32040  0.75800  0.57100  Biso   1.000  H
  O251     1.0000 0.32990  0.73260  0.24990  Biso   1.000  O
  H1591    1.0000 0.30810  0.72800  0.23900  Biso   1.000  H
  H1592    1.0000 0.36050  0.75730  0.29760  Biso   1.000  H
  H1593    1.0000 0.32840  0.74280  0.26980  Biso   1.000  H
  C1260    1.0000 0.36940  0.71840  0.58780  Biso   1.000  C
  H1594    1.0000 0.38500  0.72650  0.61090  Biso   1.000  H
  H1595    1.0000 0.35540  0.69400  0.59450  Biso   1.000  H
  O252     1.0000 0.37750  0.72210  0.25530  Biso   1.000  O
  H1596    1.0000 0.39760  0.73690  0.25780  Biso   1.000  H
  C1261    1.0000 0.26900  0.32450  0.96660  Biso   1.000  C
  C1262    1.0000 0.30210  0.35450  0.02830  Biso   1.000  C
  C1263    1.0000 0.35640  0.29410  0.14790  Biso   1.000  C
  H1597    1.0000 0.37150  0.27170  0.14120  Biso   1.000  H
  C1264    1.0000 0.34190  0.29690  0.18610  Biso   1.000  C
  C1265    1.0000 0.31920  0.32880  0.19530  Biso   1.000  C
  H1598    1.0000 0.30810  0.33150  0.22070  Biso   1.000  H
  C1266    1.0000 0.31260  0.35710  0.16690  Biso   1.000  C
  H1599    1.0000 0.29720  0.37940  0.17270  Biso   1.000  H
  C1267    1.0000 0.32870  0.35240  0.13030  Biso   1.000  C
  H1600    1.0000 0.32450  0.37220  0.11130  Biso   1.000  H
  C1268    1.0000 0.37770  0.29920  0.98100  Biso   1.000  C
  H1601    1.0000 0.35000  0.29960  0.98270  Biso   1.000  H
  C1269    1.0000 0.39590  0.28870  0.94620  Biso   1.000  C
  C1270    1.0000 0.43570  0.28850  0.94270  Biso   1.000  C
  H1602    1.0000 0.44780  0.28110  0.91880  Biso   1.000  H
  C1271    1.0000 0.45720  0.29900  0.97310  Biso   1.000  C
  H1603    1.0000 0.48490  0.29930  0.97110  Biso   1.000  H
  C1272    1.0000 0.43960  0.30920  0.00740  Biso   1.000  C
  H1604    1.0000 0.45560  0.31680  0.02870  Biso   1.000  H
  C1273    1.0000 0.35100  0.26500  0.21590  Biso   1.000  C
  H1605    1.0000 0.37830  0.26730  0.22060  Biso   1.000  H
  H1606    1.0000 0.34610  0.23960  0.20580  Biso   1.000  H
  C1274    1.0000 0.37430  0.27480  0.91080  Biso   1.000  C
  H1607    1.0000 0.39220  0.25930  0.89410  Biso   1.000  H
  H1608    1.0000 0.36530  0.29760  0.89550  Biso   1.000  H
  N337     1.0000 0.28000  0.29820  0.94900  Biso   1.000  N
  N338     1.0000 0.32900  0.34080  0.04290  Biso   1.000  N
  N339     1.0000 0.35016  0.32130  0.12040  Biso   1.000  N
  N340     1.0000 0.40000  0.30890  0.01250  Biso   1.000  N
  O253     1.0000 0.34140  0.25130  0.92170  Biso   1.000  O
  H1609    1.0000 0.32040  0.24200  0.92900  Biso   1.000  H
  O254     1.0000 0.32990  0.26740  0.25010  Biso   1.000  O
  H1610    1.0000 0.30810  0.27200  0.26100  Biso   1.000  H
  H1611    1.0000 0.36050  0.24270  0.20240  Biso   1.000  H
  H1612    1.0000 0.32840  0.25720  0.23020  Biso   1.000  H
  C1275    1.0000 0.36940  0.28160  0.91220  Biso   1.000  C
  H1613    1.0000 0.38500  0.27350  0.88910  Biso   1.000  H
  H1614    1.0000 0.35540  0.30600  0.90550  Biso   1.000  H
  O255     1.0000 0.37750  0.27790  0.24470  Biso   1.000  O
  H1615    1.0000 0.39760  0.26310  0.24220  Biso   1.000  H
  C1276    1.0000 0.76900  0.82450  0.46660  Biso   1.000  C
  C1277    1.0000 0.80210  0.85450  0.52830  Biso   1.000  C
  C1278    1.0000 0.85640  0.79410  0.64790  Biso   1.000  C
  H1616    1.0000 0.87150  0.77170  0.64120  Biso   1.000  H
  C1279    1.0000 0.84190  0.79690  0.68610  Biso   1.000  C
  C1280    1.0000 0.81920  0.82880  0.69530  Biso   1.000  C
  H1617    1.0000 0.80810  0.83150  0.72070  Biso   1.000  H
  C1281    1.0000 0.81260  0.85710  0.66690  Biso   1.000  C
  H1618    1.0000 0.79720  0.87940  0.67270  Biso   1.000  H
  C1282    1.0000 0.82870  0.85240  0.63030  Biso   1.000  C
  H1619    1.0000 0.82450  0.87220  0.61130  Biso   1.000  H
  C1283    1.0000 0.87770  0.79920  0.48100  Biso   1.000  C
  H1620    1.0000 0.85000  0.79960  0.48270  Biso   1.000  H
  C1284    1.0000 0.89590  0.78870  0.44620  Biso   1.000  C
  C1285    1.0000 0.93570  0.78850  0.44270  Biso   1.000  C
  H1621    1.0000 0.94780  0.78110  0.41880  Biso   1.000  H
  C1286    1.0000 0.95720  0.79900  0.47310  Biso   1.000  C
  H1622    1.0000 0.98490  0.79930  0.47110  Biso   1.000  H
  C1287    1.0000 0.93960  0.80920  0.50740  Biso   1.000  C
  H1623    1.0000 0.95560  0.81680  0.52870  Biso   1.000  H
  C1288    1.0000 0.85100  0.76500  0.71590  Biso   1.000  C
  H1624    1.0000 0.87830  0.76730  0.72060  Biso   1.000  H
  H1625    1.0000 0.84610  0.73960  0.70580  Biso   1.000  H
  C1289    1.0000 0.87430  0.77480  0.41080  Biso   1.000  C
  H1626    1.0000 0.89220  0.75930  0.39410  Biso   1.000  H
  H1627    1.0000 0.86530  0.79760  0.39550  Biso   1.000  H
  N341     1.0000 0.78000  0.79820  0.44900  Biso   1.000  N
  N342     1.0000 0.82900  0.84080  0.54290  Biso   1.000  N
  N343     1.0000 0.85016  0.82130  0.62040  Biso   1.000  N
  N344     1.0000 0.90000  0.80890  0.51250  Biso   1.000  N
  O256     1.0000 0.84140  0.75130  0.42170  Biso   1.000  O
  H1628    1.0000 0.82040  0.74200  0.42900  Biso   1.000  H
  O257     1.0000 0.82990  0.76740  0.75010  Biso   1.000  O
  H1629    1.0000 0.80810  0.77200  0.76100  Biso   1.000  H
  H1630    1.0000 0.86050  0.74270  0.70240  Biso   1.000  H
  H1631    1.0000 0.82840  0.75720  0.73020  Biso   1.000  H
  C1290    1.0000 0.86940  0.78160  0.41220  Biso   1.000  C
  H1632    1.0000 0.88500  0.77350  0.38910  Biso   1.000  H
  H1633    1.0000 0.85540  0.80600  0.40550  Biso   1.000  H
  O258     1.0000 0.87750  0.77790  0.74470  Biso   1.000  O
  H1634    1.0000 0.89760  0.76310  0.74220  Biso   1.000  H
  C1291    1.0000 0.73100  0.82450  0.53340  Biso   1.000  C
  C1292    1.0000 0.69790  0.85450  0.47170  Biso   1.000  C
  C1293    1.0000 0.64360  0.79410  0.35210  Biso   1.000  C
  H1635    1.0000 0.62850  0.77170  0.35880  Biso   1.000  H
  C1294    1.0000 0.65810  0.79690  0.31390  Biso   1.000  C
  C1295    1.0000 0.68080  0.82880  0.30470  Biso   1.000  C
  H1636    1.0000 0.69190  0.83150  0.27930  Biso   1.000  H
  C1296    1.0000 0.68740  0.85710  0.33310  Biso   1.000  C
  H1637    1.0000 0.70280  0.87940  0.32730  Biso   1.000  H
  C1297    1.0000 0.67130  0.85240  0.36970  Biso   1.000  C
  H1638    1.0000 0.67550  0.87220  0.38870  Biso   1.000  H
  C1298    1.0000 0.62230  0.79920  0.51900  Biso   1.000  C
  H1639    1.0000 0.65000  0.79960  0.51730  Biso   1.000  H
  C1299    1.0000 0.60410  0.78870  0.55380  Biso   1.000  C
  C1300    1.0000 0.56430  0.78850  0.55730  Biso   1.000  C
  H1640    1.0000 0.55220  0.78110  0.58120  Biso   1.000  H
  C1301    1.0000 0.54280  0.79900  0.52690  Biso   1.000  C
  H1641    1.0000 0.51510  0.79930  0.52890  Biso   1.000  H
  C1302    1.0000 0.56040  0.80920  0.49260  Biso   1.000  C
  H1642    1.0000 0.54440  0.81680  0.47130  Biso   1.000  H
  C1303    1.0000 0.64900  0.76500  0.28410  Biso   1.000  C
  H1643    1.0000 0.62170  0.76730  0.27940  Biso   1.000  H
  H1644    1.0000 0.65390  0.73960  0.29420  Biso   1.000  H
  C1304    1.0000 0.62570  0.77480  0.58920  Biso   1.000  C
  H1645    1.0000 0.60780  0.75930  0.60590  Biso   1.000  H
  H1646    1.0000 0.63470  0.79760  0.60450  Biso   1.000  H
  N345     1.0000 0.72000  0.79820  0.55100  Biso   1.000  N
  N346     1.0000 0.67100  0.84080  0.45710  Biso   1.000  N
  N347     1.0000 0.64984  0.82130  0.37960  Biso   1.000  N
  N348     1.0000 0.60000  0.80890  0.48750  Biso   1.000  N
  O259     1.0000 0.65860  0.75130  0.57830  Biso   1.000  O
  H1647    1.0000 0.67960  0.74200  0.57100  Biso   1.000  H
  O260     1.0000 0.67010  0.76740  0.24990  Biso   1.000  O
  H1648    1.0000 0.69190  0.77200  0.23900  Biso   1.000  H
  H1649    1.0000 0.63950  0.74270  0.29760  Biso   1.000  H
  H1650    1.0000 0.67160  0.75720  0.26980  Biso   1.000  H
  C1305    1.0000 0.63060  0.78160  0.58780  Biso   1.000  C
  H1651    1.0000 0.61500  0.77350  0.61090  Biso   1.000  H
  H1652    1.0000 0.64460  0.80600  0.59450  Biso   1.000  H
  O261     1.0000 0.62250  0.77790  0.25530  Biso   1.000  O
  H1653    1.0000 0.60240  0.76310  0.25780  Biso   1.000  H
  C1306    1.0000 0.23100  0.32450  0.03340  Biso   1.000  C
  C1307    1.0000 0.19790  0.35450  0.97170  Biso   1.000  C
  C1308    1.0000 0.14360  0.29410  0.85210  Biso   1.000  C
  H1654    1.0000 0.12850  0.27170  0.85880  Biso   1.000  H
  C1309    1.0000 0.15810  0.29690  0.81390  Biso   1.000  C
  C1310    1.0000 0.18080  0.32880  0.80470  Biso   1.000  C
  H1655    1.0000 0.19190  0.33150  0.77930  Biso   1.000  H
  C1311    1.0000 0.18740  0.35710  0.83310  Biso   1.000  C
  H1656    1.0000 0.20280  0.37940  0.82730  Biso   1.000  H
  C1312    1.0000 0.17130  0.35240  0.86970  Biso   1.000  C
  H1657    1.0000 0.17550  0.37220  0.88870  Biso   1.000  H
  C1313    1.0000 0.12230  0.29920  0.01900  Biso   1.000  C
  H1658    1.0000 0.15000  0.29960  0.01730  Biso   1.000  H
  C1314    1.0000 0.10410  0.28870  0.05380  Biso   1.000  C
  C1315    1.0000 0.06430  0.28850  0.05730  Biso   1.000  C
  H1659    1.0000 0.05220  0.28110  0.08120  Biso   1.000  H
  C1316    1.0000 0.04280  0.29900  0.02690  Biso   1.000  C
  H1660    1.0000 0.01510  0.29930  0.02890  Biso   1.000  H
  C1317    1.0000 0.06040  0.30920  0.99260  Biso   1.000  C
  H1661    1.0000 0.04440  0.31680  0.97130  Biso   1.000  H
  C1318    1.0000 0.14900  0.26500  0.78410  Biso   1.000  C
  H1662    1.0000 0.12170  0.26730  0.77940  Biso   1.000  H
  H1663    1.0000 0.15390  0.23960  0.79420  Biso   1.000  H
  C1319    1.0000 0.12570  0.27480  0.08920  Biso   1.000  C
  H1664    1.0000 0.10780  0.25930  0.10590  Biso   1.000  H
  H1665    1.0000 0.13470  0.29760  0.10450  Biso   1.000  H
  N349     1.0000 0.22000  0.29820  0.05100  Biso   1.000  N
  N350     1.0000 0.17100  0.34080  0.95710  Biso   1.000  N
  N351     1.0000 0.14984  0.32130  0.87960  Biso   1.000  N
  N352     1.0000 0.10000  0.30890  0.98750  Biso   1.000  N
  O262     1.0000 0.15860  0.25130  0.07830  Biso   1.000  O
  H1666    1.0000 0.17960  0.24200  0.07100  Biso   1.000  H
  O263     1.0000 0.17010  0.26740  0.74990  Biso   1.000  O
  H1667    1.0000 0.19190  0.27200  0.73900  Biso   1.000  H
  H1668    1.0000 0.13950  0.24270  0.79760  Biso   1.000  H
  H1669    1.0000 0.17160  0.25720  0.76980  Biso   1.000  H
  C1320    1.0000 0.13060  0.28160  0.08780  Biso   1.000  C
  H1670    1.0000 0.11500  0.27350  0.11090  Biso   1.000  H
  H1671    1.0000 0.14460  0.30600  0.09450  Biso   1.000  H
  O264     1.0000 0.12250  0.27790  0.75530  Biso   1.000  O
  H1672    1.0000 0.10240  0.26310  0.75780  Biso   1.000  H
  C1321    1.0000 0.17550  0.03340  0.76900  Biso   1.000  C
  C1322    1.0000 0.14550  0.97170  0.80210  Biso   1.000  C
  C1323    1.0000 0.20590  0.85210  0.85640  Biso   1.000  C
  H1673    1.0000 0.22830  0.85880  0.87150  Biso   1.000  H
  C1324    1.0000 0.20310  0.81390  0.84190  Biso   1.000  C
  C1325    1.0000 0.17120  0.80470  0.81920  Biso   1.000  C
  H1674    1.0000 0.16850  0.77930  0.80810  Biso   1.000  H
  C1326    1.0000 0.14290  0.83310  0.81260  Biso   1.000  C
  H1675    1.0000 0.12060  0.82730  0.79720  Biso   1.000  H
  C1327    1.0000 0.14760  0.86970  0.82870  Biso   1.000  C
  H1676    1.0000 0.12780  0.88870  0.82450  Biso   1.000  H
  C1328    1.0000 0.20080  0.01900  0.87770  Biso   1.000  C
  H1677    1.0000 0.20040  0.01730  0.85000  Biso   1.000  H
  C1329    1.0000 0.21130  0.05380  0.89590  Biso   1.000  C
  C1330    1.0000 0.21150  0.05730  0.93570  Biso   1.000  C
  H1678    1.0000 0.21890  0.08120  0.94780  Biso   1.000  H
  C1331    1.0000 0.20100  0.02690  0.95720  Biso   1.000  C
  H1679    1.0000 0.20070  0.02890  0.98490  Biso   1.000  H
  C1332    1.0000 0.19080  0.99260  0.93960  Biso   1.000  C
  H1680    1.0000 0.18320  0.97130  0.95560  Biso   1.000  H
  C1333    1.0000 0.23500  0.78410  0.85100  Biso   1.000  C
  H1681    1.0000 0.23270  0.77940  0.87830  Biso   1.000  H
  H1682    1.0000 0.26040  0.79420  0.84610  Biso   1.000  H
  C1334    1.0000 0.22520  0.08920  0.87430  Biso   1.000  C
  H1683    1.0000 0.24070  0.10590  0.89220  Biso   1.000  H
  H1684    1.0000 0.20240  0.10450  0.86530  Biso   1.000  H
  N353     1.0000 0.20180  0.05100  0.78000  Biso   1.000  N
  N354     1.0000 0.15920  0.95710  0.82900  Biso   1.000  N
  N355     1.0000 0.17870  0.87960  0.85016  Biso   1.000  N
  N356     1.0000 0.19110  0.98750  0.90000  Biso   1.000  N
  O265     1.0000 0.24870  0.07830  0.84140  Biso   1.000  O
  H1685    1.0000 0.25800  0.07100  0.82040  Biso   1.000  H
  O266     1.0000 0.23260  0.74990  0.82990  Biso   1.000  O
  H1686    1.0000 0.22800  0.73900  0.80810  Biso   1.000  H
  H1687    1.0000 0.25730  0.79760  0.86050  Biso   1.000  H
  H1688    1.0000 0.24280  0.76980  0.82840  Biso   1.000  H
  C1335    1.0000 0.21840  0.08780  0.86940  Biso   1.000  C
  H1689    1.0000 0.22650  0.11090  0.88500  Biso   1.000  H
  H1690    1.0000 0.19400  0.09450  0.85540  Biso   1.000  H
  O267     1.0000 0.22210  0.75530  0.87750  Biso   1.000  O
  H1691    1.0000 0.23690  0.75780  0.89760  Biso   1.000  H
  C1336    1.0000 0.67550  0.53340  0.26900  Biso   1.000  C
  C1337    1.0000 0.64550  0.47170  0.30210  Biso   1.000  C
  C1338    1.0000 0.70590  0.35210  0.35640  Biso   1.000  C
  H1692    1.0000 0.72830  0.35880  0.37150  Biso   1.000  H
  C1339    1.0000 0.70310  0.31390  0.34190  Biso   1.000  C
  C1340    1.0000 0.67120  0.30470  0.31920  Biso   1.000  C
  H1693    1.0000 0.66850  0.27930  0.30810  Biso   1.000  H
  C1341    1.0000 0.64290  0.33310  0.31260  Biso   1.000  C
  H1694    1.0000 0.62060  0.32730  0.29720  Biso   1.000  H
  C1342    1.0000 0.64760  0.36970  0.32870  Biso   1.000  C
  H1695    1.0000 0.62780  0.38870  0.32450  Biso   1.000  H
  C1343    1.0000 0.70080  0.51900  0.37770  Biso   1.000  C
  H1696    1.0000 0.70040  0.51730  0.35000  Biso   1.000  H
  C1344    1.0000 0.71130  0.55380  0.39590  Biso   1.000  C
  C1345    1.0000 0.71150  0.55730  0.43570  Biso   1.000  C
  H1697    1.0000 0.71890  0.58120  0.44780  Biso   1.000  H
  C1346    1.0000 0.70100  0.52690  0.45720  Biso   1.000  C
  H1698    1.0000 0.70070  0.52890  0.48490  Biso   1.000  H
  C1347    1.0000 0.69080  0.49260  0.43960  Biso   1.000  C
  H1699    1.0000 0.68320  0.47130  0.45560  Biso   1.000  H
  C1348    1.0000 0.73500  0.28410  0.35100  Biso   1.000  C
  H1700    1.0000 0.73270  0.27940  0.37830  Biso   1.000  H
  H1701    1.0000 0.76040  0.29420  0.34610  Biso   1.000  H
  C1349    1.0000 0.72520  0.58920  0.37430  Biso   1.000  C
  H1702    1.0000 0.74070  0.60590  0.39220  Biso   1.000  H
  H1703    1.0000 0.70240  0.60450  0.36530  Biso   1.000  H
  N357     1.0000 0.70180  0.55100  0.28000  Biso   1.000  N
  N358     1.0000 0.65920  0.45710  0.32900  Biso   1.000  N
  N359     1.0000 0.67870  0.37960  0.35016  Biso   1.000  N
  N360     1.0000 0.69110  0.48750  0.40000  Biso   1.000  N
  O268     1.0000 0.74870  0.57830  0.34140  Biso   1.000  O
  H1704    1.0000 0.75800  0.57100  0.32040  Biso   1.000  H
  O269     1.0000 0.73260  0.24990  0.32990  Biso   1.000  O
  H1705    1.0000 0.72800  0.23900  0.30810  Biso   1.000  H
  H1706    1.0000 0.75730  0.29760  0.36050  Biso   1.000  H
  H1707    1.0000 0.74280  0.26980  0.32840  Biso   1.000  H
  C1350    1.0000 0.71840  0.58780  0.36940  Biso   1.000  C
  H1708    1.0000 0.72650  0.61090  0.38500  Biso   1.000  H
  H1709    1.0000 0.69400  0.59450  0.35540  Biso   1.000  H
  O270     1.0000 0.72210  0.25530  0.37750  Biso   1.000  O
  H1710    1.0000 0.73690  0.25780  0.39760  Biso   1.000  H
  C1351    1.0000 0.67550  0.46660  0.23100  Biso   1.000  C
  C1352    1.0000 0.64550  0.52830  0.19790  Biso   1.000  C
  C1353    1.0000 0.70590  0.64790  0.14360  Biso   1.000  C
  H1711    1.0000 0.72830  0.64120  0.12850  Biso   1.000  H
  C1354    1.0000 0.70310  0.68610  0.15810  Biso   1.000  C
  C1355    1.0000 0.67120  0.69530  0.18080  Biso   1.000  C
  H1712    1.0000 0.66850  0.72070  0.19190  Biso   1.000  H
  C1356    1.0000 0.64290  0.66690  0.18740  Biso   1.000  C
  H1713    1.0000 0.62060  0.67270  0.20280  Biso   1.000  H
  C1357    1.0000 0.64760  0.63030  0.17130  Biso   1.000  C
  H1714    1.0000 0.62780  0.61130  0.17550  Biso   1.000  H
  C1358    1.0000 0.70080  0.48100  0.12230  Biso   1.000  C
  H1715    1.0000 0.70040  0.48270  0.15000  Biso   1.000  H
  C1359    1.0000 0.71130  0.44620  0.10410  Biso   1.000  C
  C1360    1.0000 0.71150  0.44270  0.06430  Biso   1.000  C
  H1716    1.0000 0.71890  0.41880  0.05220  Biso   1.000  H
  C1361    1.0000 0.70100  0.47310  0.04280  Biso   1.000  C
  H1717    1.0000 0.70070  0.47110  0.01510  Biso   1.000  H
  C1362    1.0000 0.69080  0.50740  0.06040  Biso   1.000  C
  H1718    1.0000 0.68320  0.52870  0.04440  Biso   1.000  H
  C1363    1.0000 0.73500  0.71590  0.14900  Biso   1.000  C
  H1719    1.0000 0.73270  0.72060  0.12170  Biso   1.000  H
  H1720    1.0000 0.76040  0.70580  0.15390  Biso   1.000  H
  C1364    1.0000 0.72520  0.41080  0.12570  Biso   1.000  C
  H1721    1.0000 0.74070  0.39410  0.10780  Biso   1.000  H
  H1722    1.0000 0.70240  0.39550  0.13470  Biso   1.000  H
  N361     1.0000 0.70180  0.44900  0.22000  Biso   1.000  N
  N362     1.0000 0.65920  0.54290  0.17100  Biso   1.000  N
  N363     1.0000 0.67870  0.62040  0.14984  Biso   1.000  N
  N364     1.0000 0.69110  0.51250  0.10000  Biso   1.000  N
  O271     1.0000 0.74870  0.42170  0.15860  Biso   1.000  O
  H1723    1.0000 0.75800  0.42900  0.17960  Biso   1.000  H
  O272     1.0000 0.73260  0.75010  0.17010  Biso   1.000  O
  H1724    1.0000 0.72800  0.76100  0.19190  Biso   1.000  H
  H1725    1.0000 0.75730  0.70240  0.13950  Biso   1.000  H
  H1726    1.0000 0.74280  0.73020  0.17160  Biso   1.000  H
  C1365    1.0000 0.71840  0.41220  0.13060  Biso   1.000  C
  H1727    1.0000 0.72650  0.38910  0.11500  Biso   1.000  H
  H1728    1.0000 0.69400  0.40550  0.14460  Biso   1.000  H
  O273     1.0000 0.72210  0.74470  0.12250  Biso   1.000  O
  H1729    1.0000 0.73690  0.74220  0.10240  Biso   1.000  H
  C1366    1.0000 0.17550  0.96660  0.73100  Biso   1.000  C
  C1367    1.0000 0.14550  0.02830  0.69790  Biso   1.000  C
  C1368    1.0000 0.20590  0.14790  0.64360  Biso   1.000  C
  H1730    1.0000 0.22830  0.14120  0.62850  Biso   1.000  H
  C1369    1.0000 0.20310  0.18610  0.65810  Biso   1.000  C
  C1370    1.0000 0.17120  0.19530  0.68080  Biso   1.000  C
  H1731    1.0000 0.16850  0.22070  0.69190  Biso   1.000  H
  C1371    1.0000 0.14290  0.16690  0.68740  Biso   1.000  C
  H1732    1.0000 0.12060  0.17270  0.70280  Biso   1.000  H
  C1372    1.0000 0.14760  0.13030  0.67130  Biso   1.000  C
  H1733    1.0000 0.12780  0.11130  0.67550  Biso   1.000  H
  C1373    1.0000 0.20080  0.98100  0.62230  Biso   1.000  C
  H1734    1.0000 0.20040  0.98270  0.65000  Biso   1.000  H
  C1374    1.0000 0.21130  0.94620  0.60410  Biso   1.000  C
  C1375    1.0000 0.21150  0.94270  0.56430  Biso   1.000  C
  H1735    1.0000 0.21890  0.91880  0.55220  Biso   1.000  H
  C1376    1.0000 0.20100  0.97310  0.54280  Biso   1.000  C
  H1736    1.0000 0.20070  0.97110  0.51510  Biso   1.000  H
  C1377    1.0000 0.19080  0.00740  0.56040  Biso   1.000  C
  H1737    1.0000 0.18320  0.02870  0.54440  Biso   1.000  H
  C1378    1.0000 0.23500  0.21590  0.64900  Biso   1.000  C
  H1738    1.0000 0.23270  0.22060  0.62170  Biso   1.000  H
  H1739    1.0000 0.26040  0.20580  0.65390  Biso   1.000  H
  C1379    1.0000 0.22520  0.91080  0.62570  Biso   1.000  C
  H1740    1.0000 0.24070  0.89410  0.60780  Biso   1.000  H
  H1741    1.0000 0.20240  0.89550  0.63470  Biso   1.000  H
  N365     1.0000 0.20180  0.94900  0.72000  Biso   1.000  N
  N366     1.0000 0.15920  0.04290  0.67100  Biso   1.000  N
  N367     1.0000 0.17870  0.12040  0.64984  Biso   1.000  N
  N368     1.0000 0.19110  0.01250  0.60000  Biso   1.000  N
  O274     1.0000 0.24870  0.92170  0.65860  Biso   1.000  O
  H1742    1.0000 0.25800  0.92900  0.67960  Biso   1.000  H
  O275     1.0000 0.23260  0.25010  0.67010  Biso   1.000  O
  H1743    1.0000 0.22800  0.26100  0.69190  Biso   1.000  H
  H1744    1.0000 0.25730  0.20240  0.63950  Biso   1.000  H
  H1745    1.0000 0.24280  0.23020  0.67160  Biso   1.000  H
  C1380    1.0000 0.21840  0.91220  0.63060  Biso   1.000  C
  H1746    1.0000 0.22650  0.88910  0.61500  Biso   1.000  H
  H1747    1.0000 0.19400  0.90550  0.64460  Biso   1.000  H
  O276     1.0000 0.22210  0.24470  0.62250  Biso   1.000  O
  H1748    1.0000 0.23690  0.24220  0.60240  Biso   1.000  H
  C1381    1.0000 0.82450  0.53340  0.73100  Biso   1.000  C
  C1382    1.0000 0.85450  0.47170  0.69790  Biso   1.000  C
  C1383    1.0000 0.79410  0.35210  0.64360  Biso   1.000  C
  H1749    1.0000 0.77170  0.35880  0.62850  Biso   1.000  H
  C1384    1.0000 0.79690  0.31390  0.65810  Biso   1.000  C
  C1385    1.0000 0.82880  0.30470  0.68080  Biso   1.000  C
  H1750    1.0000 0.83150  0.27930  0.69190  Biso   1.000  H
  C1386    1.0000 0.85710  0.33310  0.68740  Biso   1.000  C
  H1751    1.0000 0.87940  0.32730  0.70280  Biso   1.000  H
  C1387    1.0000 0.85240  0.36970  0.67130  Biso   1.000  C
  H1752    1.0000 0.87220  0.38870  0.67550  Biso   1.000  H
  C1388    1.0000 0.79920  0.51900  0.62230  Biso   1.000  C
  H1753    1.0000 0.79960  0.51730  0.65000  Biso   1.000  H
  C1389    1.0000 0.78870  0.55380  0.60410  Biso   1.000  C
  C1390    1.0000 0.78850  0.55730  0.56430  Biso   1.000  C
  H1754    1.0000 0.78110  0.58120  0.55220  Biso   1.000  H
  C1391    1.0000 0.79900  0.52690  0.54280  Biso   1.000  C
  H1755    1.0000 0.79930  0.52890  0.51510  Biso   1.000  H
  C1392    1.0000 0.80920  0.49260  0.56040  Biso   1.000  C
  H1756    1.0000 0.81680  0.47130  0.54440  Biso   1.000  H
  C1393    1.0000 0.76500  0.28410  0.64900  Biso   1.000  C
  H1757    1.0000 0.76730  0.27940  0.62170  Biso   1.000  H
  H1758    1.0000 0.73960  0.29420  0.65390  Biso   1.000  H
  C1394    1.0000 0.77480  0.58920  0.62570  Biso   1.000  C
  H1759    1.0000 0.75930  0.60590  0.60780  Biso   1.000  H
  H1760    1.0000 0.79760  0.60450  0.63470  Biso   1.000  H
  N369     1.0000 0.79820  0.55100  0.72000  Biso   1.000  N
  N370     1.0000 0.84080  0.45710  0.67100  Biso   1.000  N
  N371     1.0000 0.82130  0.37960  0.64984  Biso   1.000  N
  N372     1.0000 0.80890  0.48750  0.60000  Biso   1.000  N
  O277     1.0000 0.75130  0.57830  0.65860  Biso   1.000  O
  H1761    1.0000 0.74200  0.57100  0.67960  Biso   1.000  H
  O278     1.0000 0.76740  0.24990  0.67010  Biso   1.000  O
  H1762    1.0000 0.77200  0.23900  0.69190  Biso   1.000  H
  H1763    1.0000 0.74270  0.29760  0.63950  Biso   1.000  H
  H1764    1.0000 0.75720  0.26980  0.67160  Biso   1.000  H
  C1395    1.0000 0.78160  0.58780  0.63060  Biso   1.000  C
  H1765    1.0000 0.77350  0.61090  0.61500  Biso   1.000  H
  H1766    1.0000 0.80600  0.59450  0.64460  Biso   1.000  H
  O279     1.0000 0.77790  0.25530  0.62250  Biso   1.000  O
  H1767    1.0000 0.76310  0.25780  0.60240  Biso   1.000  H
  C1396    1.0000 0.32450  0.03340  0.23100  Biso   1.000  C
  C1397    1.0000 0.35450  0.97170  0.19790  Biso   1.000  C
  C1398    1.0000 0.29410  0.85210  0.14360  Biso   1.000  C
  H1768    1.0000 0.27170  0.85880  0.12850  Biso   1.000  H
  C1399    1.0000 0.29690  0.81390  0.15810  Biso   1.000  C
  C1400    1.0000 0.32880  0.80470  0.18080  Biso   1.000  C
  H1769    1.0000 0.33150  0.77930  0.19190  Biso   1.000  H
  C1401    1.0000 0.35710  0.83310  0.18740  Biso   1.000  C
  H1770    1.0000 0.37940  0.82730  0.20280  Biso   1.000  H
  C1402    1.0000 0.35240  0.86970  0.17130  Biso   1.000  C
  H1771    1.0000 0.37220  0.88870  0.17550  Biso   1.000  H
  C1403    1.0000 0.29920  0.01900  0.12230  Biso   1.000  C
  H1772    1.0000 0.29960  0.01730  0.15000  Biso   1.000  H
  C1404    1.0000 0.28870  0.05380  0.10410  Biso   1.000  C
  C1405    1.0000 0.28850  0.05730  0.06430  Biso   1.000  C
  H1773    1.0000 0.28110  0.08120  0.05220  Biso   1.000  H
  C1406    1.0000 0.29900  0.02690  0.04280  Biso   1.000  C
  H1774    1.0000 0.29930  0.02890  0.01510  Biso   1.000  H
  C1407    1.0000 0.30920  0.99260  0.06040  Biso   1.000  C
  H1775    1.0000 0.31680  0.97130  0.04440  Biso   1.000  H
  C1408    1.0000 0.26500  0.78410  0.14900  Biso   1.000  C
  H1776    1.0000 0.26730  0.77940  0.12170  Biso   1.000  H
  H1777    1.0000 0.23960  0.79420  0.15390  Biso   1.000  H
  C1409    1.0000 0.27480  0.08920  0.12570  Biso   1.000  C
  H1778    1.0000 0.25930  0.10590  0.10780  Biso   1.000  H
  H1779    1.0000 0.29760  0.10450  0.13470  Biso   1.000  H
  N373     1.0000 0.29820  0.05100  0.22000  Biso   1.000  N
  N374     1.0000 0.34080  0.95710  0.17100  Biso   1.000  N
  N375     1.0000 0.32130  0.87960  0.14984  Biso   1.000  N
  N376     1.0000 0.30890  0.98750  0.10000  Biso   1.000  N
  O280     1.0000 0.25130  0.07830  0.15860  Biso   1.000  O
  H1780    1.0000 0.24200  0.07100  0.17960  Biso   1.000  H
  O281     1.0000 0.26740  0.74990  0.17010  Biso   1.000  O
  H1781    1.0000 0.27200  0.73900  0.19190  Biso   1.000  H
  H1782    1.0000 0.24270  0.79760  0.13950  Biso   1.000  H
  H1783    1.0000 0.25720  0.76980  0.17160  Biso   1.000  H
  C1410    1.0000 0.28160  0.08780  0.13060  Biso   1.000  C
  H1784    1.0000 0.27350  0.11090  0.11500  Biso   1.000  H
  H1785    1.0000 0.30600  0.09450  0.14460  Biso   1.000  H
  O282     1.0000 0.27790  0.75530  0.12250  Biso   1.000  O
  H1786    1.0000 0.26310  0.75780  0.10240  Biso   1.000  H
  C1411    1.0000 0.32450  0.96660  0.26900  Biso   1.000  C
  C1412    1.0000 0.35450  0.02830  0.30210  Biso   1.000  C
  C1413    1.0000 0.29410  0.14790  0.35640  Biso   1.000  C
  H1787    1.0000 0.27170  0.14120  0.37150  Biso   1.000  H
  C1414    1.0000 0.29690  0.18610  0.34190  Biso   1.000  C
  C1415    1.0000 0.32880  0.19530  0.31920  Biso   1.000  C
  H1788    1.0000 0.33150  0.22070  0.30810  Biso   1.000  H
  C1416    1.0000 0.35710  0.16690  0.31260  Biso   1.000  C
  H1789    1.0000 0.37940  0.17270  0.29720  Biso   1.000  H
  C1417    1.0000 0.35240  0.13030  0.32870  Biso   1.000  C
  H1790    1.0000 0.37220  0.11130  0.32450  Biso   1.000  H
  C1418    1.0000 0.29920  0.98100  0.37770  Biso   1.000  C
  H1791    1.0000 0.29960  0.98270  0.35000  Biso   1.000  H
  C1419    1.0000 0.28870  0.94620  0.39590  Biso   1.000  C
  C1420    1.0000 0.28850  0.94270  0.43570  Biso   1.000  C
  H1792    1.0000 0.28110  0.91880  0.44780  Biso   1.000  H
  C1421    1.0000 0.29900  0.97310  0.45720  Biso   1.000  C
  H1793    1.0000 0.29930  0.97110  0.48490  Biso   1.000  H
  C1422    1.0000 0.30920  0.00740  0.43960  Biso   1.000  C
  H1794    1.0000 0.31680  0.02870  0.45560  Biso   1.000  H
  C1423    1.0000 0.26500  0.21590  0.35100  Biso   1.000  C
  H1795    1.0000 0.26730  0.22060  0.37830  Biso   1.000  H
  H1796    1.0000 0.23960  0.20580  0.34610  Biso   1.000  H
  C1424    1.0000 0.27480  0.91080  0.37430  Biso   1.000  C
  H1797    1.0000 0.25930  0.89410  0.39220  Biso   1.000  H
  H1798    1.0000 0.29760  0.89550  0.36530  Biso   1.000  H
  N377     1.0000 0.29820  0.94900  0.28000  Biso   1.000  N
  N378     1.0000 0.34080  0.04290  0.32900  Biso   1.000  N
  N379     1.0000 0.32130  0.12040  0.35016  Biso   1.000  N
  N380     1.0000 0.30890  0.01250  0.40000  Biso   1.000  N
  O283     1.0000 0.25130  0.92170  0.34140  Biso   1.000  O
  H1799    1.0000 0.24200  0.92900  0.32040  Biso   1.000  H
  O284     1.0000 0.26740  0.25010  0.32990  Biso   1.000  O
  H1800    1.0000 0.27200  0.26100  0.30810  Biso   1.000  H
  H1801    1.0000 0.24270  0.20240  0.36050  Biso   1.000  H
  H1802    1.0000 0.25720  0.23020  0.32840  Biso   1.000  H
  C1425    1.0000 0.28160  0.91220  0.36940  Biso   1.000  C
  H1803    1.0000 0.27350  0.88910  0.38500  Biso   1.000  H
  H1804    1.0000 0.30600  0.90550  0.35540  Biso   1.000  H
  O285     1.0000 0.27790  0.24470  0.37750  Biso   1.000  O
  H1805    1.0000 0.26310  0.24220  0.39760  Biso   1.000  H
  C1426    1.0000 0.82450  0.46660  0.76900  Biso   1.000  C
  C1427    1.0000 0.85450  0.52830  0.80210  Biso   1.000  C
  C1428    1.0000 0.79410  0.64790  0.85640  Biso   1.000  C
  H1806    1.0000 0.77170  0.64120  0.87150  Biso   1.000  H
  C1429    1.0000 0.79690  0.68610  0.84190  Biso   1.000  C
  C1430    1.0000 0.82880  0.69530  0.81920  Biso   1.000  C
  H1807    1.0000 0.83150  0.72070  0.80810  Biso   1.000  H
  C1431    1.0000 0.85710  0.66690  0.81260  Biso   1.000  C
  H1808    1.0000 0.87940  0.67270  0.79720  Biso   1.000  H
  C1432    1.0000 0.85240  0.63030  0.82870  Biso   1.000  C
  H1809    1.0000 0.87220  0.61130  0.82450  Biso   1.000  H
  C1433    1.0000 0.79920  0.48100  0.87770  Biso   1.000  C
  H1810    1.0000 0.79960  0.48270  0.85000  Biso   1.000  H
  C1434    1.0000 0.78870  0.44620  0.89590  Biso   1.000  C
  C1435    1.0000 0.78850  0.44270  0.93570  Biso   1.000  C
  H1811    1.0000 0.78110  0.41880  0.94780  Biso   1.000  H
  C1436    1.0000 0.79900  0.47310  0.95720  Biso   1.000  C
  H1812    1.0000 0.79930  0.47110  0.98490  Biso   1.000  H
  C1437    1.0000 0.80920  0.50740  0.93960  Biso   1.000  C
  H1813    1.0000 0.81680  0.52870  0.95560  Biso   1.000  H
  C1438    1.0000 0.76500  0.71590  0.85100  Biso   1.000  C
  H1814    1.0000 0.76730  0.72060  0.87830  Biso   1.000  H
  H1815    1.0000 0.73960  0.70580  0.84610  Biso   1.000  H
  C1439    1.0000 0.77480  0.41080  0.87430  Biso   1.000  C
  H1816    1.0000 0.75930  0.39410  0.89220  Biso   1.000  H
  H1817    1.0000 0.79760  0.39550  0.86530  Biso   1.000  H
  N381     1.0000 0.79820  0.44900  0.78000  Biso   1.000  N
  N382     1.0000 0.84080  0.54290  0.82900  Biso   1.000  N
  N383     1.0000 0.82130  0.62040  0.85016  Biso   1.000  N
  N384     1.0000 0.80890  0.51250  0.90000  Biso   1.000  N
  O286     1.0000 0.75130  0.42170  0.84140  Biso   1.000  O
  H1818    1.0000 0.74200  0.42900  0.82040  Biso   1.000  H
  O287     1.0000 0.76740  0.75010  0.82990  Biso   1.000  O
  H1819    1.0000 0.77200  0.76100  0.80810  Biso   1.000  H
  H1820    1.0000 0.74270  0.70240  0.86050  Biso   1.000  H
  H1821    1.0000 0.75720  0.73020  0.82840  Biso   1.000  H
  C1440    1.0000 0.78160  0.41220  0.86940  Biso   1.000  C
  H1822    1.0000 0.77350  0.38910  0.88500  Biso   1.000  H
  H1823    1.0000 0.80600  0.40550  0.85540  Biso   1.000  H
  O288     1.0000 0.77790  0.74470  0.87750  Biso   1.000  O
  H1824    1.0000 0.76310  0.74220  0.89760  Biso   1.000  H
  Fe1      1.0000 0.12500  0.81617  0.06617  Biso   1.000  Fe
  Fe2      1.0000 0.62500  0.31617  0.56617  Biso   1.000  Fe
  Fe3      1.0000 0.37500  0.18383  0.56617  Biso   1.000  Fe
  Fe4      1.0000 0.87500  0.68383  0.06617  Biso   1.000  Fe
  Fe5      1.0000 0.87500  0.31617  0.43383  Biso   1.000  Fe
  Fe6      1.0000 0.37500  0.81617  0.93383  Biso   1.000  Fe
  Fe7      1.0000 0.62500  0.68383  0.93383  Biso   1.000  Fe
  Fe8      1.0000 0.12500  0.18383  0.43383  Biso   1.000  Fe
  Fe9      1.0000 0.06617  0.12500  0.81617  Biso   1.000  Fe
  Fe10     1.0000 0.56617  0.62500  0.31617  Biso   1.000  Fe
  Fe11     1.0000 0.56617  0.37500  0.18383  Biso   1.000  Fe
  Fe12     1.0000 0.06617  0.87500  0.68383  Biso   1.000  Fe
  Fe13     1.0000 0.43383  0.87500  0.31617  Biso   1.000  Fe
  Fe14     1.0000 0.93383  0.37500  0.81617  Biso   1.000  Fe
  Fe15     1.0000 0.93383  0.62500  0.68383  Biso   1.000  Fe
  Fe16     1.0000 0.43383  0.12500  0.18383  Biso   1.000  Fe
  Fe17     1.0000 0.81617  0.06617  0.12500  Biso   1.000  Fe
  Fe18     1.0000 0.31617  0.56617  0.62500  Biso   1.000  Fe
  Fe19     1.0000 0.18383  0.56617  0.37500  Biso   1.000  Fe
  Fe20     1.0000 0.68383  0.06617  0.87500  Biso   1.000  Fe
  Fe21     1.0000 0.31617  0.43383  0.87500  Biso   1.000  Fe
  Fe22     1.0000 0.81617  0.93383  0.37500  Biso   1.000  Fe
  Fe23     1.0000 0.68383  0.93383  0.62500  Biso   1.000  Fe
  Fe24     1.0000 0.18383  0.43383  0.12500  Biso   1.000  Fe
  Fe25     1.0000 0.87500  0.18383  0.93383  Biso   1.000  Fe
  Fe26     1.0000 0.37500  0.68383  0.43383  Biso   1.000  Fe
  Fe27     1.0000 0.62500  0.81617  0.43383  Biso   1.000  Fe
  Fe28     1.0000 0.12500  0.31617  0.93383  Biso   1.000  Fe
  Fe29     1.0000 0.12500  0.68383  0.56617  Biso   1.000  Fe
  Fe30     1.0000 0.62500  0.18383  0.06617  Biso   1.000  Fe
  Fe31     1.0000 0.37500  0.31617  0.06617  Biso   1.000  Fe
  Fe32     1.0000 0.87500  0.81617  0.56617  Biso   1.000  Fe
  Fe33     1.0000 0.93383  0.87500  0.18383  Biso   1.000  Fe
  Fe34     1.0000 0.43383  0.37500  0.68383  Biso   1.000  Fe
  Fe35     1.0000 0.43383  0.62500  0.81617  Biso   1.000  Fe
  Fe36     1.0000 0.93383  0.12500  0.31617  Biso   1.000  Fe
  Fe37     1.0000 0.56617  0.12500  0.68383  Biso   1.000  Fe
  Fe38     1.0000 0.06617  0.62500  0.18383  Biso   1.000  Fe
  Fe39     1.0000 0.06617  0.37500  0.31617  Biso   1.000  Fe
  Fe40     1.0000 0.56617  0.87500  0.81617  Biso   1.000  Fe
  Fe41     1.0000 0.18383  0.93383  0.87500  Biso   1.000  Fe
  Fe42     1.0000 0.68383  0.43383  0.37500  Biso   1.000  Fe
  Fe43     1.0000 0.81617  0.43383  0.62500  Biso   1.000  Fe
  Fe44     1.0000 0.31617  0.93383  0.12500  Biso   1.000  Fe
  Fe45     1.0000 0.68383  0.56617  0.12500  Biso   1.000  Fe
  Fe46     1.0000 0.18383  0.06617  0.62500  Biso   1.000  Fe
  Fe47     1.0000 0.31617  0.06617  0.37500  Biso   1.000  Fe
  Fe48     1.0000 0.81617  0.56617  0.87500  Biso   1.000  Fe
  W1       1.0000 0.00000  0.75000  0.12500  Biso   1.000  W
  W2       1.0000 0.50000  0.25000  0.62500  Biso   1.000  W
  W3       1.0000 0.00000  0.25000  0.37500  Biso   1.000  W
  W4       1.0000 0.50000  0.75000  0.87500  Biso   1.000  W
  W5       1.0000 0.12500  0.00000  0.75000  Biso   1.000  W
  W6       1.0000 0.62500  0.50000  0.25000  Biso   1.000  W
  W7       1.0000 0.37500  0.00000  0.25000  Biso   1.000  W
  W8       1.0000 0.87500  0.50000  0.75000  Biso   1.000  W
  W9       1.0000 0.75000  0.12500  0.00000  Biso   1.000  W
  W10      1.0000 0.25000  0.62500  0.50000  Biso   1.000  W
  W11      1.0000 0.25000  0.37500  0.00000  Biso   1.000  W
  W12      1.0000 0.75000  0.87500  0.50000  Biso   1.000  W
  W13      1.0000 0.50000  0.25000  0.12500  Biso   1.000  W
  W14      1.0000 0.00000  0.75000  0.62500  Biso   1.000  W
  W15      1.0000 0.00000  0.25000  0.87500  Biso   1.000  W
  W16      1.0000 0.50000  0.75000  0.37500  Biso   1.000  W
  W17      1.0000 0.75000  0.37500  0.50000  Biso   1.000  W
  W18      1.0000 0.25000  0.87500  0.00000  Biso   1.000  W
  W19      1.0000 0.75000  0.62500  0.00000  Biso   1.000  W
  W20      1.0000 0.25000  0.12500  0.50000  Biso   1.000  W
  W21      1.0000 0.87500  0.00000  0.25000  Biso   1.000  W
  W22      1.0000 0.37500  0.50000  0.75000  Biso   1.000  W
  W23      1.0000 0.12500  0.50000  0.25000  Biso   1.000  W
  W24      1.0000 0.62500  0.00000  0.75000  Biso   1.000  W
