data_image0
_cell_length_a       34.8807
_cell_length_b       34.8807
_cell_length_c       34.8807
_cell_angle_alpha    90
_cell_angle_beta     90
_cell_angle_gamma    90

_symmetry_space_group_name_H-M    "P 1"
_symmetry_int_tables_number       1

loop_
  _symmetry_equiv_pos_as_xyz
  'x, y, z'

loop_
  _atom_site_label
  _atom_site_occupancy
  _atom_site_fract_x
  _atom_site_fract_y
  _atom_site_fract_z
  _atom_site_thermal_displace_type
  _atom_site_B_iso_or_equiv
  _atom_site_type_symbol
  C1       1.0000 0.01910  0.71770  0.07510  Biso   1.000  C
  C2       1.0000 0.05040  0.77910  0.10610  Biso   1.000  C
  C3       1.0000 0.10640  0.90300  0.04680  Biso   1.000  C
  H1       1.0000 0.12260  0.89670  0.02660  Biso   1.000  H
  C4       1.0000 0.09140  0.94050  0.04830  Biso   1.000  C
  C5       1.0000 0.06730  0.94890  0.07740  Biso   1.000  C
  H2       1.0000 0.05680  0.97330  0.07940  Biso   1.000  H
  C6       1.0000 0.05830  0.92120  0.10410  Biso   1.000  C
  H3       1.0000 0.04110  0.92640  0.12370  Biso   1.000  H
  C7       1.0000 0.07540  0.88530  0.10120  Biso   1.000  C
  H4       1.0000 0.07030  0.86710  0.12000  Biso   1.000  H
  C8       1.0000 0.12930  0.72940  0.05180  Biso   1.000  C
  H5       1.0000 0.10280  0.73130  0.05430  Biso   1.000  H
  C9       1.0000 0.14550  0.69560  0.04050  Biso   1.000  C
  C10      1.0000 0.18420  0.69230  0.03850  Biso   1.000  C
  H6       1.0000 0.19520  0.66910  0.03120  Biso   1.000  H
  C11      1.0000 0.20600  0.72120  0.04670  Biso   1.000  C
  H7       1.0000 0.23250  0.71900  0.04500  Biso   1.000  H
  C12      1.0000 0.18910  0.75570  0.05800  Biso   1.000  C
  H8       1.0000 0.20490  0.77610  0.06460  Biso   1.000  H
  C13      1.0000 0.10330  0.97020  0.01790  Biso   1.000  C
  H9       1.0000 0.13060  0.97490  0.02010  Biso   1.000  H
  H10      1.0000 0.09840  0.96010  0.99250  Biso   1.000  H
  C14      1.0000 0.13080  0.65880  0.02110  Biso   1.000  C
  H11      1.0000 0.14760  0.65080  0.00040  Biso   1.000  H
  H12      1.0000 0.12820  0.63800  0.03930  Biso   1.000  H
  N1       1.0000 0.02970  0.70060  0.04910  Biso   1.000  N
  N2       1.0000 0.07660  0.79419  0.09382  Biso   1.000  N
  N3       1.0000 0.09859  0.87620  0.07240  Biso   1.000  N
  N4       1.0000 0.15170  0.76040  0.05950  Biso   1.000  N
  O1       1.0000 0.09430  0.67130  0.00690  Biso   1.000  O
  H13      1.0000 0.07630  0.67900  0.99400  Biso   1.000  H
  O2       1.0000 0.08110  0.00140  0.02070  Biso   1.000  O
  H14      1.0000 0.06200  0.01400  0.02900  Biso   1.000  H
  H15      1.0000 0.11280  0.95670  0.99550  Biso   1.000  H
  H16      1.0000 0.08070  0.98450  0.01010  Biso   1.000  H
  C15      1.0000 0.11840  0.66230  0.04060  Biso   1.000  C
  H17      1.0000 0.13190  0.63820  0.03730  Biso   1.000  H
  H18      1.0000 0.10340  0.66140  0.06390  Biso   1.000  H
  O3       1.0000 0.13200  0.99660  0.03060  Biso   1.000  O
  H19      1.0000 0.15380  0.99640  0.01940  Biso   1.000  H
  C16      1.0000 0.51910  0.21770  0.57510  Biso   1.000  C
  C17      1.0000 0.55040  0.27910  0.60610  Biso   1.000  C
  C18      1.0000 0.60640  0.40300  0.54680  Biso   1.000  C
  H20      1.0000 0.62260  0.39670  0.52660  Biso   1.000  H
  C19      1.0000 0.59140  0.44050  0.54830  Biso   1.000  C
  C20      1.0000 0.56730  0.44890  0.57740  Biso   1.000  C
  H21      1.0000 0.55680  0.47330  0.57940  Biso   1.000  H
  C21      1.0000 0.55830  0.42120  0.60410  Biso   1.000  C
  H22      1.0000 0.54110  0.42640  0.62370  Biso   1.000  H
  C22      1.0000 0.57540  0.38530  0.60120  Biso   1.000  C
  H23      1.0000 0.57030  0.36710  0.62000  Biso   1.000  H
  C23      1.0000 0.62930  0.22940  0.55180  Biso   1.000  C
  H24      1.0000 0.60280  0.23130  0.55430  Biso   1.000  H
  C24      1.0000 0.64550  0.19560  0.54050  Biso   1.000  C
  C25      1.0000 0.68420  0.19230  0.53850  Biso   1.000  C
  H25      1.0000 0.69520  0.16910  0.53120  Biso   1.000  H
  C26      1.0000 0.70600  0.22120  0.54670  Biso   1.000  C
  H26      1.0000 0.73250  0.21900  0.54500  Biso   1.000  H
  C27      1.0000 0.68910  0.25570  0.55800  Biso   1.000  C
  H27      1.0000 0.70490  0.27610  0.56460  Biso   1.000  H
  C28      1.0000 0.60330  0.47020  0.51790  Biso   1.000  C
  H28      1.0000 0.63060  0.47490  0.52010  Biso   1.000  H
  H29      1.0000 0.59840  0.46010  0.49250  Biso   1.000  H
  C29      1.0000 0.63080  0.15880  0.52110  Biso   1.000  C
  H30      1.0000 0.64760  0.15080  0.50040  Biso   1.000  H
  H31      1.0000 0.62820  0.13800  0.53930  Biso   1.000  H
  N5       1.0000 0.52970  0.20060  0.54910  Biso   1.000  N
  N6       1.0000 0.57660  0.29419  0.59382  Biso   1.000  N
  N7       1.0000 0.59859  0.37620  0.57240  Biso   1.000  N
  N8       1.0000 0.65170  0.26040  0.55950  Biso   1.000  N
  O4       1.0000 0.59430  0.17130  0.50690  Biso   1.000  O
  H32      1.0000 0.57630  0.17900  0.49400  Biso   1.000  H
  O5       1.0000 0.58110  0.50140  0.52070  Biso   1.000  O
  H33      1.0000 0.56200  0.51400  0.52900  Biso   1.000  H
  H34      1.0000 0.61280  0.45670  0.49550  Biso   1.000  H
  H35      1.0000 0.58070  0.48450  0.51010  Biso   1.000  H
  C30      1.0000 0.61840  0.16230  0.54060  Biso   1.000  C
  H36      1.0000 0.63190  0.13820  0.53730  Biso   1.000  H
  H37      1.0000 0.60340  0.16140  0.56390  Biso   1.000  H
  O6       1.0000 0.63200  0.49660  0.53060  Biso   1.000  O
  H38      1.0000 0.65380  0.49640  0.51940  Biso   1.000  H
  C31      1.0000 0.48090  0.28230  0.57510  Biso   1.000  C
  C32      1.0000 0.44960  0.22090  0.60610  Biso   1.000  C
  C33      1.0000 0.39360  0.09700  0.54680  Biso   1.000  C
  H39      1.0000 0.37740  0.10330  0.52660  Biso   1.000  H
  C34      1.0000 0.40860  0.05950  0.54830  Biso   1.000  C
  C35      1.0000 0.43270  0.05110  0.57740  Biso   1.000  C
  H40      1.0000 0.44320  0.02670  0.57940  Biso   1.000  H
  C36      1.0000 0.44170  0.07880  0.60410  Biso   1.000  C
  H41      1.0000 0.45890  0.07360  0.62370  Biso   1.000  H
  C37      1.0000 0.42460  0.11470  0.60120  Biso   1.000  C
  H42      1.0000 0.42970  0.13290  0.62000  Biso   1.000  H
  C38      1.0000 0.37070  0.27060  0.55180  Biso   1.000  C
  H43      1.0000 0.39720  0.26870  0.55430  Biso   1.000  H
  C39      1.0000 0.35450  0.30440  0.54050  Biso   1.000  C
  C40      1.0000 0.31580  0.30770  0.53850  Biso   1.000  C
  H44      1.0000 0.30480  0.33090  0.53120  Biso   1.000  H
  C41      1.0000 0.29400  0.27880  0.54670  Biso   1.000  C
  H45      1.0000 0.26750  0.28100  0.54500  Biso   1.000  H
  C42      1.0000 0.31090  0.24430  0.55800  Biso   1.000  C
  H46      1.0000 0.29510  0.22390  0.56460  Biso   1.000  H
  C43      1.0000 0.39670  0.02980  0.51790  Biso   1.000  C
  H47      1.0000 0.36940  0.02510  0.52010  Biso   1.000  H
  H48      1.0000 0.40160  0.03990  0.49250  Biso   1.000  H
  C44      1.0000 0.36920  0.34120  0.52110  Biso   1.000  C
  H49      1.0000 0.35240  0.34920  0.50040  Biso   1.000  H
  H50      1.0000 0.37180  0.36200  0.53930  Biso   1.000  H
  N9       1.0000 0.47030  0.29940  0.54910  Biso   1.000  N
  N10      1.0000 0.42340  0.20581  0.59382  Biso   1.000  N
  N11      1.0000 0.40141  0.12380  0.57240  Biso   1.000  N
  N12      1.0000 0.34830  0.23960  0.55950  Biso   1.000  N
  O7       1.0000 0.40570  0.32870  0.50690  Biso   1.000  O
  H51      1.0000 0.42370  0.32100  0.49400  Biso   1.000  H
  O8       1.0000 0.41890  0.99860  0.52070  Biso   1.000  O
  H52      1.0000 0.43800  0.98600  0.52900  Biso   1.000  H
  H53      1.0000 0.38720  0.04330  0.49550  Biso   1.000  H
  H54      1.0000 0.41930  0.01550  0.51010  Biso   1.000  H
  C45      1.0000 0.38160  0.33770  0.54060  Biso   1.000  C
  H55      1.0000 0.36810  0.36180  0.53730  Biso   1.000  H
  H56      1.0000 0.39660  0.33860  0.56390  Biso   1.000  H
  O9       1.0000 0.36800  0.00340  0.53060  Biso   1.000  O
  H57      1.0000 0.34620  0.00360  0.51940  Biso   1.000  H
  C46      1.0000 0.98090  0.78230  0.07510  Biso   1.000  C
  C47      1.0000 0.94960  0.72090  0.10610  Biso   1.000  C
  C48      1.0000 0.89360  0.59700  0.04680  Biso   1.000  C
  H58      1.0000 0.87740  0.60330  0.02660  Biso   1.000  H
  C49      1.0000 0.90860  0.55950  0.04830  Biso   1.000  C
  C50      1.0000 0.93270  0.55110  0.07740  Biso   1.000  C
  H59      1.0000 0.94320  0.52670  0.07940  Biso   1.000  H
  C51      1.0000 0.94170  0.57880  0.10410  Biso   1.000  C
  H60      1.0000 0.95890  0.57360  0.12370  Biso   1.000  H
  C52      1.0000 0.92460  0.61470  0.10120  Biso   1.000  C
  H61      1.0000 0.92970  0.63290  0.12000  Biso   1.000  H
  C53      1.0000 0.87070  0.77060  0.05180  Biso   1.000  C
  H62      1.0000 0.89720  0.76870  0.05430  Biso   1.000  H
  C54      1.0000 0.85450  0.80440  0.04050  Biso   1.000  C
  C55      1.0000 0.81580  0.80770  0.03850  Biso   1.000  C
  H63      1.0000 0.80480  0.83090  0.03120  Biso   1.000  H
  C56      1.0000 0.79400  0.77880  0.04670  Biso   1.000  C
  H64      1.0000 0.76750  0.78100  0.04500  Biso   1.000  H
  C57      1.0000 0.81090  0.74430  0.05800  Biso   1.000  C
  H65      1.0000 0.79510  0.72390  0.06460  Biso   1.000  H
  C58      1.0000 0.89670  0.52980  0.01790  Biso   1.000  C
  H66      1.0000 0.86940  0.52510  0.02010  Biso   1.000  H
  H67      1.0000 0.90160  0.53990  0.99250  Biso   1.000  H
  C59      1.0000 0.86920  0.84120  0.02110  Biso   1.000  C
  H68      1.0000 0.85240  0.84920  0.00040  Biso   1.000  H
  H69      1.0000 0.87180  0.86200  0.03930  Biso   1.000  H
  N13      1.0000 0.97030  0.79940  0.04910  Biso   1.000  N
  N14      1.0000 0.92340  0.70581  0.09382  Biso   1.000  N
  N15      1.0000 0.90141  0.62380  0.07240  Biso   1.000  N
  N16      1.0000 0.84830  0.73960  0.05950  Biso   1.000  N
  O10      1.0000 0.90570  0.82870  0.00690  Biso   1.000  O
  H70      1.0000 0.92370  0.82100  0.99400  Biso   1.000  H
  O11      1.0000 0.91890  0.49860  0.02070  Biso   1.000  O
  H71      1.0000 0.93800  0.48600  0.02900  Biso   1.000  H
  H72      1.0000 0.88720  0.54330  0.99550  Biso   1.000  H
  H73      1.0000 0.91930  0.51550  0.01010  Biso   1.000  H
  C60      1.0000 0.88160  0.83770  0.04060  Biso   1.000  C
  H74      1.0000 0.86810  0.86180  0.03730  Biso   1.000  H
  H75      1.0000 0.89660  0.83860  0.06390  Biso   1.000  H
  O12      1.0000 0.86800  0.50340  0.03060  Biso   1.000  O
  H76      1.0000 0.84620  0.50360  0.01940  Biso   1.000  H
  C61      1.0000 0.98090  0.21770  0.42490  Biso   1.000  C
  C62      1.0000 0.94960  0.27910  0.39390  Biso   1.000  C
  C63      1.0000 0.89360  0.40300  0.45320  Biso   1.000  C
  H77      1.0000 0.87740  0.39670  0.47340  Biso   1.000  H
  C64      1.0000 0.90860  0.44050  0.45170  Biso   1.000  C
  C65      1.0000 0.93270  0.44890  0.42260  Biso   1.000  C
  H78      1.0000 0.94320  0.47330  0.42060  Biso   1.000  H
  C66      1.0000 0.94170  0.42120  0.39590  Biso   1.000  C
  H79      1.0000 0.95890  0.42640  0.37630  Biso   1.000  H
  C67      1.0000 0.92460  0.38530  0.39880  Biso   1.000  C
  H80      1.0000 0.92970  0.36710  0.38000  Biso   1.000  H
  C68      1.0000 0.87070  0.22940  0.44820  Biso   1.000  C
  H81      1.0000 0.89720  0.23130  0.44570  Biso   1.000  H
  C69      1.0000 0.85450  0.19560  0.45950  Biso   1.000  C
  C70      1.0000 0.81580  0.19230  0.46150  Biso   1.000  C
  H82      1.0000 0.80480  0.16910  0.46880  Biso   1.000  H
  C71      1.0000 0.79400  0.22120  0.45330  Biso   1.000  C
  H83      1.0000 0.76750  0.21900  0.45500  Biso   1.000  H
  C72      1.0000 0.81090  0.25570  0.44200  Biso   1.000  C
  H84      1.0000 0.79510  0.27610  0.43540  Biso   1.000  H
  C73      1.0000 0.89670  0.47020  0.48210  Biso   1.000  C
  H85      1.0000 0.86940  0.47490  0.47990  Biso   1.000  H
  H86      1.0000 0.90160  0.46010  0.50750  Biso   1.000  H
  C74      1.0000 0.86920  0.15880  0.47890  Biso   1.000  C
  H87      1.0000 0.85240  0.15080  0.49960  Biso   1.000  H
  H88      1.0000 0.87180  0.13800  0.46070  Biso   1.000  H
  N17      1.0000 0.97030  0.20060  0.45090  Biso   1.000  N
  N18      1.0000 0.92340  0.29419  0.40618  Biso   1.000  N
  N19      1.0000 0.90141  0.37620  0.42760  Biso   1.000  N
  N20      1.0000 0.84830  0.26040  0.44050  Biso   1.000  N
  O13      1.0000 0.90570  0.17130  0.49310  Biso   1.000  O
  H89      1.0000 0.92370  0.17900  0.50600  Biso   1.000  H
  O14      1.0000 0.91890  0.50140  0.47930  Biso   1.000  O
  H90      1.0000 0.93800  0.51400  0.47100  Biso   1.000  H
  H91      1.0000 0.88720  0.45670  0.50450  Biso   1.000  H
  H92      1.0000 0.91930  0.48450  0.48990  Biso   1.000  H
  C75      1.0000 0.88160  0.16230  0.45940  Biso   1.000  C
  H93      1.0000 0.86810  0.13820  0.46270  Biso   1.000  H
  H94      1.0000 0.89660  0.16140  0.43610  Biso   1.000  H
  O15      1.0000 0.86800  0.49660  0.46940  Biso   1.000  O
  H95      1.0000 0.84620  0.49640  0.48060  Biso   1.000  H
  C76      1.0000 0.48090  0.71770  0.92490  Biso   1.000  C
  C77      1.0000 0.44960  0.77910  0.89390  Biso   1.000  C
  C78      1.0000 0.39360  0.90300  0.95320  Biso   1.000  C
  H96      1.0000 0.37740  0.89670  0.97340  Biso   1.000  H
  C79      1.0000 0.40860  0.94050  0.95170  Biso   1.000  C
  C80      1.0000 0.43270  0.94890  0.92260  Biso   1.000  C
  H97      1.0000 0.44320  0.97330  0.92060  Biso   1.000  H
  C81      1.0000 0.44170  0.92120  0.89590  Biso   1.000  C
  H98      1.0000 0.45890  0.92640  0.87630  Biso   1.000  H
  C82      1.0000 0.42460  0.88530  0.89880  Biso   1.000  C
  H99      1.0000 0.42970  0.86710  0.88000  Biso   1.000  H
  C83      1.0000 0.37070  0.72940  0.94820  Biso   1.000  C
  H100     1.0000 0.39720  0.73130  0.94570  Biso   1.000  H
  C84      1.0000 0.35450  0.69560  0.95950  Biso   1.000  C
  C85      1.0000 0.31580  0.69230  0.96150  Biso   1.000  C
  H101     1.0000 0.30480  0.66910  0.96880  Biso   1.000  H
  C86      1.0000 0.29400  0.72120  0.95330  Biso   1.000  C
  H102     1.0000 0.26750  0.71900  0.95500  Biso   1.000  H
  C87      1.0000 0.31090  0.75570  0.94200  Biso   1.000  C
  H103     1.0000 0.29510  0.77610  0.93540  Biso   1.000  H
  C88      1.0000 0.39670  0.97020  0.98210  Biso   1.000  C
  H104     1.0000 0.36940  0.97490  0.97990  Biso   1.000  H
  H105     1.0000 0.40160  0.96010  0.00750  Biso   1.000  H
  C89      1.0000 0.36920  0.65880  0.97890  Biso   1.000  C
  H106     1.0000 0.35240  0.65080  0.99960  Biso   1.000  H
  H107     1.0000 0.37180  0.63800  0.96070  Biso   1.000  H
  N21      1.0000 0.47030  0.70060  0.95090  Biso   1.000  N
  N22      1.0000 0.42340  0.79419  0.90618  Biso   1.000  N
  N23      1.0000 0.40141  0.87620  0.92760  Biso   1.000  N
  N24      1.0000 0.34830  0.76040  0.94050  Biso   1.000  N
  O16      1.0000 0.40570  0.67130  0.99310  Biso   1.000  O
  H108     1.0000 0.42370  0.67900  0.00600  Biso   1.000  H
  O17      1.0000 0.41890  0.00140  0.97930  Biso   1.000  O
  H109     1.0000 0.43800  0.01400  0.97100  Biso   1.000  H
  H110     1.0000 0.38720  0.95670  0.00450  Biso   1.000  H
  H111     1.0000 0.41930  0.98450  0.98990  Biso   1.000  H
  C90      1.0000 0.38160  0.66230  0.95940  Biso   1.000  C
  H112     1.0000 0.36810  0.63820  0.96270  Biso   1.000  H
  H113     1.0000 0.39660  0.66140  0.93610  Biso   1.000  H
  O18      1.0000 0.36800  0.99660  0.96940  Biso   1.000  O
  H114     1.0000 0.34620  0.99640  0.98060  Biso   1.000  H
  C91      1.0000 0.51910  0.78230  0.92490  Biso   1.000  C
  C92      1.0000 0.55040  0.72090  0.89390  Biso   1.000  C
  C93      1.0000 0.60640  0.59700  0.95320  Biso   1.000  C
  H115     1.0000 0.62260  0.60330  0.97340  Biso   1.000  H
  C94      1.0000 0.59140  0.55950  0.95170  Biso   1.000  C
  C95      1.0000 0.56730  0.55110  0.92260  Biso   1.000  C
  H116     1.0000 0.55680  0.52670  0.92060  Biso   1.000  H
  C96      1.0000 0.55830  0.57880  0.89590  Biso   1.000  C
  H117     1.0000 0.54110  0.57360  0.87630  Biso   1.000  H
  C97      1.0000 0.57540  0.61470  0.89880  Biso   1.000  C
  H118     1.0000 0.57030  0.63290  0.88000  Biso   1.000  H
  C98      1.0000 0.62930  0.77060  0.94820  Biso   1.000  C
  H119     1.0000 0.60280  0.76870  0.94570  Biso   1.000  H
  C99      1.0000 0.64550  0.80440  0.95950  Biso   1.000  C
  C100     1.0000 0.68420  0.80770  0.96150  Biso   1.000  C
  H120     1.0000 0.69520  0.83090  0.96880  Biso   1.000  H
  C101     1.0000 0.70600  0.77880  0.95330  Biso   1.000  C
  H121     1.0000 0.73250  0.78100  0.95500  Biso   1.000  H
  C102     1.0000 0.68910  0.74430  0.94200  Biso   1.000  C
  H122     1.0000 0.70490  0.72390  0.93540  Biso   1.000  H
  C103     1.0000 0.60330  0.52980  0.98210  Biso   1.000  C
  H123     1.0000 0.63060  0.52510  0.97990  Biso   1.000  H
  H124     1.0000 0.59840  0.53990  0.00750  Biso   1.000  H
  C104     1.0000 0.63080  0.84120  0.97890  Biso   1.000  C
  H125     1.0000 0.64760  0.84920  0.99960  Biso   1.000  H
  H126     1.0000 0.62820  0.86200  0.96070  Biso   1.000  H
  N25      1.0000 0.52970  0.79940  0.95090  Biso   1.000  N
  N26      1.0000 0.57660  0.70581  0.90618  Biso   1.000  N
  N27      1.0000 0.59859  0.62380  0.92760  Biso   1.000  N
  N28      1.0000 0.65170  0.73960  0.94050  Biso   1.000  N
  O19      1.0000 0.59430  0.82870  0.99310  Biso   1.000  O
  H127     1.0000 0.57630  0.82100  0.00600  Biso   1.000  H
  O20      1.0000 0.58110  0.49860  0.97930  Biso   1.000  O
  H128     1.0000 0.56200  0.48600  0.97100  Biso   1.000  H
  H129     1.0000 0.61280  0.54330  0.00450  Biso   1.000  H
  H130     1.0000 0.58070  0.51550  0.98990  Biso   1.000  H
  C105     1.0000 0.61840  0.83770  0.95940  Biso   1.000  C
  H131     1.0000 0.63190  0.86180  0.96270  Biso   1.000  H
  H132     1.0000 0.60340  0.83860  0.93610  Biso   1.000  H
  O21      1.0000 0.63200  0.50340  0.96940  Biso   1.000  O
  H133     1.0000 0.65380  0.50360  0.98060  Biso   1.000  H
  C106     1.0000 0.01910  0.28230  0.42490  Biso   1.000  C
  C107     1.0000 0.05040  0.22090  0.39390  Biso   1.000  C
  C108     1.0000 0.10640  0.09700  0.45320  Biso   1.000  C
  H134     1.0000 0.12260  0.10330  0.47340  Biso   1.000  H
  C109     1.0000 0.09140  0.05950  0.45170  Biso   1.000  C
  C110     1.0000 0.06730  0.05110  0.42260  Biso   1.000  C
  H135     1.0000 0.05680  0.02670  0.42060  Biso   1.000  H
  C111     1.0000 0.05830  0.07880  0.39590  Biso   1.000  C
  H136     1.0000 0.04110  0.07360  0.37630  Biso   1.000  H
  C112     1.0000 0.07540  0.11470  0.39880  Biso   1.000  C
  H137     1.0000 0.07030  0.13290  0.38000  Biso   1.000  H
  C113     1.0000 0.12930  0.27060  0.44820  Biso   1.000  C
  H138     1.0000 0.10280  0.26870  0.44570  Biso   1.000  H
  C114     1.0000 0.14550  0.30440  0.45950  Biso   1.000  C
  C115     1.0000 0.18420  0.30770  0.46150  Biso   1.000  C
  H139     1.0000 0.19520  0.33090  0.46880  Biso   1.000  H
  C116     1.0000 0.20600  0.27880  0.45330  Biso   1.000  C
  H140     1.0000 0.23250  0.28100  0.45500  Biso   1.000  H
  C117     1.0000 0.18910  0.24430  0.44200  Biso   1.000  C
  H141     1.0000 0.20490  0.22390  0.43540  Biso   1.000  H
  C118     1.0000 0.10330  0.02980  0.48210  Biso   1.000  C
  H142     1.0000 0.13060  0.02510  0.47990  Biso   1.000  H
  H143     1.0000 0.09840  0.03990  0.50750  Biso   1.000  H
  C119     1.0000 0.13080  0.34120  0.47890  Biso   1.000  C
  H144     1.0000 0.14760  0.34920  0.49960  Biso   1.000  H
  H145     1.0000 0.12820  0.36200  0.46070  Biso   1.000  H
  N29      1.0000 0.02970  0.29940  0.45090  Biso   1.000  N
  N30      1.0000 0.07660  0.20581  0.40618  Biso   1.000  N
  N31      1.0000 0.09859  0.12380  0.42760  Biso   1.000  N
  N32      1.0000 0.15170  0.23960  0.44050  Biso   1.000  N
  O22      1.0000 0.09430  0.32870  0.49310  Biso   1.000  O
  H146     1.0000 0.07630  0.32100  0.50600  Biso   1.000  H
  O23      1.0000 0.08110  0.99860  0.47930  Biso   1.000  O
  H147     1.0000 0.06200  0.98600  0.47100  Biso   1.000  H
  H148     1.0000 0.11280  0.04330  0.50450  Biso   1.000  H
  H149     1.0000 0.08070  0.01550  0.48990  Biso   1.000  H
  C120     1.0000 0.11840  0.33770  0.45940  Biso   1.000  C
  H150     1.0000 0.13190  0.36180  0.46270  Biso   1.000  H
  H151     1.0000 0.10340  0.33860  0.43610  Biso   1.000  H
  O24      1.0000 0.13200  0.00340  0.46940  Biso   1.000  O
  H152     1.0000 0.15380  0.00360  0.48060  Biso   1.000  H
  C121     1.0000 0.07510  0.01910  0.71770  Biso   1.000  C
  C122     1.0000 0.10610  0.05040  0.77910  Biso   1.000  C
  C123     1.0000 0.04680  0.10640  0.90300  Biso   1.000  C
  H153     1.0000 0.02660  0.12260  0.89670  Biso   1.000  H
  C124     1.0000 0.04830  0.09140  0.94050  Biso   1.000  C
  C125     1.0000 0.07740  0.06730  0.94890  Biso   1.000  C
  H154     1.0000 0.07940  0.05680  0.97330  Biso   1.000  H
  C126     1.0000 0.10410  0.05830  0.92120  Biso   1.000  C
  H155     1.0000 0.12370  0.04110  0.92640  Biso   1.000  H
  C127     1.0000 0.10120  0.07540  0.88530  Biso   1.000  C
  H156     1.0000 0.12000  0.07030  0.86710  Biso   1.000  H
  C128     1.0000 0.05180  0.12930  0.72940  Biso   1.000  C
  H157     1.0000 0.05430  0.10280  0.73130  Biso   1.000  H
  C129     1.0000 0.04050  0.14550  0.69560  Biso   1.000  C
  C130     1.0000 0.03850  0.18420  0.69230  Biso   1.000  C
  H158     1.0000 0.03120  0.19520  0.66910  Biso   1.000  H
  C131     1.0000 0.04670  0.20600  0.72120  Biso   1.000  C
  H159     1.0000 0.04500  0.23250  0.71900  Biso   1.000  H
  C132     1.0000 0.05800  0.18910  0.75570  Biso   1.000  C
  H160     1.0000 0.06460  0.20490  0.77610  Biso   1.000  H
  C133     1.0000 0.01790  0.10330  0.97020  Biso   1.000  C
  H161     1.0000 0.02010  0.13060  0.97490  Biso   1.000  H
  H162     1.0000 0.99250  0.09840  0.96010  Biso   1.000  H
  C134     1.0000 0.02110  0.13080  0.65880  Biso   1.000  C
  H163     1.0000 0.00040  0.14760  0.65080  Biso   1.000  H
  H164     1.0000 0.03930  0.12820  0.63800  Biso   1.000  H
  N33      1.0000 0.04910  0.02970  0.70060  Biso   1.000  N
  N34      1.0000 0.09382  0.07660  0.79419  Biso   1.000  N
  N35      1.0000 0.07240  0.09859  0.87620  Biso   1.000  N
  N36      1.0000 0.05950  0.15170  0.76040  Biso   1.000  N
  O25      1.0000 0.00690  0.09430  0.67130  Biso   1.000  O
  H165     1.0000 0.99400  0.07630  0.67900  Biso   1.000  H
  O26      1.0000 0.02070  0.08110  0.00140  Biso   1.000  O
  H166     1.0000 0.02900  0.06200  0.01400  Biso   1.000  H
  H167     1.0000 0.99550  0.11280  0.95670  Biso   1.000  H
  H168     1.0000 0.01010  0.08070  0.98450  Biso   1.000  H
  C135     1.0000 0.04060  0.11840  0.66230  Biso   1.000  C
  H169     1.0000 0.03730  0.13190  0.63820  Biso   1.000  H
  H170     1.0000 0.06390  0.10340  0.66140  Biso   1.000  H
  O27      1.0000 0.03060  0.13200  0.99660  Biso   1.000  O
  H171     1.0000 0.01940  0.15380  0.99640  Biso   1.000  H
  C136     1.0000 0.57510  0.51910  0.21770  Biso   1.000  C
  C137     1.0000 0.60610  0.55040  0.27910  Biso   1.000  C
  C138     1.0000 0.54680  0.60640  0.40300  Biso   1.000  C
  H172     1.0000 0.52660  0.62260  0.39670  Biso   1.000  H
  C139     1.0000 0.54830  0.59140  0.44050  Biso   1.000  C
  C140     1.0000 0.57740  0.56730  0.44890  Biso   1.000  C
  H173     1.0000 0.57940  0.55680  0.47330  Biso   1.000  H
  C141     1.0000 0.60410  0.55830  0.42120  Biso   1.000  C
  H174     1.0000 0.62370  0.54110  0.42640  Biso   1.000  H
  C142     1.0000 0.60120  0.57540  0.38530  Biso   1.000  C
  H175     1.0000 0.62000  0.57030  0.36710  Biso   1.000  H
  C143     1.0000 0.55180  0.62930  0.22940  Biso   1.000  C
  H176     1.0000 0.55430  0.60280  0.23130  Biso   1.000  H
  C144     1.0000 0.54050  0.64550  0.19560  Biso   1.000  C
  C145     1.0000 0.53850  0.68420  0.19230  Biso   1.000  C
  H177     1.0000 0.53120  0.69520  0.16910  Biso   1.000  H
  C146     1.0000 0.54670  0.70600  0.22120  Biso   1.000  C
  H178     1.0000 0.54500  0.73250  0.21900  Biso   1.000  H
  C147     1.0000 0.55800  0.68910  0.25570  Biso   1.000  C
  H179     1.0000 0.56460  0.70490  0.27610  Biso   1.000  H
  C148     1.0000 0.51790  0.60330  0.47020  Biso   1.000  C
  H180     1.0000 0.52010  0.63060  0.47490  Biso   1.000  H
  H181     1.0000 0.49250  0.59840  0.46010  Biso   1.000  H
  C149     1.0000 0.52110  0.63080  0.15880  Biso   1.000  C
  H182     1.0000 0.50040  0.64760  0.15080  Biso   1.000  H
  H183     1.0000 0.53930  0.62820  0.13800  Biso   1.000  H
  N37      1.0000 0.54910  0.52970  0.20060  Biso   1.000  N
  N38      1.0000 0.59382  0.57660  0.29419  Biso   1.000  N
  N39      1.0000 0.57240  0.59859  0.37620  Biso   1.000  N
  N40      1.0000 0.55950  0.65170  0.26040  Biso   1.000  N
  O28      1.0000 0.50690  0.59430  0.17130  Biso   1.000  O
  H184     1.0000 0.49400  0.57630  0.17900  Biso   1.000  H
  O29      1.0000 0.52070  0.58110  0.50140  Biso   1.000  O
  H185     1.0000 0.52900  0.56200  0.51400  Biso   1.000  H
  H186     1.0000 0.49550  0.61280  0.45670  Biso   1.000  H
  H187     1.0000 0.51010  0.58070  0.48450  Biso   1.000  H
  C150     1.0000 0.54060  0.61840  0.16230  Biso   1.000  C
  H188     1.0000 0.53730  0.63190  0.13820  Biso   1.000  H
  H189     1.0000 0.56390  0.60340  0.16140  Biso   1.000  H
  O30      1.0000 0.53060  0.63200  0.49660  Biso   1.000  O
  H190     1.0000 0.51940  0.65380  0.49640  Biso   1.000  H
  C151     1.0000 0.57510  0.48090  0.28230  Biso   1.000  C
  C152     1.0000 0.60610  0.44960  0.22090  Biso   1.000  C
  C153     1.0000 0.54680  0.39360  0.09700  Biso   1.000  C
  H191     1.0000 0.52660  0.37740  0.10330  Biso   1.000  H
  C154     1.0000 0.54830  0.40860  0.05950  Biso   1.000  C
  C155     1.0000 0.57740  0.43270  0.05110  Biso   1.000  C
  H192     1.0000 0.57940  0.44320  0.02670  Biso   1.000  H
  C156     1.0000 0.60410  0.44170  0.07880  Biso   1.000  C
  H193     1.0000 0.62370  0.45890  0.07360  Biso   1.000  H
  C157     1.0000 0.60120  0.42460  0.11470  Biso   1.000  C
  H194     1.0000 0.62000  0.42970  0.13290  Biso   1.000  H
  C158     1.0000 0.55180  0.37070  0.27060  Biso   1.000  C
  H195     1.0000 0.55430  0.39720  0.26870  Biso   1.000  H
  C159     1.0000 0.54050  0.35450  0.30440  Biso   1.000  C
  C160     1.0000 0.53850  0.31580  0.30770  Biso   1.000  C
  H196     1.0000 0.53120  0.30480  0.33090  Biso   1.000  H
  C161     1.0000 0.54670  0.29400  0.27880  Biso   1.000  C
  H197     1.0000 0.54500  0.26750  0.28100  Biso   1.000  H
  C162     1.0000 0.55800  0.31090  0.24430  Biso   1.000  C
  H198     1.0000 0.56460  0.29510  0.22390  Biso   1.000  H
  C163     1.0000 0.51790  0.39670  0.02980  Biso   1.000  C
  H199     1.0000 0.52010  0.36940  0.02510  Biso   1.000  H
  H200     1.0000 0.49250  0.40160  0.03990  Biso   1.000  H
  C164     1.0000 0.52110  0.36920  0.34120  Biso   1.000  C
  H201     1.0000 0.50040  0.35240  0.34920  Biso   1.000  H
  H202     1.0000 0.53930  0.37180  0.36200  Biso   1.000  H
  N41      1.0000 0.54910  0.47030  0.29940  Biso   1.000  N
  N42      1.0000 0.59382  0.42340  0.20581  Biso   1.000  N
  N43      1.0000 0.57240  0.40141  0.12380  Biso   1.000  N
  N44      1.0000 0.55950  0.34830  0.23960  Biso   1.000  N
  O31      1.0000 0.50690  0.40570  0.32870  Biso   1.000  O
  H203     1.0000 0.49400  0.42370  0.32100  Biso   1.000  H
  O32      1.0000 0.52070  0.41890  0.99860  Biso   1.000  O
  H204     1.0000 0.52900  0.43800  0.98600  Biso   1.000  H
  H205     1.0000 0.49550  0.38720  0.04330  Biso   1.000  H
  H206     1.0000 0.51010  0.41930  0.01550  Biso   1.000  H
  C165     1.0000 0.54060  0.38160  0.33770  Biso   1.000  C
  H207     1.0000 0.53730  0.36810  0.36180  Biso   1.000  H
  H208     1.0000 0.56390  0.39660  0.33860  Biso   1.000  H
  O33      1.0000 0.53060  0.36800  0.00340  Biso   1.000  O
  H209     1.0000 0.51940  0.34620  0.00360  Biso   1.000  H
  C166     1.0000 0.07510  0.98090  0.78230  Biso   1.000  C
  C167     1.0000 0.10610  0.94960  0.72090  Biso   1.000  C
  C168     1.0000 0.04680  0.89360  0.59700  Biso   1.000  C
  H210     1.0000 0.02660  0.87740  0.60330  Biso   1.000  H
  C169     1.0000 0.04830  0.90860  0.55950  Biso   1.000  C
  C170     1.0000 0.07740  0.93270  0.55110  Biso   1.000  C
  H211     1.0000 0.07940  0.94320  0.52670  Biso   1.000  H
  C171     1.0000 0.10410  0.94170  0.57880  Biso   1.000  C
  H212     1.0000 0.12370  0.95890  0.57360  Biso   1.000  H
  C172     1.0000 0.10120  0.92460  0.61470  Biso   1.000  C
  H213     1.0000 0.12000  0.92970  0.63290  Biso   1.000  H
  C173     1.0000 0.05180  0.87070  0.77060  Biso   1.000  C
  H214     1.0000 0.05430  0.89720  0.76870  Biso   1.000  H
  C174     1.0000 0.04050  0.85450  0.80440  Biso   1.000  C
  C175     1.0000 0.03850  0.81580  0.80770  Biso   1.000  C
  H215     1.0000 0.03120  0.80480  0.83090  Biso   1.000  H
  C176     1.0000 0.04670  0.79400  0.77880  Biso   1.000  C
  H216     1.0000 0.04500  0.76750  0.78100  Biso   1.000  H
  C177     1.0000 0.05800  0.81090  0.74430  Biso   1.000  C
  H217     1.0000 0.06460  0.79510  0.72390  Biso   1.000  H
  C178     1.0000 0.01790  0.89670  0.52980  Biso   1.000  C
  H218     1.0000 0.02010  0.86940  0.52510  Biso   1.000  H
  H219     1.0000 0.99250  0.90160  0.53990  Biso   1.000  H
  C179     1.0000 0.02110  0.86920  0.84120  Biso   1.000  C
  H220     1.0000 0.00040  0.85240  0.84920  Biso   1.000  H
  H221     1.0000 0.03930  0.87180  0.86200  Biso   1.000  H
  N45      1.0000 0.04910  0.97030  0.79940  Biso   1.000  N
  N46      1.0000 0.09382  0.92340  0.70581  Biso   1.000  N
  N47      1.0000 0.07240  0.90141  0.62380  Biso   1.000  N
  N48      1.0000 0.05950  0.84830  0.73960  Biso   1.000  N
  O34      1.0000 0.00690  0.90570  0.82870  Biso   1.000  O
  H222     1.0000 0.99400  0.92370  0.82100  Biso   1.000  H
  O35      1.0000 0.02070  0.91890  0.49860  Biso   1.000  O
  H223     1.0000 0.02900  0.93800  0.48600  Biso   1.000  H
  H224     1.0000 0.99550  0.88720  0.54330  Biso   1.000  H
  H225     1.0000 0.01010  0.91930  0.51550  Biso   1.000  H
  C180     1.0000 0.04060  0.88160  0.83770  Biso   1.000  C
  H226     1.0000 0.03730  0.86810  0.86180  Biso   1.000  H
  H227     1.0000 0.06390  0.89660  0.83860  Biso   1.000  H
  O36      1.0000 0.03060  0.86800  0.50340  Biso   1.000  O
  H228     1.0000 0.01940  0.84620  0.50360  Biso   1.000  H
  C181     1.0000 0.42490  0.98090  0.21770  Biso   1.000  C
  C182     1.0000 0.39390  0.94960  0.27910  Biso   1.000  C
  C183     1.0000 0.45320  0.89360  0.40300  Biso   1.000  C
  H229     1.0000 0.47340  0.87740  0.39670  Biso   1.000  H
  C184     1.0000 0.45170  0.90860  0.44050  Biso   1.000  C
  C185     1.0000 0.42260  0.93270  0.44890  Biso   1.000  C
  H230     1.0000 0.42060  0.94320  0.47330  Biso   1.000  H
  C186     1.0000 0.39590  0.94170  0.42120  Biso   1.000  C
  H231     1.0000 0.37630  0.95890  0.42640  Biso   1.000  H
  C187     1.0000 0.39880  0.92460  0.38530  Biso   1.000  C
  H232     1.0000 0.38000  0.92970  0.36710  Biso   1.000  H
  C188     1.0000 0.44820  0.87070  0.22940  Biso   1.000  C
  H233     1.0000 0.44570  0.89720  0.23130  Biso   1.000  H
  C189     1.0000 0.45950  0.85450  0.19560  Biso   1.000  C
  C190     1.0000 0.46150  0.81580  0.19230  Biso   1.000  C
  H234     1.0000 0.46880  0.80480  0.16910  Biso   1.000  H
  C191     1.0000 0.45330  0.79400  0.22120  Biso   1.000  C
  H235     1.0000 0.45500  0.76750  0.21900  Biso   1.000  H
  C192     1.0000 0.44200  0.81090  0.25570  Biso   1.000  C
  H236     1.0000 0.43540  0.79510  0.27610  Biso   1.000  H
  C193     1.0000 0.48210  0.89670  0.47020  Biso   1.000  C
  H237     1.0000 0.47990  0.86940  0.47490  Biso   1.000  H
  H238     1.0000 0.50750  0.90160  0.46010  Biso   1.000  H
  C194     1.0000 0.47890  0.86920  0.15880  Biso   1.000  C
  H239     1.0000 0.49960  0.85240  0.15080  Biso   1.000  H
  H240     1.0000 0.46070  0.87180  0.13800  Biso   1.000  H
  N49      1.0000 0.45090  0.97030  0.20060  Biso   1.000  N
  N50      1.0000 0.40618  0.92340  0.29419  Biso   1.000  N
  N51      1.0000 0.42760  0.90141  0.37620  Biso   1.000  N
  N52      1.0000 0.44050  0.84830  0.26040  Biso   1.000  N
  O37      1.0000 0.49310  0.90570  0.17130  Biso   1.000  O
  H241     1.0000 0.50600  0.92370  0.17900  Biso   1.000  H
  O38      1.0000 0.47930  0.91890  0.50140  Biso   1.000  O
  H242     1.0000 0.47100  0.93800  0.51400  Biso   1.000  H
  H243     1.0000 0.50450  0.88720  0.45670  Biso   1.000  H
  H244     1.0000 0.48990  0.91930  0.48450  Biso   1.000  H
  C195     1.0000 0.45940  0.88160  0.16230  Biso   1.000  C
  H245     1.0000 0.46270  0.86810  0.13820  Biso   1.000  H
  H246     1.0000 0.43610  0.89660  0.16140  Biso   1.000  H
  O39      1.0000 0.46940  0.86800  0.49660  Biso   1.000  O
  H247     1.0000 0.48060  0.84620  0.49640  Biso   1.000  H
  C196     1.0000 0.92490  0.48090  0.71770  Biso   1.000  C
  C197     1.0000 0.89390  0.44960  0.77910  Biso   1.000  C
  C198     1.0000 0.95320  0.39360  0.90300  Biso   1.000  C
  H248     1.0000 0.97340  0.37740  0.89670  Biso   1.000  H
  C199     1.0000 0.95170  0.40860  0.94050  Biso   1.000  C
  C200     1.0000 0.92260  0.43270  0.94890  Biso   1.000  C
  H249     1.0000 0.92060  0.44320  0.97330  Biso   1.000  H
  C201     1.0000 0.89590  0.44170  0.92120  Biso   1.000  C
  H250     1.0000 0.87630  0.45890  0.92640  Biso   1.000  H
  C202     1.0000 0.89880  0.42460  0.88530  Biso   1.000  C
  H251     1.0000 0.88000  0.42970  0.86710  Biso   1.000  H
  C203     1.0000 0.94820  0.37070  0.72940  Biso   1.000  C
  H252     1.0000 0.94570  0.39720  0.73130  Biso   1.000  H
  C204     1.0000 0.95950  0.35450  0.69560  Biso   1.000  C
  C205     1.0000 0.96150  0.31580  0.69230  Biso   1.000  C
  H253     1.0000 0.96880  0.30480  0.66910  Biso   1.000  H
  C206     1.0000 0.95330  0.29400  0.72120  Biso   1.000  C
  H254     1.0000 0.95500  0.26750  0.71900  Biso   1.000  H
  C207     1.0000 0.94200  0.31090  0.75570  Biso   1.000  C
  H255     1.0000 0.93540  0.29510  0.77610  Biso   1.000  H
  C208     1.0000 0.98210  0.39670  0.97020  Biso   1.000  C
  H256     1.0000 0.97990  0.36940  0.97490  Biso   1.000  H
  H257     1.0000 0.00750  0.40160  0.96010  Biso   1.000  H
  C209     1.0000 0.97890  0.36920  0.65880  Biso   1.000  C
  H258     1.0000 0.99960  0.35240  0.65080  Biso   1.000  H
  H259     1.0000 0.96070  0.37180  0.63800  Biso   1.000  H
  N53      1.0000 0.95090  0.47030  0.70060  Biso   1.000  N
  N54      1.0000 0.90618  0.42340  0.79419  Biso   1.000  N
  N55      1.0000 0.92760  0.40141  0.87620  Biso   1.000  N
  N56      1.0000 0.94050  0.34830  0.76040  Biso   1.000  N
  O40      1.0000 0.99310  0.40570  0.67130  Biso   1.000  O
  H260     1.0000 0.00600  0.42370  0.67900  Biso   1.000  H
  O41      1.0000 0.97930  0.41890  0.00140  Biso   1.000  O
  H261     1.0000 0.97100  0.43800  0.01400  Biso   1.000  H
  H262     1.0000 0.00450  0.38720  0.95670  Biso   1.000  H
  H263     1.0000 0.98990  0.41930  0.98450  Biso   1.000  H
  C210     1.0000 0.95940  0.38160  0.66230  Biso   1.000  C
  H264     1.0000 0.96270  0.36810  0.63820  Biso   1.000  H
  H265     1.0000 0.93610  0.39660  0.66140  Biso   1.000  H
  O42      1.0000 0.96940  0.36800  0.99660  Biso   1.000  O
  H266     1.0000 0.98060  0.34620  0.99640  Biso   1.000  H
  C211     1.0000 0.92490  0.51910  0.78230  Biso   1.000  C
  C212     1.0000 0.89390  0.55040  0.72090  Biso   1.000  C
  C213     1.0000 0.95320  0.60640  0.59700  Biso   1.000  C
  H267     1.0000 0.97340  0.62260  0.60330  Biso   1.000  H
  C214     1.0000 0.95170  0.59140  0.55950  Biso   1.000  C
  C215     1.0000 0.92260  0.56730  0.55110  Biso   1.000  C
  H268     1.0000 0.92060  0.55680  0.52670  Biso   1.000  H
  C216     1.0000 0.89590  0.55830  0.57880  Biso   1.000  C
  H269     1.0000 0.87630  0.54110  0.57360  Biso   1.000  H
  C217     1.0000 0.89880  0.57540  0.61470  Biso   1.000  C
  H270     1.0000 0.88000  0.57030  0.63290  Biso   1.000  H
  C218     1.0000 0.94820  0.62930  0.77060  Biso   1.000  C
  H271     1.0000 0.94570  0.60280  0.76870  Biso   1.000  H
  C219     1.0000 0.95950  0.64550  0.80440  Biso   1.000  C
  C220     1.0000 0.96150  0.68420  0.80770  Biso   1.000  C
  H272     1.0000 0.96880  0.69520  0.83090  Biso   1.000  H
  C221     1.0000 0.95330  0.70600  0.77880  Biso   1.000  C
  H273     1.0000 0.95500  0.73250  0.78100  Biso   1.000  H
  C222     1.0000 0.94200  0.68910  0.74430  Biso   1.000  C
  H274     1.0000 0.93540  0.70490  0.72390  Biso   1.000  H
  C223     1.0000 0.98210  0.60330  0.52980  Biso   1.000  C
  H275     1.0000 0.97990  0.63060  0.52510  Biso   1.000  H
  H276     1.0000 0.00750  0.59840  0.53990  Biso   1.000  H
  C224     1.0000 0.97890  0.63080  0.84120  Biso   1.000  C
  H277     1.0000 0.99960  0.64760  0.84920  Biso   1.000  H
  H278     1.0000 0.96070  0.62820  0.86200  Biso   1.000  H
  N57      1.0000 0.95090  0.52970  0.79940  Biso   1.000  N
  N58      1.0000 0.90618  0.57660  0.70581  Biso   1.000  N
  N59      1.0000 0.92760  0.59859  0.62380  Biso   1.000  N
  N60      1.0000 0.94050  0.65170  0.73960  Biso   1.000  N
  O43      1.0000 0.99310  0.59430  0.82870  Biso   1.000  O
  H279     1.0000 0.00600  0.57630  0.82100  Biso   1.000  H
  O44      1.0000 0.97930  0.58110  0.49860  Biso   1.000  O
  H280     1.0000 0.97100  0.56200  0.48600  Biso   1.000  H
  H281     1.0000 0.00450  0.61280  0.54330  Biso   1.000  H
  H282     1.0000 0.98990  0.58070  0.51550  Biso   1.000  H
  C225     1.0000 0.95940  0.61840  0.83770  Biso   1.000  C
  H283     1.0000 0.96270  0.63190  0.86180  Biso   1.000  H
  H284     1.0000 0.93610  0.60340  0.83860  Biso   1.000  H
  O45      1.0000 0.96940  0.63200  0.50340  Biso   1.000  O
  H285     1.0000 0.98060  0.65380  0.50360  Biso   1.000  H
  C226     1.0000 0.42490  0.01910  0.28230  Biso   1.000  C
  C227     1.0000 0.39390  0.05040  0.22090  Biso   1.000  C
  C228     1.0000 0.45320  0.10640  0.09700  Biso   1.000  C
  H286     1.0000 0.47340  0.12260  0.10330  Biso   1.000  H
  C229     1.0000 0.45170  0.09140  0.05950  Biso   1.000  C
  C230     1.0000 0.42260  0.06730  0.05110  Biso   1.000  C
  H287     1.0000 0.42060  0.05680  0.02670  Biso   1.000  H
  C231     1.0000 0.39590  0.05830  0.07880  Biso   1.000  C
  H288     1.0000 0.37630  0.04110  0.07360  Biso   1.000  H
  C232     1.0000 0.39880  0.07540  0.11470  Biso   1.000  C
  H289     1.0000 0.38000  0.07030  0.13290  Biso   1.000  H
  C233     1.0000 0.44820  0.12930  0.27060  Biso   1.000  C
  H290     1.0000 0.44570  0.10280  0.26870  Biso   1.000  H
  C234     1.0000 0.45950  0.14550  0.30440  Biso   1.000  C
  C235     1.0000 0.46150  0.18420  0.30770  Biso   1.000  C
  H291     1.0000 0.46880  0.19520  0.33090  Biso   1.000  H
  C236     1.0000 0.45330  0.20600  0.27880  Biso   1.000  C
  H292     1.0000 0.45500  0.23250  0.28100  Biso   1.000  H
  C237     1.0000 0.44200  0.18910  0.24430  Biso   1.000  C
  H293     1.0000 0.43540  0.20490  0.22390  Biso   1.000  H
  C238     1.0000 0.48210  0.10330  0.02980  Biso   1.000  C
  H294     1.0000 0.47990  0.13060  0.02510  Biso   1.000  H
  H295     1.0000 0.50750  0.09840  0.03990  Biso   1.000  H
  C239     1.0000 0.47890  0.13080  0.34120  Biso   1.000  C
  H296     1.0000 0.49960  0.14760  0.34920  Biso   1.000  H
  H297     1.0000 0.46070  0.12820  0.36200  Biso   1.000  H
  N61      1.0000 0.45090  0.02970  0.29940  Biso   1.000  N
  N62      1.0000 0.40618  0.07660  0.20581  Biso   1.000  N
  N63      1.0000 0.42760  0.09859  0.12380  Biso   1.000  N
  N64      1.0000 0.44050  0.15170  0.23960  Biso   1.000  N
  O46      1.0000 0.49310  0.09430  0.32870  Biso   1.000  O
  H298     1.0000 0.50600  0.07630  0.32100  Biso   1.000  H
  O47      1.0000 0.47930  0.08110  0.99860  Biso   1.000  O
  H299     1.0000 0.47100  0.06200  0.98600  Biso   1.000  H
  H300     1.0000 0.50450  0.11280  0.04330  Biso   1.000  H
  H301     1.0000 0.48990  0.08070  0.01550  Biso   1.000  H
  C240     1.0000 0.45940  0.11840  0.33770  Biso   1.000  C
  H302     1.0000 0.46270  0.13190  0.36180  Biso   1.000  H
  H303     1.0000 0.43610  0.10340  0.33860  Biso   1.000  H
  O48      1.0000 0.46940  0.13200  0.00340  Biso   1.000  O
  H304     1.0000 0.48060  0.15380  0.00360  Biso   1.000  H
  C241     1.0000 0.71770  0.07510  0.01910  Biso   1.000  C
  C242     1.0000 0.77910  0.10610  0.05040  Biso   1.000  C
  C243     1.0000 0.90300  0.04680  0.10640  Biso   1.000  C
  H305     1.0000 0.89670  0.02660  0.12260  Biso   1.000  H
  C244     1.0000 0.94050  0.04830  0.09140  Biso   1.000  C
  C245     1.0000 0.94890  0.07740  0.06730  Biso   1.000  C
  H306     1.0000 0.97330  0.07940  0.05680  Biso   1.000  H
  C246     1.0000 0.92120  0.10410  0.05830  Biso   1.000  C
  H307     1.0000 0.92640  0.12370  0.04110  Biso   1.000  H
  C247     1.0000 0.88530  0.10120  0.07540  Biso   1.000  C
  H308     1.0000 0.86710  0.12000  0.07030  Biso   1.000  H
  C248     1.0000 0.72940  0.05180  0.12930  Biso   1.000  C
  H309     1.0000 0.73130  0.05430  0.10280  Biso   1.000  H
  C249     1.0000 0.69560  0.04050  0.14550  Biso   1.000  C
  C250     1.0000 0.69230  0.03850  0.18420  Biso   1.000  C
  H310     1.0000 0.66910  0.03120  0.19520  Biso   1.000  H
  C251     1.0000 0.72120  0.04670  0.20600  Biso   1.000  C
  H311     1.0000 0.71900  0.04500  0.23250  Biso   1.000  H
  C252     1.0000 0.75570  0.05800  0.18910  Biso   1.000  C
  H312     1.0000 0.77610  0.06460  0.20490  Biso   1.000  H
  C253     1.0000 0.97020  0.01790  0.10330  Biso   1.000  C
  H313     1.0000 0.97490  0.02010  0.13060  Biso   1.000  H
  H314     1.0000 0.96010  0.99250  0.09840  Biso   1.000  H
  C254     1.0000 0.65880  0.02110  0.13080  Biso   1.000  C
  H315     1.0000 0.65080  0.00040  0.14760  Biso   1.000  H
  H316     1.0000 0.63800  0.03930  0.12820  Biso   1.000  H
  N65      1.0000 0.70060  0.04910  0.02970  Biso   1.000  N
  N66      1.0000 0.79419  0.09382  0.07660  Biso   1.000  N
  N67      1.0000 0.87620  0.07240  0.09859  Biso   1.000  N
  N68      1.0000 0.76040  0.05950  0.15170  Biso   1.000  N
  O49      1.0000 0.67130  0.00690  0.09430  Biso   1.000  O
  H317     1.0000 0.67900  0.99400  0.07630  Biso   1.000  H
  O50      1.0000 0.00140  0.02070  0.08110  Biso   1.000  O
  H318     1.0000 0.01400  0.02900  0.06200  Biso   1.000  H
  H319     1.0000 0.95670  0.99550  0.11280  Biso   1.000  H
  H320     1.0000 0.98450  0.01010  0.08070  Biso   1.000  H
  C255     1.0000 0.66230  0.04060  0.11840  Biso   1.000  C
  H321     1.0000 0.63820  0.03730  0.13190  Biso   1.000  H
  H322     1.0000 0.66140  0.06390  0.10340  Biso   1.000  H
  O51      1.0000 0.99660  0.03060  0.13200  Biso   1.000  O
  H323     1.0000 0.99640  0.01940  0.15380  Biso   1.000  H
  C256     1.0000 0.21770  0.57510  0.51910  Biso   1.000  C
  C257     1.0000 0.27910  0.60610  0.55040  Biso   1.000  C
  C258     1.0000 0.40300  0.54680  0.60640  Biso   1.000  C
  H324     1.0000 0.39670  0.52660  0.62260  Biso   1.000  H
  C259     1.0000 0.44050  0.54830  0.59140  Biso   1.000  C
  C260     1.0000 0.44890  0.57740  0.56730  Biso   1.000  C
  H325     1.0000 0.47330  0.57940  0.55680  Biso   1.000  H
  C261     1.0000 0.42120  0.60410  0.55830  Biso   1.000  C
  H326     1.0000 0.42640  0.62370  0.54110  Biso   1.000  H
  C262     1.0000 0.38530  0.60120  0.57540  Biso   1.000  C
  H327     1.0000 0.36710  0.62000  0.57030  Biso   1.000  H
  C263     1.0000 0.22940  0.55180  0.62930  Biso   1.000  C
  H328     1.0000 0.23130  0.55430  0.60280  Biso   1.000  H
  C264     1.0000 0.19560  0.54050  0.64550  Biso   1.000  C
  C265     1.0000 0.19230  0.53850  0.68420  Biso   1.000  C
  H329     1.0000 0.16910  0.53120  0.69520  Biso   1.000  H
  C266     1.0000 0.22120  0.54670  0.70600  Biso   1.000  C
  H330     1.0000 0.21900  0.54500  0.73250  Biso   1.000  H
  C267     1.0000 0.25570  0.55800  0.68910  Biso   1.000  C
  H331     1.0000 0.27610  0.56460  0.70490  Biso   1.000  H
  C268     1.0000 0.47020  0.51790  0.60330  Biso   1.000  C
  H332     1.0000 0.47490  0.52010  0.63060  Biso   1.000  H
  H333     1.0000 0.46010  0.49250  0.59840  Biso   1.000  H
  C269     1.0000 0.15880  0.52110  0.63080  Biso   1.000  C
  H334     1.0000 0.15080  0.50040  0.64760  Biso   1.000  H
  H335     1.0000 0.13800  0.53930  0.62820  Biso   1.000  H
  N69      1.0000 0.20060  0.54910  0.52970  Biso   1.000  N
  N70      1.0000 0.29419  0.59382  0.57660  Biso   1.000  N
  N71      1.0000 0.37620  0.57240  0.59859  Biso   1.000  N
  N72      1.0000 0.26040  0.55950  0.65170  Biso   1.000  N
  O52      1.0000 0.17130  0.50690  0.59430  Biso   1.000  O
  H336     1.0000 0.17900  0.49400  0.57630  Biso   1.000  H
  O53      1.0000 0.50140  0.52070  0.58110  Biso   1.000  O
  H337     1.0000 0.51400  0.52900  0.56200  Biso   1.000  H
  H338     1.0000 0.45670  0.49550  0.61280  Biso   1.000  H
  H339     1.0000 0.48450  0.51010  0.58070  Biso   1.000  H
  C270     1.0000 0.16230  0.54060  0.61840  Biso   1.000  C
  H340     1.0000 0.13820  0.53730  0.63190  Biso   1.000  H
  H341     1.0000 0.16140  0.56390  0.60340  Biso   1.000  H
  O54      1.0000 0.49660  0.53060  0.63200  Biso   1.000  O
  H342     1.0000 0.49640  0.51940  0.65380  Biso   1.000  H
  C271     1.0000 0.28230  0.57510  0.48090  Biso   1.000  C
  C272     1.0000 0.22090  0.60610  0.44960  Biso   1.000  C
  C273     1.0000 0.09700  0.54680  0.39360  Biso   1.000  C
  H343     1.0000 0.10330  0.52660  0.37740  Biso   1.000  H
  C274     1.0000 0.05950  0.54830  0.40860  Biso   1.000  C
  C275     1.0000 0.05110  0.57740  0.43270  Biso   1.000  C
  H344     1.0000 0.02670  0.57940  0.44320  Biso   1.000  H
  C276     1.0000 0.07880  0.60410  0.44170  Biso   1.000  C
  H345     1.0000 0.07360  0.62370  0.45890  Biso   1.000  H
  C277     1.0000 0.11470  0.60120  0.42460  Biso   1.000  C
  H346     1.0000 0.13290  0.62000  0.42970  Biso   1.000  H
  C278     1.0000 0.27060  0.55180  0.37070  Biso   1.000  C
  H347     1.0000 0.26870  0.55430  0.39720  Biso   1.000  H
  C279     1.0000 0.30440  0.54050  0.35450  Biso   1.000  C
  C280     1.0000 0.30770  0.53850  0.31580  Biso   1.000  C
  H348     1.0000 0.33090  0.53120  0.30480  Biso   1.000  H
  C281     1.0000 0.27880  0.54670  0.29400  Biso   1.000  C
  H349     1.0000 0.28100  0.54500  0.26750  Biso   1.000  H
  C282     1.0000 0.24430  0.55800  0.31090  Biso   1.000  C
  H350     1.0000 0.22390  0.56460  0.29510  Biso   1.000  H
  C283     1.0000 0.02980  0.51790  0.39670  Biso   1.000  C
  H351     1.0000 0.02510  0.52010  0.36940  Biso   1.000  H
  H352     1.0000 0.03990  0.49250  0.40160  Biso   1.000  H
  C284     1.0000 0.34120  0.52110  0.36920  Biso   1.000  C
  H353     1.0000 0.34920  0.50040  0.35240  Biso   1.000  H
  H354     1.0000 0.36200  0.53930  0.37180  Biso   1.000  H
  N73      1.0000 0.29940  0.54910  0.47030  Biso   1.000  N
  N74      1.0000 0.20581  0.59382  0.42340  Biso   1.000  N
  N75      1.0000 0.12380  0.57240  0.40141  Biso   1.000  N
  N76      1.0000 0.23960  0.55950  0.34830  Biso   1.000  N
  O55      1.0000 0.32870  0.50690  0.40570  Biso   1.000  O
  H355     1.0000 0.32100  0.49400  0.42370  Biso   1.000  H
  O56      1.0000 0.99860  0.52070  0.41890  Biso   1.000  O
  H356     1.0000 0.98600  0.52900  0.43800  Biso   1.000  H
  H357     1.0000 0.04330  0.49550  0.38720  Biso   1.000  H
  H358     1.0000 0.01550  0.51010  0.41930  Biso   1.000  H
  C285     1.0000 0.33770  0.54060  0.38160  Biso   1.000  C
  H359     1.0000 0.36180  0.53730  0.36810  Biso   1.000  H
  H360     1.0000 0.33860  0.56390  0.39660  Biso   1.000  H
  O57      1.0000 0.00340  0.53060  0.36800  Biso   1.000  O
  H361     1.0000 0.00360  0.51940  0.34620  Biso   1.000  H
  C286     1.0000 0.78230  0.07510  0.98090  Biso   1.000  C
  C287     1.0000 0.72090  0.10610  0.94960  Biso   1.000  C
  C288     1.0000 0.59700  0.04680  0.89360  Biso   1.000  C
  H362     1.0000 0.60330  0.02660  0.87740  Biso   1.000  H
  C289     1.0000 0.55950  0.04830  0.90860  Biso   1.000  C
  C290     1.0000 0.55110  0.07740  0.93270  Biso   1.000  C
  H363     1.0000 0.52670  0.07940  0.94320  Biso   1.000  H
  C291     1.0000 0.57880  0.10410  0.94170  Biso   1.000  C
  H364     1.0000 0.57360  0.12370  0.95890  Biso   1.000  H
  C292     1.0000 0.61470  0.10120  0.92460  Biso   1.000  C
  H365     1.0000 0.63290  0.12000  0.92970  Biso   1.000  H
  C293     1.0000 0.77060  0.05180  0.87070  Biso   1.000  C
  H366     1.0000 0.76870  0.05430  0.89720  Biso   1.000  H
  C294     1.0000 0.80440  0.04050  0.85450  Biso   1.000  C
  C295     1.0000 0.80770  0.03850  0.81580  Biso   1.000  C
  H367     1.0000 0.83090  0.03120  0.80480  Biso   1.000  H
  C296     1.0000 0.77880  0.04670  0.79400  Biso   1.000  C
  H368     1.0000 0.78100  0.04500  0.76750  Biso   1.000  H
  C297     1.0000 0.74430  0.05800  0.81090  Biso   1.000  C
  H369     1.0000 0.72390  0.06460  0.79510  Biso   1.000  H
  C298     1.0000 0.52980  0.01790  0.89670  Biso   1.000  C
  H370     1.0000 0.52510  0.02010  0.86940  Biso   1.000  H
  H371     1.0000 0.53990  0.99250  0.90160  Biso   1.000  H
  C299     1.0000 0.84120  0.02110  0.86920  Biso   1.000  C
  H372     1.0000 0.84920  0.00040  0.85240  Biso   1.000  H
  H373     1.0000 0.86200  0.03930  0.87180  Biso   1.000  H
  N77      1.0000 0.79940  0.04910  0.97030  Biso   1.000  N
  N78      1.0000 0.70581  0.09382  0.92340  Biso   1.000  N
  N79      1.0000 0.62380  0.07240  0.90141  Biso   1.000  N
  N80      1.0000 0.73960  0.05950  0.84830  Biso   1.000  N
  O58      1.0000 0.82870  0.00690  0.90570  Biso   1.000  O
  H374     1.0000 0.82100  0.99400  0.92370  Biso   1.000  H
  O59      1.0000 0.49860  0.02070  0.91890  Biso   1.000  O
  H375     1.0000 0.48600  0.02900  0.93800  Biso   1.000  H
  H376     1.0000 0.54330  0.99550  0.88720  Biso   1.000  H
  H377     1.0000 0.51550  0.01010  0.91930  Biso   1.000  H
  C300     1.0000 0.83770  0.04060  0.88160  Biso   1.000  C
  H378     1.0000 0.86180  0.03730  0.86810  Biso   1.000  H
  H379     1.0000 0.83860  0.06390  0.89660  Biso   1.000  H
  O60      1.0000 0.50340  0.03060  0.86800  Biso   1.000  O
  H380     1.0000 0.50360  0.01940  0.84620  Biso   1.000  H
  C301     1.0000 0.21770  0.42490  0.98090  Biso   1.000  C
  C302     1.0000 0.27910  0.39390  0.94960  Biso   1.000  C
  C303     1.0000 0.40300  0.45320  0.89360  Biso   1.000  C
  H381     1.0000 0.39670  0.47340  0.87740  Biso   1.000  H
  C304     1.0000 0.44050  0.45170  0.90860  Biso   1.000  C
  C305     1.0000 0.44890  0.42260  0.93270  Biso   1.000  C
  H382     1.0000 0.47330  0.42060  0.94320  Biso   1.000  H
  C306     1.0000 0.42120  0.39590  0.94170  Biso   1.000  C
  H383     1.0000 0.42640  0.37630  0.95890  Biso   1.000  H
  C307     1.0000 0.38530  0.39880  0.92460  Biso   1.000  C
  H384     1.0000 0.36710  0.38000  0.92970  Biso   1.000  H
  C308     1.0000 0.22940  0.44820  0.87070  Biso   1.000  C
  H385     1.0000 0.23130  0.44570  0.89720  Biso   1.000  H
  C309     1.0000 0.19560  0.45950  0.85450  Biso   1.000  C
  C310     1.0000 0.19230  0.46150  0.81580  Biso   1.000  C
  H386     1.0000 0.16910  0.46880  0.80480  Biso   1.000  H
  C311     1.0000 0.22120  0.45330  0.79400  Biso   1.000  C
  H387     1.0000 0.21900  0.45500  0.76750  Biso   1.000  H
  C312     1.0000 0.25570  0.44200  0.81090  Biso   1.000  C
  H388     1.0000 0.27610  0.43540  0.79510  Biso   1.000  H
  C313     1.0000 0.47020  0.48210  0.89670  Biso   1.000  C
  H389     1.0000 0.47490  0.47990  0.86940  Biso   1.000  H
  H390     1.0000 0.46010  0.50750  0.90160  Biso   1.000  H
  C314     1.0000 0.15880  0.47890  0.86920  Biso   1.000  C
  H391     1.0000 0.15080  0.49960  0.85240  Biso   1.000  H
  H392     1.0000 0.13800  0.46070  0.87180  Biso   1.000  H
  N81      1.0000 0.20060  0.45090  0.97030  Biso   1.000  N
  N82      1.0000 0.29419  0.40618  0.92340  Biso   1.000  N
  N83      1.0000 0.37620  0.42760  0.90141  Biso   1.000  N
  N84      1.0000 0.26040  0.44050  0.84830  Biso   1.000  N
  O61      1.0000 0.17130  0.49310  0.90570  Biso   1.000  O
  H393     1.0000 0.17900  0.50600  0.92370  Biso   1.000  H
  O62      1.0000 0.50140  0.47930  0.91890  Biso   1.000  O
  H394     1.0000 0.51400  0.47100  0.93800  Biso   1.000  H
  H395     1.0000 0.45670  0.50450  0.88720  Biso   1.000  H
  H396     1.0000 0.48450  0.48990  0.91930  Biso   1.000  H
  C315     1.0000 0.16230  0.45940  0.88160  Biso   1.000  C
  H397     1.0000 0.13820  0.46270  0.86810  Biso   1.000  H
  H398     1.0000 0.16140  0.43610  0.89660  Biso   1.000  H
  O63      1.0000 0.49660  0.46940  0.86800  Biso   1.000  O
  H399     1.0000 0.49640  0.48060  0.84620  Biso   1.000  H
  C316     1.0000 0.71770  0.92490  0.48090  Biso   1.000  C
  C317     1.0000 0.77910  0.89390  0.44960  Biso   1.000  C
  C318     1.0000 0.90300  0.95320  0.39360  Biso   1.000  C
  H400     1.0000 0.89670  0.97340  0.37740  Biso   1.000  H
  C319     1.0000 0.94050  0.95170  0.40860  Biso   1.000  C
  C320     1.0000 0.94890  0.92260  0.43270  Biso   1.000  C
  H401     1.0000 0.97330  0.92060  0.44320  Biso   1.000  H
  C321     1.0000 0.92120  0.89590  0.44170  Biso   1.000  C
  H402     1.0000 0.92640  0.87630  0.45890  Biso   1.000  H
  C322     1.0000 0.88530  0.89880  0.42460  Biso   1.000  C
  H403     1.0000 0.86710  0.88000  0.42970  Biso   1.000  H
  C323     1.0000 0.72940  0.94820  0.37070  Biso   1.000  C
  H404     1.0000 0.73130  0.94570  0.39720  Biso   1.000  H
  C324     1.0000 0.69560  0.95950  0.35450  Biso   1.000  C
  C325     1.0000 0.69230  0.96150  0.31580  Biso   1.000  C
  H405     1.0000 0.66910  0.96880  0.30480  Biso   1.000  H
  C326     1.0000 0.72120  0.95330  0.29400  Biso   1.000  C
  H406     1.0000 0.71900  0.95500  0.26750  Biso   1.000  H
  C327     1.0000 0.75570  0.94200  0.31090  Biso   1.000  C
  H407     1.0000 0.77610  0.93540  0.29510  Biso   1.000  H
  C328     1.0000 0.97020  0.98210  0.39670  Biso   1.000  C
  H408     1.0000 0.97490  0.97990  0.36940  Biso   1.000  H
  H409     1.0000 0.96010  0.00750  0.40160  Biso   1.000  H
  C329     1.0000 0.65880  0.97890  0.36920  Biso   1.000  C
  H410     1.0000 0.65080  0.99960  0.35240  Biso   1.000  H
  H411     1.0000 0.63800  0.96070  0.37180  Biso   1.000  H
  N85      1.0000 0.70060  0.95090  0.47030  Biso   1.000  N
  N86      1.0000 0.79419  0.90618  0.42340  Biso   1.000  N
  N87      1.0000 0.87620  0.92760  0.40141  Biso   1.000  N
  N88      1.0000 0.76040  0.94050  0.34830  Biso   1.000  N
  O64      1.0000 0.67130  0.99310  0.40570  Biso   1.000  O
  H412     1.0000 0.67900  0.00600  0.42370  Biso   1.000  H
  O65      1.0000 0.00140  0.97930  0.41890  Biso   1.000  O
  H413     1.0000 0.01400  0.97100  0.43800  Biso   1.000  H
  H414     1.0000 0.95670  0.00450  0.38720  Biso   1.000  H
  H415     1.0000 0.98450  0.98990  0.41930  Biso   1.000  H
  C330     1.0000 0.66230  0.95940  0.38160  Biso   1.000  C
  H416     1.0000 0.63820  0.96270  0.36810  Biso   1.000  H
  H417     1.0000 0.66140  0.93610  0.39660  Biso   1.000  H
  O66      1.0000 0.99660  0.96940  0.36800  Biso   1.000  O
  H418     1.0000 0.99640  0.98060  0.34620  Biso   1.000  H
  C331     1.0000 0.78230  0.92490  0.51910  Biso   1.000  C
  C332     1.0000 0.72090  0.89390  0.55040  Biso   1.000  C
  C333     1.0000 0.59700  0.95320  0.60640  Biso   1.000  C
  H419     1.0000 0.60330  0.97340  0.62260  Biso   1.000  H
  C334     1.0000 0.55950  0.95170  0.59140  Biso   1.000  C
  C335     1.0000 0.55110  0.92260  0.56730  Biso   1.000  C
  H420     1.0000 0.52670  0.92060  0.55680  Biso   1.000  H
  C336     1.0000 0.57880  0.89590  0.55830  Biso   1.000  C
  H421     1.0000 0.57360  0.87630  0.54110  Biso   1.000  H
  C337     1.0000 0.61470  0.89880  0.57540  Biso   1.000  C
  H422     1.0000 0.63290  0.88000  0.57030  Biso   1.000  H
  C338     1.0000 0.77060  0.94820  0.62930  Biso   1.000  C
  H423     1.0000 0.76870  0.94570  0.60280  Biso   1.000  H
  C339     1.0000 0.80440  0.95950  0.64550  Biso   1.000  C
  C340     1.0000 0.80770  0.96150  0.68420  Biso   1.000  C
  H424     1.0000 0.83090  0.96880  0.69520  Biso   1.000  H
  C341     1.0000 0.77880  0.95330  0.70600  Biso   1.000  C
  H425     1.0000 0.78100  0.95500  0.73250  Biso   1.000  H
  C342     1.0000 0.74430  0.94200  0.68910  Biso   1.000  C
  H426     1.0000 0.72390  0.93540  0.70490  Biso   1.000  H
  C343     1.0000 0.52980  0.98210  0.60330  Biso   1.000  C
  H427     1.0000 0.52510  0.97990  0.63060  Biso   1.000  H
  H428     1.0000 0.53990  0.00750  0.59840  Biso   1.000  H
  C344     1.0000 0.84120  0.97890  0.63080  Biso   1.000  C
  H429     1.0000 0.84920  0.99960  0.64760  Biso   1.000  H
  H430     1.0000 0.86200  0.96070  0.62820  Biso   1.000  H
  N89      1.0000 0.79940  0.95090  0.52970  Biso   1.000  N
  N90      1.0000 0.70581  0.90618  0.57660  Biso   1.000  N
  N91      1.0000 0.62380  0.92760  0.59859  Biso   1.000  N
  N92      1.0000 0.73960  0.94050  0.65170  Biso   1.000  N
  O67      1.0000 0.82870  0.99310  0.59430  Biso   1.000  O
  H431     1.0000 0.82100  0.00600  0.57630  Biso   1.000  H
  O68      1.0000 0.49860  0.97930  0.58110  Biso   1.000  O
  H432     1.0000 0.48600  0.97100  0.56200  Biso   1.000  H
  H433     1.0000 0.54330  0.00450  0.61280  Biso   1.000  H
  H434     1.0000 0.51550  0.98990  0.58070  Biso   1.000  H
  C345     1.0000 0.83770  0.95940  0.61840  Biso   1.000  C
  H435     1.0000 0.86180  0.96270  0.63190  Biso   1.000  H
  H436     1.0000 0.83860  0.93610  0.60340  Biso   1.000  H
  O69      1.0000 0.50340  0.96940  0.63200  Biso   1.000  O
  H437     1.0000 0.50360  0.98060  0.65380  Biso   1.000  H
  C346     1.0000 0.28230  0.42490  0.01910  Biso   1.000  C
  C347     1.0000 0.22090  0.39390  0.05040  Biso   1.000  C
  C348     1.0000 0.09700  0.45320  0.10640  Biso   1.000  C
  H438     1.0000 0.10330  0.47340  0.12260  Biso   1.000  H
  C349     1.0000 0.05950  0.45170  0.09140  Biso   1.000  C
  C350     1.0000 0.05110  0.42260  0.06730  Biso   1.000  C
  H439     1.0000 0.02670  0.42060  0.05680  Biso   1.000  H
  C351     1.0000 0.07880  0.39590  0.05830  Biso   1.000  C
  H440     1.0000 0.07360  0.37630  0.04110  Biso   1.000  H
  C352     1.0000 0.11470  0.39880  0.07540  Biso   1.000  C
  H441     1.0000 0.13290  0.38000  0.07030  Biso   1.000  H
  C353     1.0000 0.27060  0.44820  0.12930  Biso   1.000  C
  H442     1.0000 0.26870  0.44570  0.10280  Biso   1.000  H
  C354     1.0000 0.30440  0.45950  0.14550  Biso   1.000  C
  C355     1.0000 0.30770  0.46150  0.18420  Biso   1.000  C
  H443     1.0000 0.33090  0.46880  0.19520  Biso   1.000  H
  C356     1.0000 0.27880  0.45330  0.20600  Biso   1.000  C
  H444     1.0000 0.28100  0.45500  0.23250  Biso   1.000  H
  C357     1.0000 0.24430  0.44200  0.18910  Biso   1.000  C
  H445     1.0000 0.22390  0.43540  0.20490  Biso   1.000  H
  C358     1.0000 0.02980  0.48210  0.10330  Biso   1.000  C
  H446     1.0000 0.02510  0.47990  0.13060  Biso   1.000  H
  H447     1.0000 0.03990  0.50750  0.09840  Biso   1.000  H
  C359     1.0000 0.34120  0.47890  0.13080  Biso   1.000  C
  H448     1.0000 0.34920  0.49960  0.14760  Biso   1.000  H
  H449     1.0000 0.36200  0.46070  0.12820  Biso   1.000  H
  N93      1.0000 0.29940  0.45090  0.02970  Biso   1.000  N
  N94      1.0000 0.20581  0.40618  0.07660  Biso   1.000  N
  N95      1.0000 0.12380  0.42760  0.09859  Biso   1.000  N
  N96      1.0000 0.23960  0.44050  0.15170  Biso   1.000  N
  O70      1.0000 0.32870  0.49310  0.09430  Biso   1.000  O
  H450     1.0000 0.32100  0.50600  0.07630  Biso   1.000  H
  O71      1.0000 0.99860  0.47930  0.08110  Biso   1.000  O
  H451     1.0000 0.98600  0.47100  0.06200  Biso   1.000  H
  H452     1.0000 0.04330  0.50450  0.11280  Biso   1.000  H
  H453     1.0000 0.01550  0.48990  0.08070  Biso   1.000  H
  C360     1.0000 0.33770  0.45940  0.11840  Biso   1.000  C
  H454     1.0000 0.36180  0.46270  0.13190  Biso   1.000  H
  H455     1.0000 0.33860  0.43610  0.10340  Biso   1.000  H
  O72      1.0000 0.00340  0.46940  0.13200  Biso   1.000  O
  H456     1.0000 0.00360  0.48060  0.15380  Biso   1.000  H
  C361     1.0000 0.46770  0.26910  0.17490  Biso   1.000  C
  C362     1.0000 0.52910  0.30040  0.14390  Biso   1.000  C
  C363     1.0000 0.65300  0.35640  0.20320  Biso   1.000  C
  H457     1.0000 0.64670  0.37260  0.22340  Biso   1.000  H
  C364     1.0000 0.69050  0.34140  0.20170  Biso   1.000  C
  C365     1.0000 0.69890  0.31730  0.17260  Biso   1.000  C
  H458     1.0000 0.72330  0.30680  0.17060  Biso   1.000  H
  C366     1.0000 0.67120  0.30830  0.14590  Biso   1.000  C
  H459     1.0000 0.67640  0.29110  0.12630  Biso   1.000  H
  C367     1.0000 0.63530  0.32540  0.14880  Biso   1.000  C
  H460     1.0000 0.61710  0.32030  0.13000  Biso   1.000  H
  C368     1.0000 0.47940  0.37930  0.19820  Biso   1.000  C
  H461     1.0000 0.48130  0.35280  0.19570  Biso   1.000  H
  C369     1.0000 0.44560  0.39550  0.20950  Biso   1.000  C
  C370     1.0000 0.44230  0.43420  0.21150  Biso   1.000  C
  H462     1.0000 0.41910  0.44520  0.21880  Biso   1.000  H
  C371     1.0000 0.47120  0.45600  0.20330  Biso   1.000  C
  H463     1.0000 0.46900  0.48250  0.20500  Biso   1.000  H
  C372     1.0000 0.50570  0.43910  0.19200  Biso   1.000  C
  H464     1.0000 0.52610  0.45490  0.18540  Biso   1.000  H
  C373     1.0000 0.72020  0.35330  0.23210  Biso   1.000  C
  H465     1.0000 0.72490  0.38060  0.22990  Biso   1.000  H
  H466     1.0000 0.71010  0.34840  0.25750  Biso   1.000  H
  C374     1.0000 0.40880  0.38080  0.22890  Biso   1.000  C
  H467     1.0000 0.40080  0.39760  0.24960  Biso   1.000  H
  H468     1.0000 0.38800  0.37820  0.21070  Biso   1.000  H
  N97      1.0000 0.45060  0.27970  0.20090  Biso   1.000  N
  N98      1.0000 0.54419  0.32660  0.15618  Biso   1.000  N
  N99      1.0000 0.62620  0.34859  0.17760  Biso   1.000  N
  N100     1.0000 0.51040  0.40170  0.19050  Biso   1.000  N
  O73      1.0000 0.42130  0.34430  0.24310  Biso   1.000  O
  H469     1.0000 0.42900  0.32630  0.25600  Biso   1.000  H
  O74      1.0000 0.75140  0.33110  0.22930  Biso   1.000  O
  H470     1.0000 0.76400  0.31200  0.22100  Biso   1.000  H
  H471     1.0000 0.70670  0.36280  0.25450  Biso   1.000  H
  H472     1.0000 0.73450  0.33070  0.23990  Biso   1.000  H
  C375     1.0000 0.41230  0.36840  0.20940  Biso   1.000  C
  H473     1.0000 0.38820  0.38190  0.21270  Biso   1.000  H
  H474     1.0000 0.41140  0.35340  0.18610  Biso   1.000  H
  O75      1.0000 0.74660  0.38200  0.21940  Biso   1.000  O
  H475     1.0000 0.74640  0.40380  0.23060  Biso   1.000  H
  C376     1.0000 0.96770  0.76910  0.67490  Biso   1.000  C
  C377     1.0000 0.02910  0.80040  0.64390  Biso   1.000  C
  C378     1.0000 0.15300  0.85640  0.70320  Biso   1.000  C
  H476     1.0000 0.14670  0.87260  0.72340  Biso   1.000  H
  C379     1.0000 0.19050  0.84140  0.70170  Biso   1.000  C
  C380     1.0000 0.19890  0.81730  0.67260  Biso   1.000  C
  H477     1.0000 0.22330  0.80680  0.67060  Biso   1.000  H
  C381     1.0000 0.17120  0.80830  0.64590  Biso   1.000  C
  H478     1.0000 0.17640  0.79110  0.62630  Biso   1.000  H
  C382     1.0000 0.13530  0.82540  0.64880  Biso   1.000  C
  H479     1.0000 0.11710  0.82030  0.63000  Biso   1.000  H
  C383     1.0000 0.97940  0.87930  0.69820  Biso   1.000  C
  H480     1.0000 0.98130  0.85280  0.69570  Biso   1.000  H
  C384     1.0000 0.94560  0.89550  0.70950  Biso   1.000  C
  C385     1.0000 0.94230  0.93420  0.71150  Biso   1.000  C
  H481     1.0000 0.91910  0.94520  0.71880  Biso   1.000  H
  C386     1.0000 0.97120  0.95600  0.70330  Biso   1.000  C
  H482     1.0000 0.96900  0.98250  0.70500  Biso   1.000  H
  C387     1.0000 0.00570  0.93910  0.69200  Biso   1.000  C
  H483     1.0000 0.02610  0.95490  0.68540  Biso   1.000  H
  C388     1.0000 0.22020  0.85330  0.73210  Biso   1.000  C
  H484     1.0000 0.22490  0.88060  0.72990  Biso   1.000  H
  H485     1.0000 0.21010  0.84840  0.75750  Biso   1.000  H
  C389     1.0000 0.90880  0.88080  0.72890  Biso   1.000  C
  H486     1.0000 0.90080  0.89760  0.74960  Biso   1.000  H
  H487     1.0000 0.88800  0.87820  0.71070  Biso   1.000  H
  N101     1.0000 0.95060  0.77970  0.70090  Biso   1.000  N
  N102     1.0000 0.04419  0.82660  0.65618  Biso   1.000  N
  N103     1.0000 0.12620  0.84859  0.67760  Biso   1.000  N
  N104     1.0000 0.01040  0.90170  0.69050  Biso   1.000  N
  O76      1.0000 0.92130  0.84430  0.74310  Biso   1.000  O
  H488     1.0000 0.92900  0.82630  0.75600  Biso   1.000  H
  O77      1.0000 0.25140  0.83110  0.72930  Biso   1.000  O
  H489     1.0000 0.26400  0.81200  0.72100  Biso   1.000  H
  H490     1.0000 0.20670  0.86280  0.75450  Biso   1.000  H
  H491     1.0000 0.23450  0.83070  0.73990  Biso   1.000  H
  C390     1.0000 0.91230  0.86840  0.70940  Biso   1.000  C
  H492     1.0000 0.88820  0.88190  0.71270  Biso   1.000  H
  H493     1.0000 0.91140  0.85340  0.68610  Biso   1.000  H
  O78      1.0000 0.24660  0.88200  0.71940  Biso   1.000  O
  H494     1.0000 0.24640  0.90380  0.73060  Biso   1.000  H
  C391     1.0000 0.03230  0.73090  0.67490  Biso   1.000  C
  C392     1.0000 0.97090  0.69960  0.64390  Biso   1.000  C
  C393     1.0000 0.84700  0.64360  0.70320  Biso   1.000  C
  H495     1.0000 0.85330  0.62740  0.72340  Biso   1.000  H
  C394     1.0000 0.80950  0.65860  0.70170  Biso   1.000  C
  C395     1.0000 0.80110  0.68270  0.67260  Biso   1.000  C
  H496     1.0000 0.77670  0.69320  0.67060  Biso   1.000  H
  C396     1.0000 0.82880  0.69170  0.64590  Biso   1.000  C
  H497     1.0000 0.82360  0.70890  0.62630  Biso   1.000  H
  C397     1.0000 0.86470  0.67460  0.64880  Biso   1.000  C
  H498     1.0000 0.88290  0.67970  0.63000  Biso   1.000  H
  C398     1.0000 0.02060  0.62070  0.69820  Biso   1.000  C
  H499     1.0000 0.01870  0.64720  0.69570  Biso   1.000  H
  C399     1.0000 0.05440  0.60450  0.70950  Biso   1.000  C
  C400     1.0000 0.05770  0.56580  0.71150  Biso   1.000  C
  H500     1.0000 0.08090  0.55480  0.71880  Biso   1.000  H
  C401     1.0000 0.02880  0.54400  0.70330  Biso   1.000  C
  H501     1.0000 0.03100  0.51750  0.70500  Biso   1.000  H
  C402     1.0000 0.99430  0.56090  0.69200  Biso   1.000  C
  H502     1.0000 0.97390  0.54510  0.68540  Biso   1.000  H
  C403     1.0000 0.77980  0.64670  0.73210  Biso   1.000  C
  H503     1.0000 0.77510  0.61940  0.72990  Biso   1.000  H
  H504     1.0000 0.78990  0.65160  0.75750  Biso   1.000  H
  C404     1.0000 0.09120  0.61920  0.72890  Biso   1.000  C
  H505     1.0000 0.09920  0.60240  0.74960  Biso   1.000  H
  H506     1.0000 0.11200  0.62180  0.71070  Biso   1.000  H
  N105     1.0000 0.04940  0.72030  0.70090  Biso   1.000  N
  N106     1.0000 0.95581  0.67340  0.65618  Biso   1.000  N
  N107     1.0000 0.87380  0.65141  0.67760  Biso   1.000  N
  N108     1.0000 0.98960  0.59830  0.69050  Biso   1.000  N
  O79      1.0000 0.07870  0.65570  0.74310  Biso   1.000  O
  H507     1.0000 0.07100  0.67370  0.75600  Biso   1.000  H
  O80      1.0000 0.74860  0.66890  0.72930  Biso   1.000  O
  H508     1.0000 0.73600  0.68800  0.72100  Biso   1.000  H
  H509     1.0000 0.79330  0.63720  0.75450  Biso   1.000  H
  H510     1.0000 0.76550  0.66930  0.73990  Biso   1.000  H
  C405     1.0000 0.08770  0.63160  0.70940  Biso   1.000  C
  H511     1.0000 0.11180  0.61810  0.71270  Biso   1.000  H
  H512     1.0000 0.08860  0.64660  0.68610  Biso   1.000  H
  O81      1.0000 0.75340  0.61800  0.71940  Biso   1.000  O
  H513     1.0000 0.75360  0.59620  0.73060  Biso   1.000  H
  C406     1.0000 0.53230  0.23090  0.17490  Biso   1.000  C
  C407     1.0000 0.47090  0.19960  0.14390  Biso   1.000  C
  C408     1.0000 0.34700  0.14360  0.20320  Biso   1.000  C
  H514     1.0000 0.35330  0.12740  0.22340  Biso   1.000  H
  C409     1.0000 0.30950  0.15860  0.20170  Biso   1.000  C
  C410     1.0000 0.30110  0.18270  0.17260  Biso   1.000  C
  H515     1.0000 0.27670  0.19320  0.17060  Biso   1.000  H
  C411     1.0000 0.32880  0.19170  0.14590  Biso   1.000  C
  H516     1.0000 0.32360  0.20890  0.12630  Biso   1.000  H
  C412     1.0000 0.36470  0.17460  0.14880  Biso   1.000  C
  H517     1.0000 0.38290  0.17970  0.13000  Biso   1.000  H
  C413     1.0000 0.52060  0.12070  0.19820  Biso   1.000  C
  H518     1.0000 0.51870  0.14720  0.19570  Biso   1.000  H
  C414     1.0000 0.55440  0.10450  0.20950  Biso   1.000  C
  C415     1.0000 0.55770  0.06580  0.21150  Biso   1.000  C
  H519     1.0000 0.58090  0.05480  0.21880  Biso   1.000  H
  C416     1.0000 0.52880  0.04400  0.20330  Biso   1.000  C
  H520     1.0000 0.53100  0.01750  0.20500  Biso   1.000  H
  C417     1.0000 0.49430  0.06090  0.19200  Biso   1.000  C
  H521     1.0000 0.47390  0.04510  0.18540  Biso   1.000  H
  C418     1.0000 0.27980  0.14670  0.23210  Biso   1.000  C
  H522     1.0000 0.27510  0.11940  0.22990  Biso   1.000  H
  H523     1.0000 0.28990  0.15160  0.25750  Biso   1.000  H
  C419     1.0000 0.59120  0.11920  0.22890  Biso   1.000  C
  H524     1.0000 0.59920  0.10240  0.24960  Biso   1.000  H
  H525     1.0000 0.61200  0.12180  0.21070  Biso   1.000  H
  N109     1.0000 0.54940  0.22030  0.20090  Biso   1.000  N
  N110     1.0000 0.45581  0.17340  0.15618  Biso   1.000  N
  N111     1.0000 0.37380  0.15141  0.17760  Biso   1.000  N
  N112     1.0000 0.48960  0.09830  0.19050  Biso   1.000  N
  O82      1.0000 0.57870  0.15570  0.24310  Biso   1.000  O
  H526     1.0000 0.57100  0.17370  0.25600  Biso   1.000  H
  O83      1.0000 0.24860  0.16890  0.22930  Biso   1.000  O
  H527     1.0000 0.23600  0.18800  0.22100  Biso   1.000  H
  H528     1.0000 0.29330  0.13720  0.25450  Biso   1.000  H
  H529     1.0000 0.26550  0.16930  0.23990  Biso   1.000  H
  C420     1.0000 0.58770  0.13160  0.20940  Biso   1.000  C
  H530     1.0000 0.61180  0.11810  0.21270  Biso   1.000  H
  H531     1.0000 0.58860  0.14660  0.18610  Biso   1.000  H
  O84      1.0000 0.25340  0.11800  0.21940  Biso   1.000  O
  H532     1.0000 0.25360  0.09620  0.23060  Biso   1.000  H
  C421     1.0000 0.96770  0.23090  0.82510  Biso   1.000  C
  C422     1.0000 0.02910  0.19960  0.85610  Biso   1.000  C
  C423     1.0000 0.15300  0.14360  0.79680  Biso   1.000  C
  H533     1.0000 0.14670  0.12740  0.77660  Biso   1.000  H
  C424     1.0000 0.19050  0.15860  0.79830  Biso   1.000  C
  C425     1.0000 0.19890  0.18270  0.82740  Biso   1.000  C
  H534     1.0000 0.22330  0.19320  0.82940  Biso   1.000  H
  C426     1.0000 0.17120  0.19170  0.85410  Biso   1.000  C
  H535     1.0000 0.17640  0.20890  0.87370  Biso   1.000  H
  C427     1.0000 0.13530  0.17460  0.85120  Biso   1.000  C
  H536     1.0000 0.11710  0.17970  0.87000  Biso   1.000  H
  C428     1.0000 0.97940  0.12070  0.80180  Biso   1.000  C
  H537     1.0000 0.98130  0.14720  0.80430  Biso   1.000  H
  C429     1.0000 0.94560  0.10450  0.79050  Biso   1.000  C
  C430     1.0000 0.94230  0.06580  0.78850  Biso   1.000  C
  H538     1.0000 0.91910  0.05480  0.78120  Biso   1.000  H
  C431     1.0000 0.97120  0.04400  0.79670  Biso   1.000  C
  H539     1.0000 0.96900  0.01750  0.79500  Biso   1.000  H
  C432     1.0000 0.00570  0.06090  0.80800  Biso   1.000  C
  H540     1.0000 0.02610  0.04510  0.81460  Biso   1.000  H
  C433     1.0000 0.22020  0.14670  0.76790  Biso   1.000  C
  H541     1.0000 0.22490  0.11940  0.77010  Biso   1.000  H
  H542     1.0000 0.21010  0.15160  0.74250  Biso   1.000  H
  C434     1.0000 0.90880  0.11920  0.77110  Biso   1.000  C
  H543     1.0000 0.90080  0.10240  0.75040  Biso   1.000  H
  H544     1.0000 0.88800  0.12180  0.78930  Biso   1.000  H
  N113     1.0000 0.95060  0.22030  0.79910  Biso   1.000  N
  N114     1.0000 0.04419  0.17340  0.84382  Biso   1.000  N
  N115     1.0000 0.12620  0.15141  0.82240  Biso   1.000  N
  N116     1.0000 0.01040  0.09830  0.80950  Biso   1.000  N
  O85      1.0000 0.92130  0.15570  0.75690  Biso   1.000  O
  H545     1.0000 0.92900  0.17370  0.74400  Biso   1.000  H
  O86      1.0000 0.25140  0.16890  0.77070  Biso   1.000  O
  H546     1.0000 0.26400  0.18800  0.77900  Biso   1.000  H
  H547     1.0000 0.20670  0.13720  0.74550  Biso   1.000  H
  H548     1.0000 0.23450  0.16930  0.76010  Biso   1.000  H
  C435     1.0000 0.91230  0.13160  0.79060  Biso   1.000  C
  H549     1.0000 0.88820  0.11810  0.78730  Biso   1.000  H
  H550     1.0000 0.91140  0.14660  0.81390  Biso   1.000  H
  O87      1.0000 0.24660  0.11800  0.78060  Biso   1.000  O
  H551     1.0000 0.24640  0.09620  0.76940  Biso   1.000  H
  C436     1.0000 0.46770  0.73090  0.32510  Biso   1.000  C
  C437     1.0000 0.52910  0.69960  0.35610  Biso   1.000  C
  C438     1.0000 0.65300  0.64360  0.29680  Biso   1.000  C
  H552     1.0000 0.64670  0.62740  0.27660  Biso   1.000  H
  C439     1.0000 0.69050  0.65860  0.29830  Biso   1.000  C
  C440     1.0000 0.69890  0.68270  0.32740  Biso   1.000  C
  H553     1.0000 0.72330  0.69320  0.32940  Biso   1.000  H
  C441     1.0000 0.67120  0.69170  0.35410  Biso   1.000  C
  H554     1.0000 0.67640  0.70890  0.37370  Biso   1.000  H
  C442     1.0000 0.63530  0.67460  0.35120  Biso   1.000  C
  H555     1.0000 0.61710  0.67970  0.37000  Biso   1.000  H
  C443     1.0000 0.47940  0.62070  0.30180  Biso   1.000  C
  H556     1.0000 0.48130  0.64720  0.30430  Biso   1.000  H
  C444     1.0000 0.44560  0.60450  0.29050  Biso   1.000  C
  C445     1.0000 0.44230  0.56580  0.28850  Biso   1.000  C
  H557     1.0000 0.41910  0.55480  0.28120  Biso   1.000  H
  C446     1.0000 0.47120  0.54400  0.29670  Biso   1.000  C
  H558     1.0000 0.46900  0.51750  0.29500  Biso   1.000  H
  C447     1.0000 0.50570  0.56090  0.30800  Biso   1.000  C
  H559     1.0000 0.52610  0.54510  0.31460  Biso   1.000  H
  C448     1.0000 0.72020  0.64670  0.26790  Biso   1.000  C
  H560     1.0000 0.72490  0.61940  0.27010  Biso   1.000  H
  H561     1.0000 0.71010  0.65160  0.24250  Biso   1.000  H
  C449     1.0000 0.40880  0.61920  0.27110  Biso   1.000  C
  H562     1.0000 0.40080  0.60240  0.25040  Biso   1.000  H
  H563     1.0000 0.38800  0.62180  0.28930  Biso   1.000  H
  N117     1.0000 0.45060  0.72030  0.29910  Biso   1.000  N
  N118     1.0000 0.54419  0.67340  0.34382  Biso   1.000  N
  N119     1.0000 0.62620  0.65141  0.32240  Biso   1.000  N
  N120     1.0000 0.51040  0.59830  0.30950  Biso   1.000  N
  O88      1.0000 0.42130  0.65570  0.25690  Biso   1.000  O
  H564     1.0000 0.42900  0.67370  0.24400  Biso   1.000  H
  O89      1.0000 0.75140  0.66890  0.27070  Biso   1.000  O
  H565     1.0000 0.76400  0.68800  0.27900  Biso   1.000  H
  H566     1.0000 0.70670  0.63720  0.24550  Biso   1.000  H
  H567     1.0000 0.73450  0.66930  0.26010  Biso   1.000  H
  C450     1.0000 0.41230  0.63160  0.29060  Biso   1.000  C
  H568     1.0000 0.38820  0.61810  0.28730  Biso   1.000  H
  H569     1.0000 0.41140  0.64660  0.31390  Biso   1.000  H
  O90      1.0000 0.74660  0.61800  0.28060  Biso   1.000  O
  H570     1.0000 0.74640  0.59620  0.26940  Biso   1.000  H
  C451     1.0000 0.53230  0.76910  0.32510  Biso   1.000  C
  C452     1.0000 0.47090  0.80040  0.35610  Biso   1.000  C
  C453     1.0000 0.34700  0.85640  0.29680  Biso   1.000  C
  H571     1.0000 0.35330  0.87260  0.27660  Biso   1.000  H
  C454     1.0000 0.30950  0.84140  0.29830  Biso   1.000  C
  C455     1.0000 0.30110  0.81730  0.32740  Biso   1.000  C
  H572     1.0000 0.27670  0.80680  0.32940  Biso   1.000  H
  C456     1.0000 0.32880  0.80830  0.35410  Biso   1.000  C
  H573     1.0000 0.32360  0.79110  0.37370  Biso   1.000  H
  C457     1.0000 0.36470  0.82540  0.35120  Biso   1.000  C
  H574     1.0000 0.38290  0.82030  0.37000  Biso   1.000  H
  C458     1.0000 0.52060  0.87930  0.30180  Biso   1.000  C
  H575     1.0000 0.51870  0.85280  0.30430  Biso   1.000  H
  C459     1.0000 0.55440  0.89550  0.29050  Biso   1.000  C
  C460     1.0000 0.55770  0.93420  0.28850  Biso   1.000  C
  H576     1.0000 0.58090  0.94520  0.28120  Biso   1.000  H
  C461     1.0000 0.52880  0.95600  0.29670  Biso   1.000  C
  H577     1.0000 0.53100  0.98250  0.29500  Biso   1.000  H
  C462     1.0000 0.49430  0.93910  0.30800  Biso   1.000  C
  H578     1.0000 0.47390  0.95490  0.31460  Biso   1.000  H
  C463     1.0000 0.27980  0.85330  0.26790  Biso   1.000  C
  H579     1.0000 0.27510  0.88060  0.27010  Biso   1.000  H
  H580     1.0000 0.28990  0.84840  0.24250  Biso   1.000  H
  C464     1.0000 0.59120  0.88080  0.27110  Biso   1.000  C
  H581     1.0000 0.59920  0.89760  0.25040  Biso   1.000  H
  H582     1.0000 0.61200  0.87820  0.28930  Biso   1.000  H
  N121     1.0000 0.54940  0.77970  0.29910  Biso   1.000  N
  N122     1.0000 0.45581  0.82660  0.34382  Biso   1.000  N
  N123     1.0000 0.37380  0.84859  0.32240  Biso   1.000  N
  N124     1.0000 0.48960  0.90170  0.30950  Biso   1.000  N
  O91      1.0000 0.57870  0.84430  0.25690  Biso   1.000  O
  H583     1.0000 0.57100  0.82630  0.24400  Biso   1.000  H
  O92      1.0000 0.24860  0.83110  0.27070  Biso   1.000  O
  H584     1.0000 0.23600  0.81200  0.27900  Biso   1.000  H
  H585     1.0000 0.29330  0.86280  0.24550  Biso   1.000  H
  H586     1.0000 0.26550  0.83070  0.26010  Biso   1.000  H
  C465     1.0000 0.58770  0.86840  0.29060  Biso   1.000  C
  H587     1.0000 0.61180  0.88190  0.28730  Biso   1.000  H
  H588     1.0000 0.58860  0.85340  0.31390  Biso   1.000  H
  O93      1.0000 0.25340  0.88200  0.28060  Biso   1.000  O
  H589     1.0000 0.25360  0.90380  0.26940  Biso   1.000  H
  C466     1.0000 0.03230  0.26910  0.82510  Biso   1.000  C
  C467     1.0000 0.97090  0.30040  0.85610  Biso   1.000  C
  C468     1.0000 0.84700  0.35640  0.79680  Biso   1.000  C
  H590     1.0000 0.85330  0.37260  0.77660  Biso   1.000  H
  C469     1.0000 0.80950  0.34140  0.79830  Biso   1.000  C
  C470     1.0000 0.80110  0.31730  0.82740  Biso   1.000  C
  H591     1.0000 0.77670  0.30680  0.82940  Biso   1.000  H
  C471     1.0000 0.82880  0.30830  0.85410  Biso   1.000  C
  H592     1.0000 0.82360  0.29110  0.87370  Biso   1.000  H
  C472     1.0000 0.86470  0.32540  0.85120  Biso   1.000  C
  H593     1.0000 0.88290  0.32030  0.87000  Biso   1.000  H
  C473     1.0000 0.02060  0.37930  0.80180  Biso   1.000  C
  H594     1.0000 0.01870  0.35280  0.80430  Biso   1.000  H
  C474     1.0000 0.05440  0.39550  0.79050  Biso   1.000  C
  C475     1.0000 0.05770  0.43420  0.78850  Biso   1.000  C
  H595     1.0000 0.08090  0.44520  0.78120  Biso   1.000  H
  C476     1.0000 0.02880  0.45600  0.79670  Biso   1.000  C
  H596     1.0000 0.03100  0.48250  0.79500  Biso   1.000  H
  C477     1.0000 0.99430  0.43910  0.80800  Biso   1.000  C
  H597     1.0000 0.97390  0.45490  0.81460  Biso   1.000  H
  C478     1.0000 0.77980  0.35330  0.76790  Biso   1.000  C
  H598     1.0000 0.77510  0.38060  0.77010  Biso   1.000  H
  H599     1.0000 0.78990  0.34840  0.74250  Biso   1.000  H
  C479     1.0000 0.09120  0.38080  0.77110  Biso   1.000  C
  H600     1.0000 0.09920  0.39760  0.75040  Biso   1.000  H
  H601     1.0000 0.11200  0.37820  0.78930  Biso   1.000  H
  N125     1.0000 0.04940  0.27970  0.79910  Biso   1.000  N
  N126     1.0000 0.95581  0.32660  0.84382  Biso   1.000  N
  N127     1.0000 0.87380  0.34859  0.82240  Biso   1.000  N
  N128     1.0000 0.98960  0.40170  0.80950  Biso   1.000  N
  O94      1.0000 0.07870  0.34430  0.75690  Biso   1.000  O
  H602     1.0000 0.07100  0.32630  0.74400  Biso   1.000  H
  O95      1.0000 0.74860  0.33110  0.77070  Biso   1.000  O
  H603     1.0000 0.73600  0.31200  0.77900  Biso   1.000  H
  H604     1.0000 0.79330  0.36280  0.74550  Biso   1.000  H
  H605     1.0000 0.76550  0.33070  0.76010  Biso   1.000  H
  C480     1.0000 0.08770  0.36840  0.79060  Biso   1.000  C
  H606     1.0000 0.11180  0.38190  0.78730  Biso   1.000  H
  H607     1.0000 0.08860  0.35340  0.81390  Biso   1.000  H
  O96      1.0000 0.75340  0.38200  0.78060  Biso   1.000  O
  H608     1.0000 0.75360  0.40380  0.76940  Biso   1.000  H
  C481     1.0000 0.76910  0.32510  0.53230  Biso   1.000  C
  C482     1.0000 0.80040  0.35610  0.47090  Biso   1.000  C
  C483     1.0000 0.85640  0.29680  0.34700  Biso   1.000  C
  H609     1.0000 0.87260  0.27660  0.35330  Biso   1.000  H
  C484     1.0000 0.84140  0.29830  0.30950  Biso   1.000  C
  C485     1.0000 0.81730  0.32740  0.30110  Biso   1.000  C
  H610     1.0000 0.80680  0.32940  0.27670  Biso   1.000  H
  C486     1.0000 0.80830  0.35410  0.32880  Biso   1.000  C
  H611     1.0000 0.79110  0.37370  0.32360  Biso   1.000  H
  C487     1.0000 0.82540  0.35120  0.36470  Biso   1.000  C
  H612     1.0000 0.82030  0.37000  0.38290  Biso   1.000  H
  C488     1.0000 0.87930  0.30180  0.52060  Biso   1.000  C
  H613     1.0000 0.85280  0.30430  0.51870  Biso   1.000  H
  C489     1.0000 0.89550  0.29050  0.55440  Biso   1.000  C
  C490     1.0000 0.93420  0.28850  0.55770  Biso   1.000  C
  H614     1.0000 0.94520  0.28120  0.58090  Biso   1.000  H
  C491     1.0000 0.95600  0.29670  0.52880  Biso   1.000  C
  H615     1.0000 0.98250  0.29500  0.53100  Biso   1.000  H
  C492     1.0000 0.93910  0.30800  0.49430  Biso   1.000  C
  H616     1.0000 0.95490  0.31460  0.47390  Biso   1.000  H
  C493     1.0000 0.85330  0.26790  0.27980  Biso   1.000  C
  H617     1.0000 0.88060  0.27010  0.27510  Biso   1.000  H
  H618     1.0000 0.84840  0.24250  0.28990  Biso   1.000  H
  C494     1.0000 0.88080  0.27110  0.59120  Biso   1.000  C
  H619     1.0000 0.89760  0.25040  0.59920  Biso   1.000  H
  H620     1.0000 0.87820  0.28930  0.61200  Biso   1.000  H
  N129     1.0000 0.77970  0.29910  0.54940  Biso   1.000  N
  N130     1.0000 0.82660  0.34382  0.45581  Biso   1.000  N
  N131     1.0000 0.84859  0.32240  0.37380  Biso   1.000  N
  N132     1.0000 0.90170  0.30950  0.48960  Biso   1.000  N
  O97      1.0000 0.84430  0.25690  0.57870  Biso   1.000  O
  H621     1.0000 0.82630  0.24400  0.57100  Biso   1.000  H
  O98      1.0000 0.83110  0.27070  0.24860  Biso   1.000  O
  H622     1.0000 0.81200  0.27900  0.23600  Biso   1.000  H
  H623     1.0000 0.86280  0.24550  0.29330  Biso   1.000  H
  H624     1.0000 0.83070  0.26010  0.26550  Biso   1.000  H
  C495     1.0000 0.86840  0.29060  0.58770  Biso   1.000  C
  H625     1.0000 0.88190  0.28730  0.61180  Biso   1.000  H
  H626     1.0000 0.85340  0.31390  0.58860  Biso   1.000  H
  O99      1.0000 0.88200  0.28060  0.25340  Biso   1.000  O
  H627     1.0000 0.90380  0.26940  0.25360  Biso   1.000  H
  C496     1.0000 0.26910  0.82510  0.03230  Biso   1.000  C
  C497     1.0000 0.30040  0.85610  0.97090  Biso   1.000  C
  C498     1.0000 0.35640  0.79680  0.84700  Biso   1.000  C
  H628     1.0000 0.37260  0.77660  0.85330  Biso   1.000  H
  C499     1.0000 0.34140  0.79830  0.80950  Biso   1.000  C
  C500     1.0000 0.31730  0.82740  0.80110  Biso   1.000  C
  H629     1.0000 0.30680  0.82940  0.77670  Biso   1.000  H
  C501     1.0000 0.30830  0.85410  0.82880  Biso   1.000  C
  H630     1.0000 0.29110  0.87370  0.82360  Biso   1.000  H
  C502     1.0000 0.32540  0.85120  0.86470  Biso   1.000  C
  H631     1.0000 0.32030  0.87000  0.88290  Biso   1.000  H
  C503     1.0000 0.37930  0.80180  0.02060  Biso   1.000  C
  H632     1.0000 0.35280  0.80430  0.01870  Biso   1.000  H
  C504     1.0000 0.39550  0.79050  0.05440  Biso   1.000  C
  C505     1.0000 0.43420  0.78850  0.05770  Biso   1.000  C
  H633     1.0000 0.44520  0.78120  0.08090  Biso   1.000  H
  C506     1.0000 0.45600  0.79670  0.02880  Biso   1.000  C
  H634     1.0000 0.48250  0.79500  0.03100  Biso   1.000  H
  C507     1.0000 0.43910  0.80800  0.99430  Biso   1.000  C
  H635     1.0000 0.45490  0.81460  0.97390  Biso   1.000  H
  C508     1.0000 0.35330  0.76790  0.77980  Biso   1.000  C
  H636     1.0000 0.38060  0.77010  0.77510  Biso   1.000  H
  H637     1.0000 0.34840  0.74250  0.78990  Biso   1.000  H
  C509     1.0000 0.38080  0.77110  0.09120  Biso   1.000  C
  H638     1.0000 0.39760  0.75040  0.09920  Biso   1.000  H
  H639     1.0000 0.37820  0.78930  0.11200  Biso   1.000  H
  N133     1.0000 0.27970  0.79910  0.04940  Biso   1.000  N
  N134     1.0000 0.32660  0.84382  0.95581  Biso   1.000  N
  N135     1.0000 0.34859  0.82240  0.87380  Biso   1.000  N
  N136     1.0000 0.40170  0.80950  0.98960  Biso   1.000  N
  O100     1.0000 0.34430  0.75690  0.07870  Biso   1.000  O
  H640     1.0000 0.32630  0.74400  0.07100  Biso   1.000  H
  O101     1.0000 0.33110  0.77070  0.74860  Biso   1.000  O
  H641     1.0000 0.31200  0.77900  0.73600  Biso   1.000  H
  H642     1.0000 0.36280  0.74550  0.79330  Biso   1.000  H
  H643     1.0000 0.33070  0.76010  0.76550  Biso   1.000  H
  C510     1.0000 0.36840  0.79060  0.08770  Biso   1.000  C
  H644     1.0000 0.38190  0.78730  0.11180  Biso   1.000  H
  H645     1.0000 0.35340  0.81390  0.08860  Biso   1.000  H
  O102     1.0000 0.38200  0.78060  0.75340  Biso   1.000  O
  H646     1.0000 0.40380  0.76940  0.75360  Biso   1.000  H
  C511     1.0000 0.23090  0.82510  0.96770  Biso   1.000  C
  C512     1.0000 0.19960  0.85610  0.02910  Biso   1.000  C
  C513     1.0000 0.14360  0.79680  0.15300  Biso   1.000  C
  H647     1.0000 0.12740  0.77660  0.14670  Biso   1.000  H
  C514     1.0000 0.15860  0.79830  0.19050  Biso   1.000  C
  C515     1.0000 0.18270  0.82740  0.19890  Biso   1.000  C
  H648     1.0000 0.19320  0.82940  0.22330  Biso   1.000  H
  C516     1.0000 0.19170  0.85410  0.17120  Biso   1.000  C
  H649     1.0000 0.20890  0.87370  0.17640  Biso   1.000  H
  C517     1.0000 0.17460  0.85120  0.13530  Biso   1.000  C
  H650     1.0000 0.17970  0.87000  0.11710  Biso   1.000  H
  C518     1.0000 0.12070  0.80180  0.97940  Biso   1.000  C
  H651     1.0000 0.14720  0.80430  0.98130  Biso   1.000  H
  C519     1.0000 0.10450  0.79050  0.94560  Biso   1.000  C
  C520     1.0000 0.06580  0.78850  0.94230  Biso   1.000  C
  H652     1.0000 0.05480  0.78120  0.91910  Biso   1.000  H
  C521     1.0000 0.04400  0.79670  0.97120  Biso   1.000  C
  H653     1.0000 0.01750  0.79500  0.96900  Biso   1.000  H
  C522     1.0000 0.06090  0.80800  0.00570  Biso   1.000  C
  H654     1.0000 0.04510  0.81460  0.02610  Biso   1.000  H
  C523     1.0000 0.14670  0.76790  0.22020  Biso   1.000  C
  H655     1.0000 0.11940  0.77010  0.22490  Biso   1.000  H
  H656     1.0000 0.15160  0.74250  0.21010  Biso   1.000  H
  C524     1.0000 0.11920  0.77110  0.90880  Biso   1.000  C
  H657     1.0000 0.10240  0.75040  0.90080  Biso   1.000  H
  H658     1.0000 0.12180  0.78930  0.88800  Biso   1.000  H
  N137     1.0000 0.22030  0.79910  0.95060  Biso   1.000  N
  N138     1.0000 0.17340  0.84382  0.04419  Biso   1.000  N
  N139     1.0000 0.15141  0.82240  0.12620  Biso   1.000  N
  N140     1.0000 0.09830  0.80950  0.01040  Biso   1.000  N
  O103     1.0000 0.15570  0.75690  0.92130  Biso   1.000  O
  H659     1.0000 0.17370  0.74400  0.92900  Biso   1.000  H
  O104     1.0000 0.16890  0.77070  0.25140  Biso   1.000  O
  H660     1.0000 0.18800  0.77900  0.26400  Biso   1.000  H
  H661     1.0000 0.13720  0.74550  0.20670  Biso   1.000  H
  H662     1.0000 0.16930  0.76010  0.23450  Biso   1.000  H
  C525     1.0000 0.13160  0.79060  0.91230  Biso   1.000  C
  H663     1.0000 0.11810  0.78730  0.88820  Biso   1.000  H
  H664     1.0000 0.14660  0.81390  0.91140  Biso   1.000  H
  O105     1.0000 0.11800  0.78060  0.24660  Biso   1.000  O
  H665     1.0000 0.09620  0.76940  0.24640  Biso   1.000  H
  C526     1.0000 0.73090  0.32510  0.46770  Biso   1.000  C
  C527     1.0000 0.69960  0.35610  0.52910  Biso   1.000  C
  C528     1.0000 0.64360  0.29680  0.65300  Biso   1.000  C
  H666     1.0000 0.62740  0.27660  0.64670  Biso   1.000  H
  C529     1.0000 0.65860  0.29830  0.69050  Biso   1.000  C
  C530     1.0000 0.68270  0.32740  0.69890  Biso   1.000  C
  H667     1.0000 0.69320  0.32940  0.72330  Biso   1.000  H
  C531     1.0000 0.69170  0.35410  0.67120  Biso   1.000  C
  H668     1.0000 0.70890  0.37370  0.67640  Biso   1.000  H
  C532     1.0000 0.67460  0.35120  0.63530  Biso   1.000  C
  H669     1.0000 0.67970  0.37000  0.61710  Biso   1.000  H
  C533     1.0000 0.62070  0.30180  0.47940  Biso   1.000  C
  H670     1.0000 0.64720  0.30430  0.48130  Biso   1.000  H
  C534     1.0000 0.60450  0.29050  0.44560  Biso   1.000  C
  C535     1.0000 0.56580  0.28850  0.44230  Biso   1.000  C
  H671     1.0000 0.55480  0.28120  0.41910  Biso   1.000  H
  C536     1.0000 0.54400  0.29670  0.47120  Biso   1.000  C
  H672     1.0000 0.51750  0.29500  0.46900  Biso   1.000  H
  C537     1.0000 0.56090  0.30800  0.50570  Biso   1.000  C
  H673     1.0000 0.54510  0.31460  0.52610  Biso   1.000  H
  C538     1.0000 0.64670  0.26790  0.72020  Biso   1.000  C
  H674     1.0000 0.61940  0.27010  0.72490  Biso   1.000  H
  H675     1.0000 0.65160  0.24250  0.71010  Biso   1.000  H
  C539     1.0000 0.61920  0.27110  0.40880  Biso   1.000  C
  H676     1.0000 0.60240  0.25040  0.40080  Biso   1.000  H
  H677     1.0000 0.62180  0.28930  0.38800  Biso   1.000  H
  N141     1.0000 0.72030  0.29910  0.45060  Biso   1.000  N
  N142     1.0000 0.67340  0.34382  0.54419  Biso   1.000  N
  N143     1.0000 0.65141  0.32240  0.62620  Biso   1.000  N
  N144     1.0000 0.59830  0.30950  0.51040  Biso   1.000  N
  O106     1.0000 0.65570  0.25690  0.42130  Biso   1.000  O
  H678     1.0000 0.67370  0.24400  0.42900  Biso   1.000  H
  O107     1.0000 0.66890  0.27070  0.75140  Biso   1.000  O
  H679     1.0000 0.68800  0.27900  0.76400  Biso   1.000  H
  H680     1.0000 0.63720  0.24550  0.70670  Biso   1.000  H
  H681     1.0000 0.66930  0.26010  0.73450  Biso   1.000  H
  C540     1.0000 0.63160  0.29060  0.41230  Biso   1.000  C
  H682     1.0000 0.61810  0.28730  0.38820  Biso   1.000  H
  H683     1.0000 0.64660  0.31390  0.41140  Biso   1.000  H
  O108     1.0000 0.61800  0.28060  0.74660  Biso   1.000  O
  H684     1.0000 0.59620  0.26940  0.74640  Biso   1.000  H
  C541     1.0000 0.73090  0.67490  0.03230  Biso   1.000  C
  C542     1.0000 0.69960  0.64390  0.97090  Biso   1.000  C
  C543     1.0000 0.64360  0.70320  0.84700  Biso   1.000  C
  H685     1.0000 0.62740  0.72340  0.85330  Biso   1.000  H
  C544     1.0000 0.65860  0.70170  0.80950  Biso   1.000  C
  C545     1.0000 0.68270  0.67260  0.80110  Biso   1.000  C
  H686     1.0000 0.69320  0.67060  0.77670  Biso   1.000  H
  C546     1.0000 0.69170  0.64590  0.82880  Biso   1.000  C
  H687     1.0000 0.70890  0.62630  0.82360  Biso   1.000  H
  C547     1.0000 0.67460  0.64880  0.86470  Biso   1.000  C
  H688     1.0000 0.67970  0.63000  0.88290  Biso   1.000  H
  C548     1.0000 0.62070  0.69820  0.02060  Biso   1.000  C
  H689     1.0000 0.64720  0.69570  0.01870  Biso   1.000  H
  C549     1.0000 0.60450  0.70950  0.05440  Biso   1.000  C
  C550     1.0000 0.56580  0.71150  0.05770  Biso   1.000  C
  H690     1.0000 0.55480  0.71880  0.08090  Biso   1.000  H
  C551     1.0000 0.54400  0.70330  0.02880  Biso   1.000  C
  H691     1.0000 0.51750  0.70500  0.03100  Biso   1.000  H
  C552     1.0000 0.56090  0.69200  0.99430  Biso   1.000  C
  H692     1.0000 0.54510  0.68540  0.97390  Biso   1.000  H
  C553     1.0000 0.64670  0.73210  0.77980  Biso   1.000  C
  H693     1.0000 0.61940  0.72990  0.77510  Biso   1.000  H
  H694     1.0000 0.65160  0.75750  0.78990  Biso   1.000  H
  C554     1.0000 0.61920  0.72890  0.09120  Biso   1.000  C
  H695     1.0000 0.60240  0.74960  0.09920  Biso   1.000  H
  H696     1.0000 0.62180  0.71070  0.11200  Biso   1.000  H
  N145     1.0000 0.72030  0.70090  0.04940  Biso   1.000  N
  N146     1.0000 0.67340  0.65618  0.95581  Biso   1.000  N
  N147     1.0000 0.65141  0.67760  0.87380  Biso   1.000  N
  N148     1.0000 0.59830  0.69050  0.98960  Biso   1.000  N
  O109     1.0000 0.65570  0.74310  0.07870  Biso   1.000  O
  H697     1.0000 0.67370  0.75600  0.07100  Biso   1.000  H
  O110     1.0000 0.66890  0.72930  0.74860  Biso   1.000  O
  H698     1.0000 0.68800  0.72100  0.73600  Biso   1.000  H
  H699     1.0000 0.63720  0.75450  0.79330  Biso   1.000  H
  H700     1.0000 0.66930  0.73990  0.76550  Biso   1.000  H
  C555     1.0000 0.63160  0.70940  0.08770  Biso   1.000  C
  H701     1.0000 0.61810  0.71270  0.11180  Biso   1.000  H
  H702     1.0000 0.64660  0.68610  0.08860  Biso   1.000  H
  O111     1.0000 0.61800  0.71940  0.75340  Biso   1.000  O
  H703     1.0000 0.59620  0.73060  0.75360  Biso   1.000  H
  C556     1.0000 0.23090  0.17490  0.53230  Biso   1.000  C
  C557     1.0000 0.19960  0.14390  0.47090  Biso   1.000  C
  C558     1.0000 0.14360  0.20320  0.34700  Biso   1.000  C
  H704     1.0000 0.12740  0.22340  0.35330  Biso   1.000  H
  C559     1.0000 0.15860  0.20170  0.30950  Biso   1.000  C
  C560     1.0000 0.18270  0.17260  0.30110  Biso   1.000  C
  H705     1.0000 0.19320  0.17060  0.27670  Biso   1.000  H
  C561     1.0000 0.19170  0.14590  0.32880  Biso   1.000  C
  H706     1.0000 0.20890  0.12630  0.32360  Biso   1.000  H
  C562     1.0000 0.17460  0.14880  0.36470  Biso   1.000  C
  H707     1.0000 0.17970  0.13000  0.38290  Biso   1.000  H
  C563     1.0000 0.12070  0.19820  0.52060  Biso   1.000  C
  H708     1.0000 0.14720  0.19570  0.51870  Biso   1.000  H
  C564     1.0000 0.10450  0.20950  0.55440  Biso   1.000  C
  C565     1.0000 0.06580  0.21150  0.55770  Biso   1.000  C
  H709     1.0000 0.05480  0.21880  0.58090  Biso   1.000  H
  C566     1.0000 0.04400  0.20330  0.52880  Biso   1.000  C
  H710     1.0000 0.01750  0.20500  0.53100  Biso   1.000  H
  C567     1.0000 0.06090  0.19200  0.49430  Biso   1.000  C
  H711     1.0000 0.04510  0.18540  0.47390  Biso   1.000  H
  C568     1.0000 0.14670  0.23210  0.27980  Biso   1.000  C
  H712     1.0000 0.11940  0.22990  0.27510  Biso   1.000  H
  H713     1.0000 0.15160  0.25750  0.28990  Biso   1.000  H
  C569     1.0000 0.11920  0.22890  0.59120  Biso   1.000  C
  H714     1.0000 0.10240  0.24960  0.59920  Biso   1.000  H
  H715     1.0000 0.12180  0.21070  0.61200  Biso   1.000  H
  N149     1.0000 0.22030  0.20090  0.54940  Biso   1.000  N
  N150     1.0000 0.17340  0.15618  0.45581  Biso   1.000  N
  N151     1.0000 0.15141  0.17760  0.37380  Biso   1.000  N
  N152     1.0000 0.09830  0.19050  0.48960  Biso   1.000  N
  O112     1.0000 0.15570  0.24310  0.57870  Biso   1.000  O
  H716     1.0000 0.17370  0.25600  0.57100  Biso   1.000  H
  O113     1.0000 0.16890  0.22930  0.24860  Biso   1.000  O
  H717     1.0000 0.18800  0.22100  0.23600  Biso   1.000  H
  H718     1.0000 0.13720  0.25450  0.29330  Biso   1.000  H
  H719     1.0000 0.16930  0.23990  0.26550  Biso   1.000  H
  C570     1.0000 0.13160  0.20940  0.58770  Biso   1.000  C
  H720     1.0000 0.11810  0.21270  0.61180  Biso   1.000  H
  H721     1.0000 0.14660  0.18610  0.58860  Biso   1.000  H
  O114     1.0000 0.11800  0.21940  0.25340  Biso   1.000  O
  H722     1.0000 0.09620  0.23060  0.25360  Biso   1.000  H
  C571     1.0000 0.26910  0.17490  0.46770  Biso   1.000  C
  C572     1.0000 0.30040  0.14390  0.52910  Biso   1.000  C
  C573     1.0000 0.35640  0.20320  0.65300  Biso   1.000  C
  H723     1.0000 0.37260  0.22340  0.64670  Biso   1.000  H
  C574     1.0000 0.34140  0.20170  0.69050  Biso   1.000  C
  C575     1.0000 0.31730  0.17260  0.69890  Biso   1.000  C
  H724     1.0000 0.30680  0.17060  0.72330  Biso   1.000  H
  C576     1.0000 0.30830  0.14590  0.67120  Biso   1.000  C
  H725     1.0000 0.29110  0.12630  0.67640  Biso   1.000  H
  C577     1.0000 0.32540  0.14880  0.63530  Biso   1.000  C
  H726     1.0000 0.32030  0.13000  0.61710  Biso   1.000  H
  C578     1.0000 0.37930  0.19820  0.47940  Biso   1.000  C
  H727     1.0000 0.35280  0.19570  0.48130  Biso   1.000  H
  C579     1.0000 0.39550  0.20950  0.44560  Biso   1.000  C
  C580     1.0000 0.43420  0.21150  0.44230  Biso   1.000  C
  H728     1.0000 0.44520  0.21880  0.41910  Biso   1.000  H
  C581     1.0000 0.45600  0.20330  0.47120  Biso   1.000  C
  H729     1.0000 0.48250  0.20500  0.46900  Biso   1.000  H
  C582     1.0000 0.43910  0.19200  0.50570  Biso   1.000  C
  H730     1.0000 0.45490  0.18540  0.52610  Biso   1.000  H
  C583     1.0000 0.35330  0.23210  0.72020  Biso   1.000  C
  H731     1.0000 0.38060  0.22990  0.72490  Biso   1.000  H
  H732     1.0000 0.34840  0.25750  0.71010  Biso   1.000  H
  C584     1.0000 0.38080  0.22890  0.40880  Biso   1.000  C
  H733     1.0000 0.39760  0.24960  0.40080  Biso   1.000  H
  H734     1.0000 0.37820  0.21070  0.38800  Biso   1.000  H
  N153     1.0000 0.27970  0.20090  0.45060  Biso   1.000  N
  N154     1.0000 0.32660  0.15618  0.54419  Biso   1.000  N
  N155     1.0000 0.34859  0.17760  0.62620  Biso   1.000  N
  N156     1.0000 0.40170  0.19050  0.51040  Biso   1.000  N
  O115     1.0000 0.34430  0.24310  0.42130  Biso   1.000  O
  H735     1.0000 0.32630  0.25600  0.42900  Biso   1.000  H
  O116     1.0000 0.33110  0.22930  0.75140  Biso   1.000  O
  H736     1.0000 0.31200  0.22100  0.76400  Biso   1.000  H
  H737     1.0000 0.36280  0.25450  0.70670  Biso   1.000  H
  H738     1.0000 0.33070  0.23990  0.73450  Biso   1.000  H
  C585     1.0000 0.36840  0.20940  0.41230  Biso   1.000  C
  H739     1.0000 0.38190  0.21270  0.38820  Biso   1.000  H
  H740     1.0000 0.35340  0.18610  0.41140  Biso   1.000  H
  O117     1.0000 0.38200  0.21940  0.74660  Biso   1.000  O
  H741     1.0000 0.40380  0.23060  0.74640  Biso   1.000  H
  C586     1.0000 0.76910  0.67490  0.96770  Biso   1.000  C
  C587     1.0000 0.80040  0.64390  0.02910  Biso   1.000  C
  C588     1.0000 0.85640  0.70320  0.15300  Biso   1.000  C
  H742     1.0000 0.87260  0.72340  0.14670  Biso   1.000  H
  C589     1.0000 0.84140  0.70170  0.19050  Biso   1.000  C
  C590     1.0000 0.81730  0.67260  0.19890  Biso   1.000  C
  H743     1.0000 0.80680  0.67060  0.22330  Biso   1.000  H
  C591     1.0000 0.80830  0.64590  0.17120  Biso   1.000  C
  H744     1.0000 0.79110  0.62630  0.17640  Biso   1.000  H
  C592     1.0000 0.82540  0.64880  0.13530  Biso   1.000  C
  H745     1.0000 0.82030  0.63000  0.11710  Biso   1.000  H
  C593     1.0000 0.87930  0.69820  0.97940  Biso   1.000  C
  H746     1.0000 0.85280  0.69570  0.98130  Biso   1.000  H
  C594     1.0000 0.89550  0.70950  0.94560  Biso   1.000  C
  C595     1.0000 0.93420  0.71150  0.94230  Biso   1.000  C
  H747     1.0000 0.94520  0.71880  0.91910  Biso   1.000  H
  C596     1.0000 0.95600  0.70330  0.97120  Biso   1.000  C
  H748     1.0000 0.98250  0.70500  0.96900  Biso   1.000  H
  C597     1.0000 0.93910  0.69200  0.00570  Biso   1.000  C
  H749     1.0000 0.95490  0.68540  0.02610  Biso   1.000  H
  C598     1.0000 0.85330  0.73210  0.22020  Biso   1.000  C
  H750     1.0000 0.88060  0.72990  0.22490  Biso   1.000  H
  H751     1.0000 0.84840  0.75750  0.21010  Biso   1.000  H
  C599     1.0000 0.88080  0.72890  0.90880  Biso   1.000  C
  H752     1.0000 0.89760  0.74960  0.90080  Biso   1.000  H
  H753     1.0000 0.87820  0.71070  0.88800  Biso   1.000  H
  N157     1.0000 0.77970  0.70090  0.95060  Biso   1.000  N
  N158     1.0000 0.82660  0.65618  0.04419  Biso   1.000  N
  N159     1.0000 0.84859  0.67760  0.12620  Biso   1.000  N
  N160     1.0000 0.90170  0.69050  0.01040  Biso   1.000  N
  O118     1.0000 0.84430  0.74310  0.92130  Biso   1.000  O
  H754     1.0000 0.82630  0.75600  0.92900  Biso   1.000  H
  O119     1.0000 0.83110  0.72930  0.25140  Biso   1.000  O
  H755     1.0000 0.81200  0.72100  0.26400  Biso   1.000  H
  H756     1.0000 0.86280  0.75450  0.20670  Biso   1.000  H
  H757     1.0000 0.83070  0.73990  0.23450  Biso   1.000  H
  C600     1.0000 0.86840  0.70940  0.91230  Biso   1.000  C
  H758     1.0000 0.88190  0.71270  0.88820  Biso   1.000  H
  H759     1.0000 0.85340  0.68610  0.91140  Biso   1.000  H
  O120     1.0000 0.88200  0.71940  0.24660  Biso   1.000  O
  H760     1.0000 0.90380  0.73060  0.24640  Biso   1.000  H
  C601     1.0000 0.82510  0.96770  0.23090  Biso   1.000  C
  C602     1.0000 0.85610  0.02910  0.19960  Biso   1.000  C
  C603     1.0000 0.79680  0.15300  0.14360  Biso   1.000  C
  H761     1.0000 0.77660  0.14670  0.12740  Biso   1.000  H
  C604     1.0000 0.79830  0.19050  0.15860  Biso   1.000  C
  C605     1.0000 0.82740  0.19890  0.18270  Biso   1.000  C
  H762     1.0000 0.82940  0.22330  0.19320  Biso   1.000  H
  C606     1.0000 0.85410  0.17120  0.19170  Biso   1.000  C
  H763     1.0000 0.87370  0.17640  0.20890  Biso   1.000  H
  C607     1.0000 0.85120  0.13530  0.17460  Biso   1.000  C
  H764     1.0000 0.87000  0.11710  0.17970  Biso   1.000  H
  C608     1.0000 0.80180  0.97940  0.12070  Biso   1.000  C
  H765     1.0000 0.80430  0.98130  0.14720  Biso   1.000  H
  C609     1.0000 0.79050  0.94560  0.10450  Biso   1.000  C
  C610     1.0000 0.78850  0.94230  0.06580  Biso   1.000  C
  H766     1.0000 0.78120  0.91910  0.05480  Biso   1.000  H
  C611     1.0000 0.79670  0.97120  0.04400  Biso   1.000  C
  H767     1.0000 0.79500  0.96900  0.01750  Biso   1.000  H
  C612     1.0000 0.80800  0.00570  0.06090  Biso   1.000  C
  H768     1.0000 0.81460  0.02610  0.04510  Biso   1.000  H
  C613     1.0000 0.76790  0.22020  0.14670  Biso   1.000  C
  H769     1.0000 0.77010  0.22490  0.11940  Biso   1.000  H
  H770     1.0000 0.74250  0.21010  0.15160  Biso   1.000  H
  C614     1.0000 0.77110  0.90880  0.11920  Biso   1.000  C
  H771     1.0000 0.75040  0.90080  0.10240  Biso   1.000  H
  H772     1.0000 0.78930  0.88800  0.12180  Biso   1.000  H
  N161     1.0000 0.79910  0.95060  0.22030  Biso   1.000  N
  N162     1.0000 0.84382  0.04419  0.17340  Biso   1.000  N
  N163     1.0000 0.82240  0.12620  0.15141  Biso   1.000  N
  N164     1.0000 0.80950  0.01040  0.09830  Biso   1.000  N
  O121     1.0000 0.75690  0.92130  0.15570  Biso   1.000  O
  H773     1.0000 0.74400  0.92900  0.17370  Biso   1.000  H
  O122     1.0000 0.77070  0.25140  0.16890  Biso   1.000  O
  H774     1.0000 0.77900  0.26400  0.18800  Biso   1.000  H
  H775     1.0000 0.74550  0.20670  0.13720  Biso   1.000  H
  H776     1.0000 0.76010  0.23450  0.16930  Biso   1.000  H
  C615     1.0000 0.79060  0.91230  0.13160  Biso   1.000  C
  H777     1.0000 0.78730  0.88820  0.11810  Biso   1.000  H
  H778     1.0000 0.81390  0.91140  0.14660  Biso   1.000  H
  O123     1.0000 0.78060  0.24660  0.11800  Biso   1.000  O
  H779     1.0000 0.76940  0.24640  0.09620  Biso   1.000  H
  C616     1.0000 0.32510  0.46770  0.73090  Biso   1.000  C
  C617     1.0000 0.35610  0.52910  0.69960  Biso   1.000  C
  C618     1.0000 0.29680  0.65300  0.64360  Biso   1.000  C
  H780     1.0000 0.27660  0.64670  0.62740  Biso   1.000  H
  C619     1.0000 0.29830  0.69050  0.65860  Biso   1.000  C
  C620     1.0000 0.32740  0.69890  0.68270  Biso   1.000  C
  H781     1.0000 0.32940  0.72330  0.69320  Biso   1.000  H
  C621     1.0000 0.35410  0.67120  0.69170  Biso   1.000  C
  H782     1.0000 0.37370  0.67640  0.70890  Biso   1.000  H
  C622     1.0000 0.35120  0.63530  0.67460  Biso   1.000  C
  H783     1.0000 0.37000  0.61710  0.67970  Biso   1.000  H
  C623     1.0000 0.30180  0.47940  0.62070  Biso   1.000  C
  H784     1.0000 0.30430  0.48130  0.64720  Biso   1.000  H
  C624     1.0000 0.29050  0.44560  0.60450  Biso   1.000  C
  C625     1.0000 0.28850  0.44230  0.56580  Biso   1.000  C
  H785     1.0000 0.28120  0.41910  0.55480  Biso   1.000  H
  C626     1.0000 0.29670  0.47120  0.54400  Biso   1.000  C
  H786     1.0000 0.29500  0.46900  0.51750  Biso   1.000  H
  C627     1.0000 0.30800  0.50570  0.56090  Biso   1.000  C
  H787     1.0000 0.31460  0.52610  0.54510  Biso   1.000  H
  C628     1.0000 0.26790  0.72020  0.64670  Biso   1.000  C
  H788     1.0000 0.27010  0.72490  0.61940  Biso   1.000  H
  H789     1.0000 0.24250  0.71010  0.65160  Biso   1.000  H
  C629     1.0000 0.27110  0.40880  0.61920  Biso   1.000  C
  H790     1.0000 0.25040  0.40080  0.60240  Biso   1.000  H
  H791     1.0000 0.28930  0.38800  0.62180  Biso   1.000  H
  N165     1.0000 0.29910  0.45060  0.72030  Biso   1.000  N
  N166     1.0000 0.34382  0.54419  0.67340  Biso   1.000  N
  N167     1.0000 0.32240  0.62620  0.65141  Biso   1.000  N
  N168     1.0000 0.30950  0.51040  0.59830  Biso   1.000  N
  O124     1.0000 0.25690  0.42130  0.65570  Biso   1.000  O
  H792     1.0000 0.24400  0.42900  0.67370  Biso   1.000  H
  O125     1.0000 0.27070  0.75140  0.66890  Biso   1.000  O
  H793     1.0000 0.27900  0.76400  0.68800  Biso   1.000  H
  H794     1.0000 0.24550  0.70670  0.63720  Biso   1.000  H
  H795     1.0000 0.26010  0.73450  0.66930  Biso   1.000  H
  C630     1.0000 0.29060  0.41230  0.63160  Biso   1.000  C
  H796     1.0000 0.28730  0.38820  0.61810  Biso   1.000  H
  H797     1.0000 0.31390  0.41140  0.64660  Biso   1.000  H
  O126     1.0000 0.28060  0.74660  0.61800  Biso   1.000  O
  H798     1.0000 0.26940  0.74640  0.59620  Biso   1.000  H
  C631     1.0000 0.32510  0.53230  0.76910  Biso   1.000  C
  C632     1.0000 0.35610  0.47090  0.80040  Biso   1.000  C
  C633     1.0000 0.29680  0.34700  0.85640  Biso   1.000  C
  H799     1.0000 0.27660  0.35330  0.87260  Biso   1.000  H
  C634     1.0000 0.29830  0.30950  0.84140  Biso   1.000  C
  C635     1.0000 0.32740  0.30110  0.81730  Biso   1.000  C
  H800     1.0000 0.32940  0.27670  0.80680  Biso   1.000  H
  C636     1.0000 0.35410  0.32880  0.80830  Biso   1.000  C
  H801     1.0000 0.37370  0.32360  0.79110  Biso   1.000  H
  C637     1.0000 0.35120  0.36470  0.82540  Biso   1.000  C
  H802     1.0000 0.37000  0.38290  0.82030  Biso   1.000  H
  C638     1.0000 0.30180  0.52060  0.87930  Biso   1.000  C
  H803     1.0000 0.30430  0.51870  0.85280  Biso   1.000  H
  C639     1.0000 0.29050  0.55440  0.89550  Biso   1.000  C
  C640     1.0000 0.28850  0.55770  0.93420  Biso   1.000  C
  H804     1.0000 0.28120  0.58090  0.94520  Biso   1.000  H
  C641     1.0000 0.29670  0.52880  0.95600  Biso   1.000  C
  H805     1.0000 0.29500  0.53100  0.98250  Biso   1.000  H
  C642     1.0000 0.30800  0.49430  0.93910  Biso   1.000  C
  H806     1.0000 0.31460  0.47390  0.95490  Biso   1.000  H
  C643     1.0000 0.26790  0.27980  0.85330  Biso   1.000  C
  H807     1.0000 0.27010  0.27510  0.88060  Biso   1.000  H
  H808     1.0000 0.24250  0.28990  0.84840  Biso   1.000  H
  C644     1.0000 0.27110  0.59120  0.88080  Biso   1.000  C
  H809     1.0000 0.25040  0.59920  0.89760  Biso   1.000  H
  H810     1.0000 0.28930  0.61200  0.87820  Biso   1.000  H
  N169     1.0000 0.29910  0.54940  0.77970  Biso   1.000  N
  N170     1.0000 0.34382  0.45581  0.82660  Biso   1.000  N
  N171     1.0000 0.32240  0.37380  0.84859  Biso   1.000  N
  N172     1.0000 0.30950  0.48960  0.90170  Biso   1.000  N
  O127     1.0000 0.25690  0.57870  0.84430  Biso   1.000  O
  H811     1.0000 0.24400  0.57100  0.82630  Biso   1.000  H
  O128     1.0000 0.27070  0.24860  0.83110  Biso   1.000  O
  H812     1.0000 0.27900  0.23600  0.81200  Biso   1.000  H
  H813     1.0000 0.24550  0.29330  0.86280  Biso   1.000  H
  H814     1.0000 0.26010  0.26550  0.83070  Biso   1.000  H
  C645     1.0000 0.29060  0.58770  0.86840  Biso   1.000  C
  H815     1.0000 0.28730  0.61180  0.88190  Biso   1.000  H
  H816     1.0000 0.31390  0.58860  0.85340  Biso   1.000  H
  O129     1.0000 0.28060  0.25340  0.88200  Biso   1.000  O
  H817     1.0000 0.26940  0.25360  0.90380  Biso   1.000  H
  C646     1.0000 0.82510  0.03230  0.26910  Biso   1.000  C
  C647     1.0000 0.85610  0.97090  0.30040  Biso   1.000  C
  C648     1.0000 0.79680  0.84700  0.35640  Biso   1.000  C
  H818     1.0000 0.77660  0.85330  0.37260  Biso   1.000  H
  C649     1.0000 0.79830  0.80950  0.34140  Biso   1.000  C
  C650     1.0000 0.82740  0.80110  0.31730  Biso   1.000  C
  H819     1.0000 0.82940  0.77670  0.30680  Biso   1.000  H
  C651     1.0000 0.85410  0.82880  0.30830  Biso   1.000  C
  H820     1.0000 0.87370  0.82360  0.29110  Biso   1.000  H
  C652     1.0000 0.85120  0.86470  0.32540  Biso   1.000  C
  H821     1.0000 0.87000  0.88290  0.32030  Biso   1.000  H
  C653     1.0000 0.80180  0.02060  0.37930  Biso   1.000  C
  H822     1.0000 0.80430  0.01870  0.35280  Biso   1.000  H
  C654     1.0000 0.79050  0.05440  0.39550  Biso   1.000  C
  C655     1.0000 0.78850  0.05770  0.43420  Biso   1.000  C
  H823     1.0000 0.78120  0.08090  0.44520  Biso   1.000  H
  C656     1.0000 0.79670  0.02880  0.45600  Biso   1.000  C
  H824     1.0000 0.79500  0.03100  0.48250  Biso   1.000  H
  C657     1.0000 0.80800  0.99430  0.43910  Biso   1.000  C
  H825     1.0000 0.81460  0.97390  0.45490  Biso   1.000  H
  C658     1.0000 0.76790  0.77980  0.35330  Biso   1.000  C
  H826     1.0000 0.77010  0.77510  0.38060  Biso   1.000  H
  H827     1.0000 0.74250  0.78990  0.34840  Biso   1.000  H
  C659     1.0000 0.77110  0.09120  0.38080  Biso   1.000  C
  H828     1.0000 0.75040  0.09920  0.39760  Biso   1.000  H
  H829     1.0000 0.78930  0.11200  0.37820  Biso   1.000  H
  N173     1.0000 0.79910  0.04940  0.27970  Biso   1.000  N
  N174     1.0000 0.84382  0.95581  0.32660  Biso   1.000  N
  N175     1.0000 0.82240  0.87380  0.34859  Biso   1.000  N
  N176     1.0000 0.80950  0.98960  0.40170  Biso   1.000  N
  O130     1.0000 0.75690  0.07870  0.34430  Biso   1.000  O
  H830     1.0000 0.74400  0.07100  0.32630  Biso   1.000  H
  O131     1.0000 0.77070  0.74860  0.33110  Biso   1.000  O
  H831     1.0000 0.77900  0.73600  0.31200  Biso   1.000  H
  H832     1.0000 0.74550  0.79330  0.36280  Biso   1.000  H
  H833     1.0000 0.76010  0.76550  0.33070  Biso   1.000  H
  C660     1.0000 0.79060  0.08770  0.36840  Biso   1.000  C
  H834     1.0000 0.78730  0.11180  0.38190  Biso   1.000  H
  H835     1.0000 0.81390  0.08860  0.35340  Biso   1.000  H
  O132     1.0000 0.78060  0.75340  0.38200  Biso   1.000  O
  H836     1.0000 0.76940  0.75360  0.40380  Biso   1.000  H
  C661     1.0000 0.17490  0.46770  0.26910  Biso   1.000  C
  C662     1.0000 0.14390  0.52910  0.30040  Biso   1.000  C
  C663     1.0000 0.20320  0.65300  0.35640  Biso   1.000  C
  H837     1.0000 0.22340  0.64670  0.37260  Biso   1.000  H
  C664     1.0000 0.20170  0.69050  0.34140  Biso   1.000  C
  C665     1.0000 0.17260  0.69890  0.31730  Biso   1.000  C
  H838     1.0000 0.17060  0.72330  0.30680  Biso   1.000  H
  C666     1.0000 0.14590  0.67120  0.30830  Biso   1.000  C
  H839     1.0000 0.12630  0.67640  0.29110  Biso   1.000  H
  C667     1.0000 0.14880  0.63530  0.32540  Biso   1.000  C
  H840     1.0000 0.13000  0.61710  0.32030  Biso   1.000  H
  C668     1.0000 0.19820  0.47940  0.37930  Biso   1.000  C
  H841     1.0000 0.19570  0.48130  0.35280  Biso   1.000  H
  C669     1.0000 0.20950  0.44560  0.39550  Biso   1.000  C
  C670     1.0000 0.21150  0.44230  0.43420  Biso   1.000  C
  H842     1.0000 0.21880  0.41910  0.44520  Biso   1.000  H
  C671     1.0000 0.20330  0.47120  0.45600  Biso   1.000  C
  H843     1.0000 0.20500  0.46900  0.48250  Biso   1.000  H
  C672     1.0000 0.19200  0.50570  0.43910  Biso   1.000  C
  H844     1.0000 0.18540  0.52610  0.45490  Biso   1.000  H
  C673     1.0000 0.23210  0.72020  0.35330  Biso   1.000  C
  H845     1.0000 0.22990  0.72490  0.38060  Biso   1.000  H
  H846     1.0000 0.25750  0.71010  0.34840  Biso   1.000  H
  C674     1.0000 0.22890  0.40880  0.38080  Biso   1.000  C
  H847     1.0000 0.24960  0.40080  0.39760  Biso   1.000  H
  H848     1.0000 0.21070  0.38800  0.37820  Biso   1.000  H
  N177     1.0000 0.20090  0.45060  0.27970  Biso   1.000  N
  N178     1.0000 0.15618  0.54419  0.32660  Biso   1.000  N
  N179     1.0000 0.17760  0.62620  0.34859  Biso   1.000  N
  N180     1.0000 0.19050  0.51040  0.40170  Biso   1.000  N
  O133     1.0000 0.24310  0.42130  0.34430  Biso   1.000  O
  H849     1.0000 0.25600  0.42900  0.32630  Biso   1.000  H
  O134     1.0000 0.22930  0.75140  0.33110  Biso   1.000  O
  H850     1.0000 0.22100  0.76400  0.31200  Biso   1.000  H
  H851     1.0000 0.25450  0.70670  0.36280  Biso   1.000  H
  H852     1.0000 0.23990  0.73450  0.33070  Biso   1.000  H
  C675     1.0000 0.20940  0.41230  0.36840  Biso   1.000  C
  H853     1.0000 0.21270  0.38820  0.38190  Biso   1.000  H
  H854     1.0000 0.18610  0.41140  0.35340  Biso   1.000  H
  O135     1.0000 0.21940  0.74660  0.38200  Biso   1.000  O
  H855     1.0000 0.23060  0.74640  0.40380  Biso   1.000  H
  C676     1.0000 0.67490  0.96770  0.76910  Biso   1.000  C
  C677     1.0000 0.64390  0.02910  0.80040  Biso   1.000  C
  C678     1.0000 0.70320  0.15300  0.85640  Biso   1.000  C
  H856     1.0000 0.72340  0.14670  0.87260  Biso   1.000  H
  C679     1.0000 0.70170  0.19050  0.84140  Biso   1.000  C
  C680     1.0000 0.67260  0.19890  0.81730  Biso   1.000  C
  H857     1.0000 0.67060  0.22330  0.80680  Biso   1.000  H
  C681     1.0000 0.64590  0.17120  0.80830  Biso   1.000  C
  H858     1.0000 0.62630  0.17640  0.79110  Biso   1.000  H
  C682     1.0000 0.64880  0.13530  0.82540  Biso   1.000  C
  H859     1.0000 0.63000  0.11710  0.82030  Biso   1.000  H
  C683     1.0000 0.69820  0.97940  0.87930  Biso   1.000  C
  H860     1.0000 0.69570  0.98130  0.85280  Biso   1.000  H
  C684     1.0000 0.70950  0.94560  0.89550  Biso   1.000  C
  C685     1.0000 0.71150  0.94230  0.93420  Biso   1.000  C
  H861     1.0000 0.71880  0.91910  0.94520  Biso   1.000  H
  C686     1.0000 0.70330  0.97120  0.95600  Biso   1.000  C
  H862     1.0000 0.70500  0.96900  0.98250  Biso   1.000  H
  C687     1.0000 0.69200  0.00570  0.93910  Biso   1.000  C
  H863     1.0000 0.68540  0.02610  0.95490  Biso   1.000  H
  C688     1.0000 0.73210  0.22020  0.85330  Biso   1.000  C
  H864     1.0000 0.72990  0.22490  0.88060  Biso   1.000  H
  H865     1.0000 0.75750  0.21010  0.84840  Biso   1.000  H
  C689     1.0000 0.72890  0.90880  0.88080  Biso   1.000  C
  H866     1.0000 0.74960  0.90080  0.89760  Biso   1.000  H
  H867     1.0000 0.71070  0.88800  0.87820  Biso   1.000  H
  N181     1.0000 0.70090  0.95060  0.77970  Biso   1.000  N
  N182     1.0000 0.65618  0.04419  0.82660  Biso   1.000  N
  N183     1.0000 0.67760  0.12620  0.84859  Biso   1.000  N
  N184     1.0000 0.69050  0.01040  0.90170  Biso   1.000  N
  O136     1.0000 0.74310  0.92130  0.84430  Biso   1.000  O
  H868     1.0000 0.75600  0.92900  0.82630  Biso   1.000  H
  O137     1.0000 0.72930  0.25140  0.83110  Biso   1.000  O
  H869     1.0000 0.72100  0.26400  0.81200  Biso   1.000  H
  H870     1.0000 0.75450  0.20670  0.86280  Biso   1.000  H
  H871     1.0000 0.73990  0.23450  0.83070  Biso   1.000  H
  C690     1.0000 0.70940  0.91230  0.86840  Biso   1.000  C
  H872     1.0000 0.71270  0.88820  0.88190  Biso   1.000  H
  H873     1.0000 0.68610  0.91140  0.85340  Biso   1.000  H
  O138     1.0000 0.71940  0.24660  0.88200  Biso   1.000  O
  H874     1.0000 0.73060  0.24640  0.90380  Biso   1.000  H
  C691     1.0000 0.67490  0.03230  0.73090  Biso   1.000  C
  C692     1.0000 0.64390  0.97090  0.69960  Biso   1.000  C
  C693     1.0000 0.70320  0.84700  0.64360  Biso   1.000  C
  H875     1.0000 0.72340  0.85330  0.62740  Biso   1.000  H
  C694     1.0000 0.70170  0.80950  0.65860  Biso   1.000  C
  C695     1.0000 0.67260  0.80110  0.68270  Biso   1.000  C
  H876     1.0000 0.67060  0.77670  0.69320  Biso   1.000  H
  C696     1.0000 0.64590  0.82880  0.69170  Biso   1.000  C
  H877     1.0000 0.62630  0.82360  0.70890  Biso   1.000  H
  C697     1.0000 0.64880  0.86470  0.67460  Biso   1.000  C
  H878     1.0000 0.63000  0.88290  0.67970  Biso   1.000  H
  C698     1.0000 0.69820  0.02060  0.62070  Biso   1.000  C
  H879     1.0000 0.69570  0.01870  0.64720  Biso   1.000  H
  C699     1.0000 0.70950  0.05440  0.60450  Biso   1.000  C
  C700     1.0000 0.71150  0.05770  0.56580  Biso   1.000  C
  H880     1.0000 0.71880  0.08090  0.55480  Biso   1.000  H
  C701     1.0000 0.70330  0.02880  0.54400  Biso   1.000  C
  H881     1.0000 0.70500  0.03100  0.51750  Biso   1.000  H
  C702     1.0000 0.69200  0.99430  0.56090  Biso   1.000  C
  H882     1.0000 0.68540  0.97390  0.54510  Biso   1.000  H
  C703     1.0000 0.73210  0.77980  0.64670  Biso   1.000  C
  H883     1.0000 0.72990  0.77510  0.61940  Biso   1.000  H
  H884     1.0000 0.75750  0.78990  0.65160  Biso   1.000  H
  C704     1.0000 0.72890  0.09120  0.61920  Biso   1.000  C
  H885     1.0000 0.74960  0.09920  0.60240  Biso   1.000  H
  H886     1.0000 0.71070  0.11200  0.62180  Biso   1.000  H
  N185     1.0000 0.70090  0.04940  0.72030  Biso   1.000  N
  N186     1.0000 0.65618  0.95581  0.67340  Biso   1.000  N
  N187     1.0000 0.67760  0.87380  0.65141  Biso   1.000  N
  N188     1.0000 0.69050  0.98960  0.59830  Biso   1.000  N
  O139     1.0000 0.74310  0.07870  0.65570  Biso   1.000  O
  H887     1.0000 0.75600  0.07100  0.67370  Biso   1.000  H
  O140     1.0000 0.72930  0.74860  0.66890  Biso   1.000  O
  H888     1.0000 0.72100  0.73600  0.68800  Biso   1.000  H
  H889     1.0000 0.75450  0.79330  0.63720  Biso   1.000  H
  H890     1.0000 0.73990  0.76550  0.66930  Biso   1.000  H
  C705     1.0000 0.70940  0.08770  0.63160  Biso   1.000  C
  H891     1.0000 0.71270  0.11180  0.61810  Biso   1.000  H
  H892     1.0000 0.68610  0.08860  0.64660  Biso   1.000  H
  O141     1.0000 0.71940  0.75340  0.61800  Biso   1.000  O
  H893     1.0000 0.73060  0.75360  0.59620  Biso   1.000  H
  C706     1.0000 0.17490  0.53230  0.23090  Biso   1.000  C
  C707     1.0000 0.14390  0.47090  0.19960  Biso   1.000  C
  C708     1.0000 0.20320  0.34700  0.14360  Biso   1.000  C
  H894     1.0000 0.22340  0.35330  0.12740  Biso   1.000  H
  C709     1.0000 0.20170  0.30950  0.15860  Biso   1.000  C
  C710     1.0000 0.17260  0.30110  0.18270  Biso   1.000  C
  H895     1.0000 0.17060  0.27670  0.19320  Biso   1.000  H
  C711     1.0000 0.14590  0.32880  0.19170  Biso   1.000  C
  H896     1.0000 0.12630  0.32360  0.20890  Biso   1.000  H
  C712     1.0000 0.14880  0.36470  0.17460  Biso   1.000  C
  H897     1.0000 0.13000  0.38290  0.17970  Biso   1.000  H
  C713     1.0000 0.19820  0.52060  0.12070  Biso   1.000  C
  H898     1.0000 0.19570  0.51870  0.14720  Biso   1.000  H
  C714     1.0000 0.20950  0.55440  0.10450  Biso   1.000  C
  C715     1.0000 0.21150  0.55770  0.06580  Biso   1.000  C
  H899     1.0000 0.21880  0.58090  0.05480  Biso   1.000  H
  C716     1.0000 0.20330  0.52880  0.04400  Biso   1.000  C
  H900     1.0000 0.20500  0.53100  0.01750  Biso   1.000  H
  C717     1.0000 0.19200  0.49430  0.06090  Biso   1.000  C
  H901     1.0000 0.18540  0.47390  0.04510  Biso   1.000  H
  C718     1.0000 0.23210  0.27980  0.14670  Biso   1.000  C
  H902     1.0000 0.22990  0.27510  0.11940  Biso   1.000  H
  H903     1.0000 0.25750  0.28990  0.15160  Biso   1.000  H
  C719     1.0000 0.22890  0.59120  0.11920  Biso   1.000  C
  H904     1.0000 0.24960  0.59920  0.10240  Biso   1.000  H
  H905     1.0000 0.21070  0.61200  0.12180  Biso   1.000  H
  N189     1.0000 0.20090  0.54940  0.22030  Biso   1.000  N
  N190     1.0000 0.15618  0.45581  0.17340  Biso   1.000  N
  N191     1.0000 0.17760  0.37380  0.15141  Biso   1.000  N
  N192     1.0000 0.19050  0.48960  0.09830  Biso   1.000  N
  O142     1.0000 0.24310  0.57870  0.15570  Biso   1.000  O
  H906     1.0000 0.25600  0.57100  0.17370  Biso   1.000  H
  O143     1.0000 0.22930  0.24860  0.16890  Biso   1.000  O
  H907     1.0000 0.22100  0.23600  0.18800  Biso   1.000  H
  H908     1.0000 0.25450  0.29330  0.13720  Biso   1.000  H
  H909     1.0000 0.23990  0.26550  0.16930  Biso   1.000  H
  C720     1.0000 0.20940  0.58770  0.13160  Biso   1.000  C
  H910     1.0000 0.21270  0.61180  0.11810  Biso   1.000  H
  H911     1.0000 0.18610  0.58860  0.14660  Biso   1.000  H
  O144     1.0000 0.21940  0.25340  0.11800  Biso   1.000  O
  H912     1.0000 0.23060  0.25360  0.09620  Biso   1.000  H
  C721     1.0000 0.98090  0.28230  0.92490  Biso   1.000  C
  C722     1.0000 0.94960  0.22090  0.89390  Biso   1.000  C
  C723     1.0000 0.89360  0.09700  0.95320  Biso   1.000  C
  H913     1.0000 0.87740  0.10330  0.97340  Biso   1.000  H
  C724     1.0000 0.90860  0.05950  0.95170  Biso   1.000  C
  C725     1.0000 0.93270  0.05110  0.92260  Biso   1.000  C
  H914     1.0000 0.94320  0.02670  0.92060  Biso   1.000  H
  C726     1.0000 0.94170  0.07880  0.89590  Biso   1.000  C
  H915     1.0000 0.95890  0.07360  0.87630  Biso   1.000  H
  C727     1.0000 0.92460  0.11470  0.89880  Biso   1.000  C
  H916     1.0000 0.92970  0.13290  0.88000  Biso   1.000  H
  C728     1.0000 0.87070  0.27060  0.94820  Biso   1.000  C
  H917     1.0000 0.89720  0.26870  0.94570  Biso   1.000  H
  C729     1.0000 0.85450  0.30440  0.95950  Biso   1.000  C
  C730     1.0000 0.81580  0.30770  0.96150  Biso   1.000  C
  H918     1.0000 0.80480  0.33090  0.96880  Biso   1.000  H
  C731     1.0000 0.79400  0.27880  0.95330  Biso   1.000  C
  H919     1.0000 0.76750  0.28100  0.95500  Biso   1.000  H
  C732     1.0000 0.81090  0.24430  0.94200  Biso   1.000  C
  H920     1.0000 0.79510  0.22390  0.93540  Biso   1.000  H
  C733     1.0000 0.89670  0.02980  0.98210  Biso   1.000  C
  H921     1.0000 0.86940  0.02510  0.97990  Biso   1.000  H
  H922     1.0000 0.90160  0.03990  0.00750  Biso   1.000  H
  C734     1.0000 0.86920  0.34120  0.97890  Biso   1.000  C
  H923     1.0000 0.85240  0.34920  0.99960  Biso   1.000  H
  H924     1.0000 0.87180  0.36200  0.96070  Biso   1.000  H
  N193     1.0000 0.97030  0.29940  0.95090  Biso   1.000  N
  N194     1.0000 0.92340  0.20581  0.90618  Biso   1.000  N
  N195     1.0000 0.90141  0.12380  0.92760  Biso   1.000  N
  N196     1.0000 0.84830  0.23960  0.94050  Biso   1.000  N
  O145     1.0000 0.90570  0.32870  0.99310  Biso   1.000  O
  H925     1.0000 0.92370  0.32100  0.00600  Biso   1.000  H
  O146     1.0000 0.91890  0.99860  0.97930  Biso   1.000  O
  H926     1.0000 0.93800  0.98600  0.97100  Biso   1.000  H
  H927     1.0000 0.88720  0.04330  0.00450  Biso   1.000  H
  H928     1.0000 0.91930  0.01550  0.98990  Biso   1.000  H
  C735     1.0000 0.88160  0.33770  0.95940  Biso   1.000  C
  H929     1.0000 0.86810  0.36180  0.96270  Biso   1.000  H
  H930     1.0000 0.89660  0.33860  0.93610  Biso   1.000  H
  O147     1.0000 0.86800  0.00340  0.96940  Biso   1.000  O
  H931     1.0000 0.84620  0.00360  0.98060  Biso   1.000  H
  C736     1.0000 0.48090  0.78230  0.42490  Biso   1.000  C
  C737     1.0000 0.44960  0.72090  0.39390  Biso   1.000  C
  C738     1.0000 0.39360  0.59700  0.45320  Biso   1.000  C
  H932     1.0000 0.37740  0.60330  0.47340  Biso   1.000  H
  C739     1.0000 0.40860  0.55950  0.45170  Biso   1.000  C
  C740     1.0000 0.43270  0.55110  0.42260  Biso   1.000  C
  H933     1.0000 0.44320  0.52670  0.42060  Biso   1.000  H
  C741     1.0000 0.44170  0.57880  0.39590  Biso   1.000  C
  H934     1.0000 0.45890  0.57360  0.37630  Biso   1.000  H
  C742     1.0000 0.42460  0.61470  0.39880  Biso   1.000  C
  H935     1.0000 0.42970  0.63290  0.38000  Biso   1.000  H
  C743     1.0000 0.37070  0.77060  0.44820  Biso   1.000  C
  H936     1.0000 0.39720  0.76870  0.44570  Biso   1.000  H
  C744     1.0000 0.35450  0.80440  0.45950  Biso   1.000  C
  C745     1.0000 0.31580  0.80770  0.46150  Biso   1.000  C
  H937     1.0000 0.30480  0.83090  0.46880  Biso   1.000  H
  C746     1.0000 0.29400  0.77880  0.45330  Biso   1.000  C
  H938     1.0000 0.26750  0.78100  0.45500  Biso   1.000  H
  C747     1.0000 0.31090  0.74430  0.44200  Biso   1.000  C
  H939     1.0000 0.29510  0.72390  0.43540  Biso   1.000  H
  C748     1.0000 0.39670  0.52980  0.48210  Biso   1.000  C
  H940     1.0000 0.36940  0.52510  0.47990  Biso   1.000  H
  H941     1.0000 0.40160  0.53990  0.50750  Biso   1.000  H
  C749     1.0000 0.36920  0.84120  0.47890  Biso   1.000  C
  H942     1.0000 0.35240  0.84920  0.49960  Biso   1.000  H
  H943     1.0000 0.37180  0.86200  0.46070  Biso   1.000  H
  N197     1.0000 0.47030  0.79940  0.45090  Biso   1.000  N
  N198     1.0000 0.42340  0.70581  0.40618  Biso   1.000  N
  N199     1.0000 0.40141  0.62380  0.42760  Biso   1.000  N
  N200     1.0000 0.34830  0.73960  0.44050  Biso   1.000  N
  O148     1.0000 0.40570  0.82870  0.49310  Biso   1.000  O
  H944     1.0000 0.42370  0.82100  0.50600  Biso   1.000  H
  O149     1.0000 0.41890  0.49860  0.47930  Biso   1.000  O
  H945     1.0000 0.43800  0.48600  0.47100  Biso   1.000  H
  H946     1.0000 0.38720  0.54330  0.50450  Biso   1.000  H
  H947     1.0000 0.41930  0.51550  0.48990  Biso   1.000  H
  C750     1.0000 0.38160  0.83770  0.45940  Biso   1.000  C
  H948     1.0000 0.36810  0.86180  0.46270  Biso   1.000  H
  H949     1.0000 0.39660  0.83860  0.43610  Biso   1.000  H
  O150     1.0000 0.36800  0.50340  0.46940  Biso   1.000  O
  H950     1.0000 0.34620  0.50360  0.48060  Biso   1.000  H
  C751     1.0000 0.51910  0.71770  0.42490  Biso   1.000  C
  C752     1.0000 0.55040  0.77910  0.39390  Biso   1.000  C
  C753     1.0000 0.60640  0.90300  0.45320  Biso   1.000  C
  H951     1.0000 0.62260  0.89670  0.47340  Biso   1.000  H
  C754     1.0000 0.59140  0.94050  0.45170  Biso   1.000  C
  C755     1.0000 0.56730  0.94890  0.42260  Biso   1.000  C
  H952     1.0000 0.55680  0.97330  0.42060  Biso   1.000  H
  C756     1.0000 0.55830  0.92120  0.39590  Biso   1.000  C
  H953     1.0000 0.54110  0.92640  0.37630  Biso   1.000  H
  C757     1.0000 0.57540  0.88530  0.39880  Biso   1.000  C
  H954     1.0000 0.57030  0.86710  0.38000  Biso   1.000  H
  C758     1.0000 0.62930  0.72940  0.44820  Biso   1.000  C
  H955     1.0000 0.60280  0.73130  0.44570  Biso   1.000  H
  C759     1.0000 0.64550  0.69560  0.45950  Biso   1.000  C
  C760     1.0000 0.68420  0.69230  0.46150  Biso   1.000  C
  H956     1.0000 0.69520  0.66910  0.46880  Biso   1.000  H
  C761     1.0000 0.70600  0.72120  0.45330  Biso   1.000  C
  H957     1.0000 0.73250  0.71900  0.45500  Biso   1.000  H
  C762     1.0000 0.68910  0.75570  0.44200  Biso   1.000  C
  H958     1.0000 0.70490  0.77610  0.43540  Biso   1.000  H
  C763     1.0000 0.60330  0.97020  0.48210  Biso   1.000  C
  H959     1.0000 0.63060  0.97490  0.47990  Biso   1.000  H
  H960     1.0000 0.59840  0.96010  0.50750  Biso   1.000  H
  C764     1.0000 0.63080  0.65880  0.47890  Biso   1.000  C
  H961     1.0000 0.64760  0.65080  0.49960  Biso   1.000  H
  H962     1.0000 0.62820  0.63800  0.46070  Biso   1.000  H
  N201     1.0000 0.52970  0.70060  0.45090  Biso   1.000  N
  N202     1.0000 0.57660  0.79419  0.40618  Biso   1.000  N
  N203     1.0000 0.59859  0.87620  0.42760  Biso   1.000  N
  N204     1.0000 0.65170  0.76040  0.44050  Biso   1.000  N
  O151     1.0000 0.59430  0.67130  0.49310  Biso   1.000  O
  H963     1.0000 0.57630  0.67900  0.50600  Biso   1.000  H
  O152     1.0000 0.58110  0.00140  0.47930  Biso   1.000  O
  H964     1.0000 0.56200  0.01400  0.47100  Biso   1.000  H
  H965     1.0000 0.61280  0.95670  0.50450  Biso   1.000  H
  H966     1.0000 0.58070  0.98450  0.48990  Biso   1.000  H
  C765     1.0000 0.61840  0.66230  0.45940  Biso   1.000  C
  H967     1.0000 0.63190  0.63820  0.46270  Biso   1.000  H
  H968     1.0000 0.60340  0.66140  0.43610  Biso   1.000  H
  O153     1.0000 0.63200  0.99660  0.46940  Biso   1.000  O
  H969     1.0000 0.65380  0.99640  0.48060  Biso   1.000  H
  C766     1.0000 0.01910  0.21770  0.92490  Biso   1.000  C
  C767     1.0000 0.05040  0.27910  0.89390  Biso   1.000  C
  C768     1.0000 0.10640  0.40300  0.95320  Biso   1.000  C
  H970     1.0000 0.12260  0.39670  0.97340  Biso   1.000  H
  C769     1.0000 0.09140  0.44050  0.95170  Biso   1.000  C
  C770     1.0000 0.06730  0.44890  0.92260  Biso   1.000  C
  H971     1.0000 0.05680  0.47330  0.92060  Biso   1.000  H
  C771     1.0000 0.05830  0.42120  0.89590  Biso   1.000  C
  H972     1.0000 0.04110  0.42640  0.87630  Biso   1.000  H
  C772     1.0000 0.07540  0.38530  0.89880  Biso   1.000  C
  H973     1.0000 0.07030  0.36710  0.88000  Biso   1.000  H
  C773     1.0000 0.12930  0.22940  0.94820  Biso   1.000  C
  H974     1.0000 0.10280  0.23130  0.94570  Biso   1.000  H
  C774     1.0000 0.14550  0.19560  0.95950  Biso   1.000  C
  C775     1.0000 0.18420  0.19230  0.96150  Biso   1.000  C
  H975     1.0000 0.19520  0.16910  0.96880  Biso   1.000  H
  C776     1.0000 0.20600  0.22120  0.95330  Biso   1.000  C
  H976     1.0000 0.23250  0.21900  0.95500  Biso   1.000  H
  C777     1.0000 0.18910  0.25570  0.94200  Biso   1.000  C
  H977     1.0000 0.20490  0.27610  0.93540  Biso   1.000  H
  C778     1.0000 0.10330  0.47020  0.98210  Biso   1.000  C
  H978     1.0000 0.13060  0.47490  0.97990  Biso   1.000  H
  H979     1.0000 0.09840  0.46010  0.00750  Biso   1.000  H
  C779     1.0000 0.13080  0.15880  0.97890  Biso   1.000  C
  H980     1.0000 0.14760  0.15080  0.99960  Biso   1.000  H
  H981     1.0000 0.12820  0.13800  0.96070  Biso   1.000  H
  N205     1.0000 0.02970  0.20060  0.95090  Biso   1.000  N
  N206     1.0000 0.07660  0.29419  0.90618  Biso   1.000  N
  N207     1.0000 0.09859  0.37620  0.92760  Biso   1.000  N
  N208     1.0000 0.15170  0.26040  0.94050  Biso   1.000  N
  O154     1.0000 0.09430  0.17130  0.99310  Biso   1.000  O
  H982     1.0000 0.07630  0.17900  0.00600  Biso   1.000  H
  O155     1.0000 0.08110  0.50140  0.97930  Biso   1.000  O
  H983     1.0000 0.06200  0.51400  0.97100  Biso   1.000  H
  H984     1.0000 0.11280  0.45670  0.00450  Biso   1.000  H
  H985     1.0000 0.08070  0.48450  0.98990  Biso   1.000  H
  C780     1.0000 0.11840  0.16230  0.95940  Biso   1.000  C
  H986     1.0000 0.13190  0.13820  0.96270  Biso   1.000  H
  H987     1.0000 0.10340  0.16140  0.93610  Biso   1.000  H
  O156     1.0000 0.13200  0.49660  0.96940  Biso   1.000  O
  H988     1.0000 0.15380  0.49640  0.98060  Biso   1.000  H
  C781     1.0000 0.01910  0.78230  0.57510  Biso   1.000  C
  C782     1.0000 0.05040  0.72090  0.60610  Biso   1.000  C
  C783     1.0000 0.10640  0.59700  0.54680  Biso   1.000  C
  H989     1.0000 0.12260  0.60330  0.52660  Biso   1.000  H
  C784     1.0000 0.09140  0.55950  0.54830  Biso   1.000  C
  C785     1.0000 0.06730  0.55110  0.57740  Biso   1.000  C
  H990     1.0000 0.05680  0.52670  0.57940  Biso   1.000  H
  C786     1.0000 0.05830  0.57880  0.60410  Biso   1.000  C
  H991     1.0000 0.04110  0.57360  0.62370  Biso   1.000  H
  C787     1.0000 0.07540  0.61470  0.60120  Biso   1.000  C
  H992     1.0000 0.07030  0.63290  0.62000  Biso   1.000  H
  C788     1.0000 0.12930  0.77060  0.55180  Biso   1.000  C
  H993     1.0000 0.10280  0.76870  0.55430  Biso   1.000  H
  C789     1.0000 0.14550  0.80440  0.54050  Biso   1.000  C
  C790     1.0000 0.18420  0.80770  0.53850  Biso   1.000  C
  H994     1.0000 0.19520  0.83090  0.53120  Biso   1.000  H
  C791     1.0000 0.20600  0.77880  0.54670  Biso   1.000  C
  H995     1.0000 0.23250  0.78100  0.54500  Biso   1.000  H
  C792     1.0000 0.18910  0.74430  0.55800  Biso   1.000  C
  H996     1.0000 0.20490  0.72390  0.56460  Biso   1.000  H
  C793     1.0000 0.10330  0.52980  0.51790  Biso   1.000  C
  H997     1.0000 0.13060  0.52510  0.52010  Biso   1.000  H
  H998     1.0000 0.09840  0.53990  0.49250  Biso   1.000  H
  C794     1.0000 0.13080  0.84120  0.52110  Biso   1.000  C
  H999     1.0000 0.14760  0.84920  0.50040  Biso   1.000  H
  H1000    1.0000 0.12820  0.86200  0.53930  Biso   1.000  H
  N209     1.0000 0.02970  0.79940  0.54910  Biso   1.000  N
  N210     1.0000 0.07660  0.70581  0.59382  Biso   1.000  N
  N211     1.0000 0.09859  0.62380  0.57240  Biso   1.000  N
  N212     1.0000 0.15170  0.73960  0.55950  Biso   1.000  N
  O157     1.0000 0.09430  0.82870  0.50690  Biso   1.000  O
  H1001    1.0000 0.07630  0.82100  0.49400  Biso   1.000  H
  O158     1.0000 0.08110  0.49860  0.52070  Biso   1.000  O
  H1002    1.0000 0.06200  0.48600  0.52900  Biso   1.000  H
  H1003    1.0000 0.11280  0.54330  0.49550  Biso   1.000  H
  H1004    1.0000 0.08070  0.51550  0.51010  Biso   1.000  H
  C795     1.0000 0.11840  0.83770  0.54060  Biso   1.000  C
  H1005    1.0000 0.13190  0.86180  0.53730  Biso   1.000  H
  H1006    1.0000 0.10340  0.83860  0.56390  Biso   1.000  H
  O159     1.0000 0.13200  0.50340  0.53060  Biso   1.000  O
  H1007    1.0000 0.15380  0.50360  0.51940  Biso   1.000  H
  C796     1.0000 0.51910  0.28230  0.07510  Biso   1.000  C
  C797     1.0000 0.55040  0.22090  0.10610  Biso   1.000  C
  C798     1.0000 0.60640  0.09700  0.04680  Biso   1.000  C
  H1008    1.0000 0.62260  0.10330  0.02660  Biso   1.000  H
  C799     1.0000 0.59140  0.05950  0.04830  Biso   1.000  C
  C800     1.0000 0.56730  0.05110  0.07740  Biso   1.000  C
  H1009    1.0000 0.55680  0.02670  0.07940  Biso   1.000  H
  C801     1.0000 0.55830  0.07880  0.10410  Biso   1.000  C
  H1010    1.0000 0.54110  0.07360  0.12370  Biso   1.000  H
  C802     1.0000 0.57540  0.11470  0.10120  Biso   1.000  C
  H1011    1.0000 0.57030  0.13290  0.12000  Biso   1.000  H
  C803     1.0000 0.62930  0.27060  0.05180  Biso   1.000  C
  H1012    1.0000 0.60280  0.26870  0.05430  Biso   1.000  H
  C804     1.0000 0.64550  0.30440  0.04050  Biso   1.000  C
  C805     1.0000 0.68420  0.30770  0.03850  Biso   1.000  C
  H1013    1.0000 0.69520  0.33090  0.03120  Biso   1.000  H
  C806     1.0000 0.70600  0.27880  0.04670  Biso   1.000  C
  H1014    1.0000 0.73250  0.28100  0.04500  Biso   1.000  H
  C807     1.0000 0.68910  0.24430  0.05800  Biso   1.000  C
  H1015    1.0000 0.70490  0.22390  0.06460  Biso   1.000  H
  C808     1.0000 0.60330  0.02980  0.01790  Biso   1.000  C
  H1016    1.0000 0.63060  0.02510  0.02010  Biso   1.000  H
  H1017    1.0000 0.59840  0.03990  0.99250  Biso   1.000  H
  C809     1.0000 0.63080  0.34120  0.02110  Biso   1.000  C
  H1018    1.0000 0.64760  0.34920  0.00040  Biso   1.000  H
  H1019    1.0000 0.62820  0.36200  0.03930  Biso   1.000  H
  N213     1.0000 0.52970  0.29940  0.04910  Biso   1.000  N
  N214     1.0000 0.57660  0.20581  0.09382  Biso   1.000  N
  N215     1.0000 0.59859  0.12380  0.07240  Biso   1.000  N
  N216     1.0000 0.65170  0.23960  0.05950  Biso   1.000  N
  O160     1.0000 0.59430  0.32870  0.00690  Biso   1.000  O
  H1020    1.0000 0.57630  0.32100  0.99400  Biso   1.000  H
  O161     1.0000 0.58110  0.99860  0.02070  Biso   1.000  O
  H1021    1.0000 0.56200  0.98600  0.02900  Biso   1.000  H
  H1022    1.0000 0.61280  0.04330  0.99550  Biso   1.000  H
  H1023    1.0000 0.58070  0.01550  0.01010  Biso   1.000  H
  C810     1.0000 0.61840  0.33770  0.04060  Biso   1.000  C
  H1024    1.0000 0.63190  0.36180  0.03730  Biso   1.000  H
  H1025    1.0000 0.60340  0.33860  0.06390  Biso   1.000  H
  O162     1.0000 0.63200  0.00340  0.03060  Biso   1.000  O
  H1026    1.0000 0.65380  0.00360  0.01940  Biso   1.000  H
  C811     1.0000 0.48090  0.21770  0.07510  Biso   1.000  C
  C812     1.0000 0.44960  0.27910  0.10610  Biso   1.000  C
  C813     1.0000 0.39360  0.40300  0.04680  Biso   1.000  C
  H1027    1.0000 0.37740  0.39670  0.02660  Biso   1.000  H
  C814     1.0000 0.40860  0.44050  0.04830  Biso   1.000  C
  C815     1.0000 0.43270  0.44890  0.07740  Biso   1.000  C
  H1028    1.0000 0.44320  0.47330  0.07940  Biso   1.000  H
  C816     1.0000 0.44170  0.42120  0.10410  Biso   1.000  C
  H1029    1.0000 0.45890  0.42640  0.12370  Biso   1.000  H
  C817     1.0000 0.42460  0.38530  0.10120  Biso   1.000  C
  H1030    1.0000 0.42970  0.36710  0.12000  Biso   1.000  H
  C818     1.0000 0.37070  0.22940  0.05180  Biso   1.000  C
  H1031    1.0000 0.39720  0.23130  0.05430  Biso   1.000  H
  C819     1.0000 0.35450  0.19560  0.04050  Biso   1.000  C
  C820     1.0000 0.31580  0.19230  0.03850  Biso   1.000  C
  H1032    1.0000 0.30480  0.16910  0.03120  Biso   1.000  H
  C821     1.0000 0.29400  0.22120  0.04670  Biso   1.000  C
  H1033    1.0000 0.26750  0.21900  0.04500  Biso   1.000  H
  C822     1.0000 0.31090  0.25570  0.05800  Biso   1.000  C
  H1034    1.0000 0.29510  0.27610  0.06460  Biso   1.000  H
  C823     1.0000 0.39670  0.47020  0.01790  Biso   1.000  C
  H1035    1.0000 0.36940  0.47490  0.02010  Biso   1.000  H
  H1036    1.0000 0.40160  0.46010  0.99250  Biso   1.000  H
  C824     1.0000 0.36920  0.15880  0.02110  Biso   1.000  C
  H1037    1.0000 0.35240  0.15080  0.00040  Biso   1.000  H
  H1038    1.0000 0.37180  0.13800  0.03930  Biso   1.000  H
  N217     1.0000 0.47030  0.20060  0.04910  Biso   1.000  N
  N218     1.0000 0.42340  0.29419  0.09382  Biso   1.000  N
  N219     1.0000 0.40141  0.37620  0.07240  Biso   1.000  N
  N220     1.0000 0.34830  0.26040  0.05950  Biso   1.000  N
  O163     1.0000 0.40570  0.17130  0.00690  Biso   1.000  O
  H1039    1.0000 0.42370  0.17900  0.99400  Biso   1.000  H
  O164     1.0000 0.41890  0.50140  0.02070  Biso   1.000  O
  H1040    1.0000 0.43800  0.51400  0.02900  Biso   1.000  H
  H1041    1.0000 0.38720  0.45670  0.99550  Biso   1.000  H
  H1042    1.0000 0.41930  0.48450  0.01010  Biso   1.000  H
  C825     1.0000 0.38160  0.16230  0.04060  Biso   1.000  C
  H1043    1.0000 0.36810  0.13820  0.03730  Biso   1.000  H
  H1044    1.0000 0.39660  0.16140  0.06390  Biso   1.000  H
  O165     1.0000 0.36800  0.49660  0.03060  Biso   1.000  O
  H1045    1.0000 0.34620  0.49640  0.01940  Biso   1.000  H
  C826     1.0000 0.98090  0.71770  0.57510  Biso   1.000  C
  C827     1.0000 0.94960  0.77910  0.60610  Biso   1.000  C
  C828     1.0000 0.89360  0.90300  0.54680  Biso   1.000  C
  H1046    1.0000 0.87740  0.89670  0.52660  Biso   1.000  H
  C829     1.0000 0.90860  0.94050  0.54830  Biso   1.000  C
  C830     1.0000 0.93270  0.94890  0.57740  Biso   1.000  C
  H1047    1.0000 0.94320  0.97330  0.57940  Biso   1.000  H
  C831     1.0000 0.94170  0.92120  0.60410  Biso   1.000  C
  H1048    1.0000 0.95890  0.92640  0.62370  Biso   1.000  H
  C832     1.0000 0.92460  0.88530  0.60120  Biso   1.000  C
  H1049    1.0000 0.92970  0.86710  0.62000  Biso   1.000  H
  C833     1.0000 0.87070  0.72940  0.55180  Biso   1.000  C
  H1050    1.0000 0.89720  0.73130  0.55430  Biso   1.000  H
  C834     1.0000 0.85450  0.69560  0.54050  Biso   1.000  C
  C835     1.0000 0.81580  0.69230  0.53850  Biso   1.000  C
  H1051    1.0000 0.80480  0.66910  0.53120  Biso   1.000  H
  C836     1.0000 0.79400  0.72120  0.54670  Biso   1.000  C
  H1052    1.0000 0.76750  0.71900  0.54500  Biso   1.000  H
  C837     1.0000 0.81090  0.75570  0.55800  Biso   1.000  C
  H1053    1.0000 0.79510  0.77610  0.56460  Biso   1.000  H
  C838     1.0000 0.89670  0.97020  0.51790  Biso   1.000  C
  H1054    1.0000 0.86940  0.97490  0.52010  Biso   1.000  H
  H1055    1.0000 0.90160  0.96010  0.49250  Biso   1.000  H
  C839     1.0000 0.86920  0.65880  0.52110  Biso   1.000  C
  H1056    1.0000 0.85240  0.65080  0.50040  Biso   1.000  H
  H1057    1.0000 0.87180  0.63800  0.53930  Biso   1.000  H
  N221     1.0000 0.97030  0.70060  0.54910  Biso   1.000  N
  N222     1.0000 0.92340  0.79419  0.59382  Biso   1.000  N
  N223     1.0000 0.90141  0.87620  0.57240  Biso   1.000  N
  N224     1.0000 0.84830  0.76040  0.55950  Biso   1.000  N
  O166     1.0000 0.90570  0.67130  0.50690  Biso   1.000  O
  H1058    1.0000 0.92370  0.67900  0.49400  Biso   1.000  H
  O167     1.0000 0.91890  0.00140  0.52070  Biso   1.000  O
  H1059    1.0000 0.93800  0.01400  0.52900  Biso   1.000  H
  H1060    1.0000 0.88720  0.95670  0.49550  Biso   1.000  H
  H1061    1.0000 0.91930  0.98450  0.51010  Biso   1.000  H
  C840     1.0000 0.88160  0.66230  0.54060  Biso   1.000  C
  H1062    1.0000 0.86810  0.63820  0.53730  Biso   1.000  H
  H1063    1.0000 0.89660  0.66140  0.56390  Biso   1.000  H
  O168     1.0000 0.86800  0.99660  0.53060  Biso   1.000  O
  H1064    1.0000 0.84620  0.99640  0.51940  Biso   1.000  H
  C841     1.0000 0.92490  0.98090  0.28230  Biso   1.000  C
  C842     1.0000 0.89390  0.94960  0.22090  Biso   1.000  C
  C843     1.0000 0.95320  0.89360  0.09700  Biso   1.000  C
  H1065    1.0000 0.97340  0.87740  0.10330  Biso   1.000  H
  C844     1.0000 0.95170  0.90860  0.05950  Biso   1.000  C
  C845     1.0000 0.92260  0.93270  0.05110  Biso   1.000  C
  H1066    1.0000 0.92060  0.94320  0.02670  Biso   1.000  H
  C846     1.0000 0.89590  0.94170  0.07880  Biso   1.000  C
  H1067    1.0000 0.87630  0.95890  0.07360  Biso   1.000  H
  C847     1.0000 0.89880  0.92460  0.11470  Biso   1.000  C
  H1068    1.0000 0.88000  0.92970  0.13290  Biso   1.000  H
  C848     1.0000 0.94820  0.87070  0.27060  Biso   1.000  C
  H1069    1.0000 0.94570  0.89720  0.26870  Biso   1.000  H
  C849     1.0000 0.95950  0.85450  0.30440  Biso   1.000  C
  C850     1.0000 0.96150  0.81580  0.30770  Biso   1.000  C
  H1070    1.0000 0.96880  0.80480  0.33090  Biso   1.000  H
  C851     1.0000 0.95330  0.79400  0.27880  Biso   1.000  C
  H1071    1.0000 0.95500  0.76750  0.28100  Biso   1.000  H
  C852     1.0000 0.94200  0.81090  0.24430  Biso   1.000  C
  H1072    1.0000 0.93540  0.79510  0.22390  Biso   1.000  H
  C853     1.0000 0.98210  0.89670  0.02980  Biso   1.000  C
  H1073    1.0000 0.97990  0.86940  0.02510  Biso   1.000  H
  H1074    1.0000 0.00750  0.90160  0.03990  Biso   1.000  H
  C854     1.0000 0.97890  0.86920  0.34120  Biso   1.000  C
  H1075    1.0000 0.99960  0.85240  0.34920  Biso   1.000  H
  H1076    1.0000 0.96070  0.87180  0.36200  Biso   1.000  H
  N225     1.0000 0.95090  0.97030  0.29940  Biso   1.000  N
  N226     1.0000 0.90618  0.92340  0.20581  Biso   1.000  N
  N227     1.0000 0.92760  0.90141  0.12380  Biso   1.000  N
  N228     1.0000 0.94050  0.84830  0.23960  Biso   1.000  N
  O169     1.0000 0.99310  0.90570  0.32870  Biso   1.000  O
  H1077    1.0000 0.00600  0.92370  0.32100  Biso   1.000  H
  O170     1.0000 0.97930  0.91890  0.99860  Biso   1.000  O
  H1078    1.0000 0.97100  0.93800  0.98600  Biso   1.000  H
  H1079    1.0000 0.00450  0.88720  0.04330  Biso   1.000  H
  H1080    1.0000 0.98990  0.91930  0.01550  Biso   1.000  H
  C855     1.0000 0.95940  0.88160  0.33770  Biso   1.000  C
  H1081    1.0000 0.96270  0.86810  0.36180  Biso   1.000  H
  H1082    1.0000 0.93610  0.89660  0.33860  Biso   1.000  H
  O171     1.0000 0.96940  0.86800  0.00340  Biso   1.000  O
  H1083    1.0000 0.98060  0.84620  0.00360  Biso   1.000  H
  C856     1.0000 0.42490  0.48090  0.78230  Biso   1.000  C
  C857     1.0000 0.39390  0.44960  0.72090  Biso   1.000  C
  C858     1.0000 0.45320  0.39360  0.59700  Biso   1.000  C
  H1084    1.0000 0.47340  0.37740  0.60330  Biso   1.000  H
  C859     1.0000 0.45170  0.40860  0.55950  Biso   1.000  C
  C860     1.0000 0.42260  0.43270  0.55110  Biso   1.000  C
  H1085    1.0000 0.42060  0.44320  0.52670  Biso   1.000  H
  C861     1.0000 0.39590  0.44170  0.57880  Biso   1.000  C
  H1086    1.0000 0.37630  0.45890  0.57360  Biso   1.000  H
  C862     1.0000 0.39880  0.42460  0.61470  Biso   1.000  C
  H1087    1.0000 0.38000  0.42970  0.63290  Biso   1.000  H
  C863     1.0000 0.44820  0.37070  0.77060  Biso   1.000  C
  H1088    1.0000 0.44570  0.39720  0.76870  Biso   1.000  H
  C864     1.0000 0.45950  0.35450  0.80440  Biso   1.000  C
  C865     1.0000 0.46150  0.31580  0.80770  Biso   1.000  C
  H1089    1.0000 0.46880  0.30480  0.83090  Biso   1.000  H
  C866     1.0000 0.45330  0.29400  0.77880  Biso   1.000  C
  H1090    1.0000 0.45500  0.26750  0.78100  Biso   1.000  H
  C867     1.0000 0.44200  0.31090  0.74430  Biso   1.000  C
  H1091    1.0000 0.43540  0.29510  0.72390  Biso   1.000  H
  C868     1.0000 0.48210  0.39670  0.52980  Biso   1.000  C
  H1092    1.0000 0.47990  0.36940  0.52510  Biso   1.000  H
  H1093    1.0000 0.50750  0.40160  0.53990  Biso   1.000  H
  C869     1.0000 0.47890  0.36920  0.84120  Biso   1.000  C
  H1094    1.0000 0.49960  0.35240  0.84920  Biso   1.000  H
  H1095    1.0000 0.46070  0.37180  0.86200  Biso   1.000  H
  N229     1.0000 0.45090  0.47030  0.79940  Biso   1.000  N
  N230     1.0000 0.40618  0.42340  0.70581  Biso   1.000  N
  N231     1.0000 0.42760  0.40141  0.62380  Biso   1.000  N
  N232     1.0000 0.44050  0.34830  0.73960  Biso   1.000  N
  O172     1.0000 0.49310  0.40570  0.82870  Biso   1.000  O
  H1096    1.0000 0.50600  0.42370  0.82100  Biso   1.000  H
  O173     1.0000 0.47930  0.41890  0.49860  Biso   1.000  O
  H1097    1.0000 0.47100  0.43800  0.48600  Biso   1.000  H
  H1098    1.0000 0.50450  0.38720  0.54330  Biso   1.000  H
  H1099    1.0000 0.48990  0.41930  0.51550  Biso   1.000  H
  C870     1.0000 0.45940  0.38160  0.83770  Biso   1.000  C
  H1100    1.0000 0.46270  0.36810  0.86180  Biso   1.000  H
  H1101    1.0000 0.43610  0.39660  0.83860  Biso   1.000  H
  O174     1.0000 0.46940  0.36800  0.50340  Biso   1.000  O
  H1102    1.0000 0.48060  0.34620  0.50360  Biso   1.000  H
  C871     1.0000 0.42490  0.51910  0.71770  Biso   1.000  C
  C872     1.0000 0.39390  0.55040  0.77910  Biso   1.000  C
  C873     1.0000 0.45320  0.60640  0.90300  Biso   1.000  C
  H1103    1.0000 0.47340  0.62260  0.89670  Biso   1.000  H
  C874     1.0000 0.45170  0.59140  0.94050  Biso   1.000  C
  C875     1.0000 0.42260  0.56730  0.94890  Biso   1.000  C
  H1104    1.0000 0.42060  0.55680  0.97330  Biso   1.000  H
  C876     1.0000 0.39590  0.55830  0.92120  Biso   1.000  C
  H1105    1.0000 0.37630  0.54110  0.92640  Biso   1.000  H
  C877     1.0000 0.39880  0.57540  0.88530  Biso   1.000  C
  H1106    1.0000 0.38000  0.57030  0.86710  Biso   1.000  H
  C878     1.0000 0.44820  0.62930  0.72940  Biso   1.000  C
  H1107    1.0000 0.44570  0.60280  0.73130  Biso   1.000  H
  C879     1.0000 0.45950  0.64550  0.69560  Biso   1.000  C
  C880     1.0000 0.46150  0.68420  0.69230  Biso   1.000  C
  H1108    1.0000 0.46880  0.69520  0.66910  Biso   1.000  H
  C881     1.0000 0.45330  0.70600  0.72120  Biso   1.000  C
  H1109    1.0000 0.45500  0.73250  0.71900  Biso   1.000  H
  C882     1.0000 0.44200  0.68910  0.75570  Biso   1.000  C
  H1110    1.0000 0.43540  0.70490  0.77610  Biso   1.000  H
  C883     1.0000 0.48210  0.60330  0.97020  Biso   1.000  C
  H1111    1.0000 0.47990  0.63060  0.97490  Biso   1.000  H
  H1112    1.0000 0.50750  0.59840  0.96010  Biso   1.000  H
  C884     1.0000 0.47890  0.63080  0.65880  Biso   1.000  C
  H1113    1.0000 0.49960  0.64760  0.65080  Biso   1.000  H
  H1114    1.0000 0.46070  0.62820  0.63800  Biso   1.000  H
  N233     1.0000 0.45090  0.52970  0.70060  Biso   1.000  N
  N234     1.0000 0.40618  0.57660  0.79419  Biso   1.000  N
  N235     1.0000 0.42760  0.59859  0.87620  Biso   1.000  N
  N236     1.0000 0.44050  0.65170  0.76040  Biso   1.000  N
  O175     1.0000 0.49310  0.59430  0.67130  Biso   1.000  O
  H1115    1.0000 0.50600  0.57630  0.67900  Biso   1.000  H
  O176     1.0000 0.47930  0.58110  0.00140  Biso   1.000  O
  H1116    1.0000 0.47100  0.56200  0.01400  Biso   1.000  H
  H1117    1.0000 0.50450  0.61280  0.95670  Biso   1.000  H
  H1118    1.0000 0.48990  0.58070  0.98450  Biso   1.000  H
  C885     1.0000 0.45940  0.61840  0.66230  Biso   1.000  C
  H1119    1.0000 0.46270  0.63190  0.63820  Biso   1.000  H
  H1120    1.0000 0.43610  0.60340  0.66140  Biso   1.000  H
  O177     1.0000 0.46940  0.63200  0.99660  Biso   1.000  O
  H1121    1.0000 0.48060  0.65380  0.99640  Biso   1.000  H
  C886     1.0000 0.92490  0.01910  0.21770  Biso   1.000  C
  C887     1.0000 0.89390  0.05040  0.27910  Biso   1.000  C
  C888     1.0000 0.95320  0.10640  0.40300  Biso   1.000  C
  H1122    1.0000 0.97340  0.12260  0.39670  Biso   1.000  H
  C889     1.0000 0.95170  0.09140  0.44050  Biso   1.000  C
  C890     1.0000 0.92260  0.06730  0.44890  Biso   1.000  C
  H1123    1.0000 0.92060  0.05680  0.47330  Biso   1.000  H
  C891     1.0000 0.89590  0.05830  0.42120  Biso   1.000  C
  H1124    1.0000 0.87630  0.04110  0.42640  Biso   1.000  H
  C892     1.0000 0.89880  0.07540  0.38530  Biso   1.000  C
  H1125    1.0000 0.88000  0.07030  0.36710  Biso   1.000  H
  C893     1.0000 0.94820  0.12930  0.22940  Biso   1.000  C
  H1126    1.0000 0.94570  0.10280  0.23130  Biso   1.000  H
  C894     1.0000 0.95950  0.14550  0.19560  Biso   1.000  C
  C895     1.0000 0.96150  0.18420  0.19230  Biso   1.000  C
  H1127    1.0000 0.96880  0.19520  0.16910  Biso   1.000  H
  C896     1.0000 0.95330  0.20600  0.22120  Biso   1.000  C
  H1128    1.0000 0.95500  0.23250  0.21900  Biso   1.000  H
  C897     1.0000 0.94200  0.18910  0.25570  Biso   1.000  C
  H1129    1.0000 0.93540  0.20490  0.27610  Biso   1.000  H
  C898     1.0000 0.98210  0.10330  0.47020  Biso   1.000  C
  H1130    1.0000 0.97990  0.13060  0.47490  Biso   1.000  H
  H1131    1.0000 0.00750  0.09840  0.46010  Biso   1.000  H
  C899     1.0000 0.97890  0.13080  0.15880  Biso   1.000  C
  H1132    1.0000 0.99960  0.14760  0.15080  Biso   1.000  H
  H1133    1.0000 0.96070  0.12820  0.13800  Biso   1.000  H
  N237     1.0000 0.95090  0.02970  0.20060  Biso   1.000  N
  N238     1.0000 0.90618  0.07660  0.29419  Biso   1.000  N
  N239     1.0000 0.92760  0.09859  0.37620  Biso   1.000  N
  N240     1.0000 0.94050  0.15170  0.26040  Biso   1.000  N
  O178     1.0000 0.99310  0.09430  0.17130  Biso   1.000  O
  H1134    1.0000 0.00600  0.07630  0.17900  Biso   1.000  H
  O179     1.0000 0.97930  0.08110  0.50140  Biso   1.000  O
  H1135    1.0000 0.97100  0.06200  0.51400  Biso   1.000  H
  H1136    1.0000 0.00450  0.11280  0.45670  Biso   1.000  H
  H1137    1.0000 0.98990  0.08070  0.48450  Biso   1.000  H
  C900     1.0000 0.95940  0.11840  0.16230  Biso   1.000  C
  H1138    1.0000 0.96270  0.13190  0.13820  Biso   1.000  H
  H1139    1.0000 0.93610  0.10340  0.16140  Biso   1.000  H
  O180     1.0000 0.96940  0.13200  0.49660  Biso   1.000  O
  H1140    1.0000 0.98060  0.15380  0.49640  Biso   1.000  H
  C901     1.0000 0.57510  0.01910  0.78230  Biso   1.000  C
  C902     1.0000 0.60610  0.05040  0.72090  Biso   1.000  C
  C903     1.0000 0.54680  0.10640  0.59700  Biso   1.000  C
  H1141    1.0000 0.52660  0.12260  0.60330  Biso   1.000  H
  C904     1.0000 0.54830  0.09140  0.55950  Biso   1.000  C
  C905     1.0000 0.57740  0.06730  0.55110  Biso   1.000  C
  H1142    1.0000 0.57940  0.05680  0.52670  Biso   1.000  H
  C906     1.0000 0.60410  0.05830  0.57880  Biso   1.000  C
  H1143    1.0000 0.62370  0.04110  0.57360  Biso   1.000  H
  C907     1.0000 0.60120  0.07540  0.61470  Biso   1.000  C
  H1144    1.0000 0.62000  0.07030  0.63290  Biso   1.000  H
  C908     1.0000 0.55180  0.12930  0.77060  Biso   1.000  C
  H1145    1.0000 0.55430  0.10280  0.76870  Biso   1.000  H
  C909     1.0000 0.54050  0.14550  0.80440  Biso   1.000  C
  C910     1.0000 0.53850  0.18420  0.80770  Biso   1.000  C
  H1146    1.0000 0.53120  0.19520  0.83090  Biso   1.000  H
  C911     1.0000 0.54670  0.20600  0.77880  Biso   1.000  C
  H1147    1.0000 0.54500  0.23250  0.78100  Biso   1.000  H
  C912     1.0000 0.55800  0.18910  0.74430  Biso   1.000  C
  H1148    1.0000 0.56460  0.20490  0.72390  Biso   1.000  H
  C913     1.0000 0.51790  0.10330  0.52980  Biso   1.000  C
  H1149    1.0000 0.52010  0.13060  0.52510  Biso   1.000  H
  H1150    1.0000 0.49250  0.09840  0.53990  Biso   1.000  H
  C914     1.0000 0.52110  0.13080  0.84120  Biso   1.000  C
  H1151    1.0000 0.50040  0.14760  0.84920  Biso   1.000  H
  H1152    1.0000 0.53930  0.12820  0.86200  Biso   1.000  H
  N241     1.0000 0.54910  0.02970  0.79940  Biso   1.000  N
  N242     1.0000 0.59382  0.07660  0.70581  Biso   1.000  N
  N243     1.0000 0.57240  0.09859  0.62380  Biso   1.000  N
  N244     1.0000 0.55950  0.15170  0.73960  Biso   1.000  N
  O181     1.0000 0.50690  0.09430  0.82870  Biso   1.000  O
  H1153    1.0000 0.49400  0.07630  0.82100  Biso   1.000  H
  O182     1.0000 0.52070  0.08110  0.49860  Biso   1.000  O
  H1154    1.0000 0.52900  0.06200  0.48600  Biso   1.000  H
  H1155    1.0000 0.49550  0.11280  0.54330  Biso   1.000  H
  H1156    1.0000 0.51010  0.08070  0.51550  Biso   1.000  H
  C915     1.0000 0.54060  0.11840  0.83770  Biso   1.000  C
  H1157    1.0000 0.53730  0.13190  0.86180  Biso   1.000  H
  H1158    1.0000 0.56390  0.10340  0.83860  Biso   1.000  H
  O183     1.0000 0.53060  0.13200  0.50340  Biso   1.000  O
  H1159    1.0000 0.51940  0.15380  0.50360  Biso   1.000  H
  C916     1.0000 0.07510  0.51910  0.28230  Biso   1.000  C
  C917     1.0000 0.10610  0.55040  0.22090  Biso   1.000  C
  C918     1.0000 0.04680  0.60640  0.09700  Biso   1.000  C
  H1160    1.0000 0.02660  0.62260  0.10330  Biso   1.000  H
  C919     1.0000 0.04830  0.59140  0.05950  Biso   1.000  C
  C920     1.0000 0.07740  0.56730  0.05110  Biso   1.000  C
  H1161    1.0000 0.07940  0.55680  0.02670  Biso   1.000  H
  C921     1.0000 0.10410  0.55830  0.07880  Biso   1.000  C
  H1162    1.0000 0.12370  0.54110  0.07360  Biso   1.000  H
  C922     1.0000 0.10120  0.57540  0.11470  Biso   1.000  C
  H1163    1.0000 0.12000  0.57030  0.13290  Biso   1.000  H
  C923     1.0000 0.05180  0.62930  0.27060  Biso   1.000  C
  H1164    1.0000 0.05430  0.60280  0.26870  Biso   1.000  H
  C924     1.0000 0.04050  0.64550  0.30440  Biso   1.000  C
  C925     1.0000 0.03850  0.68420  0.30770  Biso   1.000  C
  H1165    1.0000 0.03120  0.69520  0.33090  Biso   1.000  H
  C926     1.0000 0.04670  0.70600  0.27880  Biso   1.000  C
  H1166    1.0000 0.04500  0.73250  0.28100  Biso   1.000  H
  C927     1.0000 0.05800  0.68910  0.24430  Biso   1.000  C
  H1167    1.0000 0.06460  0.70490  0.22390  Biso   1.000  H
  C928     1.0000 0.01790  0.60330  0.02980  Biso   1.000  C
  H1168    1.0000 0.02010  0.63060  0.02510  Biso   1.000  H
  H1169    1.0000 0.99250  0.59840  0.03990  Biso   1.000  H
  C929     1.0000 0.02110  0.63080  0.34120  Biso   1.000  C
  H1170    1.0000 0.00040  0.64760  0.34920  Biso   1.000  H
  H1171    1.0000 0.03930  0.62820  0.36200  Biso   1.000  H
  N245     1.0000 0.04910  0.52970  0.29940  Biso   1.000  N
  N246     1.0000 0.09382  0.57660  0.20581  Biso   1.000  N
  N247     1.0000 0.07240  0.59859  0.12380  Biso   1.000  N
  N248     1.0000 0.05950  0.65170  0.23960  Biso   1.000  N
  O184     1.0000 0.00690  0.59430  0.32870  Biso   1.000  O
  H1172    1.0000 0.99400  0.57630  0.32100  Biso   1.000  H
  O185     1.0000 0.02070  0.58110  0.99860  Biso   1.000  O
  H1173    1.0000 0.02900  0.56200  0.98600  Biso   1.000  H
  H1174    1.0000 0.99550  0.61280  0.04330  Biso   1.000  H
  H1175    1.0000 0.01010  0.58070  0.01550  Biso   1.000  H
  C930     1.0000 0.04060  0.61840  0.33770  Biso   1.000  C
  H1176    1.0000 0.03730  0.63190  0.36180  Biso   1.000  H
  H1177    1.0000 0.06390  0.60340  0.33860  Biso   1.000  H
  O186     1.0000 0.03060  0.63200  0.00340  Biso   1.000  O
  H1178    1.0000 0.01940  0.65380  0.00360  Biso   1.000  H
  C931     1.0000 0.07510  0.48090  0.21770  Biso   1.000  C
  C932     1.0000 0.10610  0.44960  0.27910  Biso   1.000  C
  C933     1.0000 0.04680  0.39360  0.40300  Biso   1.000  C
  H1179    1.0000 0.02660  0.37740  0.39670  Biso   1.000  H
  C934     1.0000 0.04830  0.40860  0.44050  Biso   1.000  C
  C935     1.0000 0.07740  0.43270  0.44890  Biso   1.000  C
  H1180    1.0000 0.07940  0.44320  0.47330  Biso   1.000  H
  C936     1.0000 0.10410  0.44170  0.42120  Biso   1.000  C
  H1181    1.0000 0.12370  0.45890  0.42640  Biso   1.000  H
  C937     1.0000 0.10120  0.42460  0.38530  Biso   1.000  C
  H1182    1.0000 0.12000  0.42970  0.36710  Biso   1.000  H
  C938     1.0000 0.05180  0.37070  0.22940  Biso   1.000  C
  H1183    1.0000 0.05430  0.39720  0.23130  Biso   1.000  H
  C939     1.0000 0.04050  0.35450  0.19560  Biso   1.000  C
  C940     1.0000 0.03850  0.31580  0.19230  Biso   1.000  C
  H1184    1.0000 0.03120  0.30480  0.16910  Biso   1.000  H
  C941     1.0000 0.04670  0.29400  0.22120  Biso   1.000  C
  H1185    1.0000 0.04500  0.26750  0.21900  Biso   1.000  H
  C942     1.0000 0.05800  0.31090  0.25570  Biso   1.000  C
  H1186    1.0000 0.06460  0.29510  0.27610  Biso   1.000  H
  C943     1.0000 0.01790  0.39670  0.47020  Biso   1.000  C
  H1187    1.0000 0.02010  0.36940  0.47490  Biso   1.000  H
  H1188    1.0000 0.99250  0.40160  0.46010  Biso   1.000  H
  C944     1.0000 0.02110  0.36920  0.15880  Biso   1.000  C
  H1189    1.0000 0.00040  0.35240  0.15080  Biso   1.000  H
  H1190    1.0000 0.03930  0.37180  0.13800  Biso   1.000  H
  N249     1.0000 0.04910  0.47030  0.20060  Biso   1.000  N
  N250     1.0000 0.09382  0.42340  0.29419  Biso   1.000  N
  N251     1.0000 0.07240  0.40141  0.37620  Biso   1.000  N
  N252     1.0000 0.05950  0.34830  0.26040  Biso   1.000  N
  O187     1.0000 0.00690  0.40570  0.17130  Biso   1.000  O
  H1191    1.0000 0.99400  0.42370  0.17900  Biso   1.000  H
  O188     1.0000 0.02070  0.41890  0.50140  Biso   1.000  O
  H1192    1.0000 0.02900  0.43800  0.51400  Biso   1.000  H
  H1193    1.0000 0.99550  0.38720  0.45670  Biso   1.000  H
  H1194    1.0000 0.01010  0.41930  0.48450  Biso   1.000  H
  C945     1.0000 0.04060  0.38160  0.16230  Biso   1.000  C
  H1195    1.0000 0.03730  0.36810  0.13820  Biso   1.000  H
  H1196    1.0000 0.06390  0.39660  0.16140  Biso   1.000  H
  O189     1.0000 0.03060  0.36800  0.49660  Biso   1.000  O
  H1197    1.0000 0.01940  0.34620  0.49640  Biso   1.000  H
  C946     1.0000 0.57510  0.98090  0.71770  Biso   1.000  C
  C947     1.0000 0.60610  0.94960  0.77910  Biso   1.000  C
  C948     1.0000 0.54680  0.89360  0.90300  Biso   1.000  C
  H1198    1.0000 0.52660  0.87740  0.89670  Biso   1.000  H
  C949     1.0000 0.54830  0.90860  0.94050  Biso   1.000  C
  C950     1.0000 0.57740  0.93270  0.94890  Biso   1.000  C
  H1199    1.0000 0.57940  0.94320  0.97330  Biso   1.000  H
  C951     1.0000 0.60410  0.94170  0.92120  Biso   1.000  C
  H1200    1.0000 0.62370  0.95890  0.92640  Biso   1.000  H
  C952     1.0000 0.60120  0.92460  0.88530  Biso   1.000  C
  H1201    1.0000 0.62000  0.92970  0.86710  Biso   1.000  H
  C953     1.0000 0.55180  0.87070  0.72940  Biso   1.000  C
  H1202    1.0000 0.55430  0.89720  0.73130  Biso   1.000  H
  C954     1.0000 0.54050  0.85450  0.69560  Biso   1.000  C
  C955     1.0000 0.53850  0.81580  0.69230  Biso   1.000  C
  H1203    1.0000 0.53120  0.80480  0.66910  Biso   1.000  H
  C956     1.0000 0.54670  0.79400  0.72120  Biso   1.000  C
  H1204    1.0000 0.54500  0.76750  0.71900  Biso   1.000  H
  C957     1.0000 0.55800  0.81090  0.75570  Biso   1.000  C
  H1205    1.0000 0.56460  0.79510  0.77610  Biso   1.000  H
  C958     1.0000 0.51790  0.89670  0.97020  Biso   1.000  C
  H1206    1.0000 0.52010  0.86940  0.97490  Biso   1.000  H
  H1207    1.0000 0.49250  0.90160  0.96010  Biso   1.000  H
  C959     1.0000 0.52110  0.86920  0.65880  Biso   1.000  C
  H1208    1.0000 0.50040  0.85240  0.65080  Biso   1.000  H
  H1209    1.0000 0.53930  0.87180  0.63800  Biso   1.000  H
  N253     1.0000 0.54910  0.97030  0.70060  Biso   1.000  N
  N254     1.0000 0.59382  0.92340  0.79419  Biso   1.000  N
  N255     1.0000 0.57240  0.90141  0.87620  Biso   1.000  N
  N256     1.0000 0.55950  0.84830  0.76040  Biso   1.000  N
  O190     1.0000 0.50690  0.90570  0.67130  Biso   1.000  O
  H1210    1.0000 0.49400  0.92370  0.67900  Biso   1.000  H
  O191     1.0000 0.52070  0.91890  0.00140  Biso   1.000  O
  H1211    1.0000 0.52900  0.93800  0.01400  Biso   1.000  H
  H1212    1.0000 0.49550  0.88720  0.95670  Biso   1.000  H
  H1213    1.0000 0.51010  0.91930  0.98450  Biso   1.000  H
  C960     1.0000 0.54060  0.88160  0.66230  Biso   1.000  C
  H1214    1.0000 0.53730  0.86810  0.63820  Biso   1.000  H
  H1215    1.0000 0.56390  0.89660  0.66140  Biso   1.000  H
  O192     1.0000 0.53060  0.86800  0.99660  Biso   1.000  O
  H1216    1.0000 0.51940  0.84620  0.99640  Biso   1.000  H
  C961     1.0000 0.28230  0.92490  0.98090  Biso   1.000  C
  C962     1.0000 0.22090  0.89390  0.94960  Biso   1.000  C
  C963     1.0000 0.09700  0.95320  0.89360  Biso   1.000  C
  H1217    1.0000 0.10330  0.97340  0.87740  Biso   1.000  H
  C964     1.0000 0.05950  0.95170  0.90860  Biso   1.000  C
  C965     1.0000 0.05110  0.92260  0.93270  Biso   1.000  C
  H1218    1.0000 0.02670  0.92060  0.94320  Biso   1.000  H
  C966     1.0000 0.07880  0.89590  0.94170  Biso   1.000  C
  H1219    1.0000 0.07360  0.87630  0.95890  Biso   1.000  H
  C967     1.0000 0.11470  0.89880  0.92460  Biso   1.000  C
  H1220    1.0000 0.13290  0.88000  0.92970  Biso   1.000  H
  C968     1.0000 0.27060  0.94820  0.87070  Biso   1.000  C
  H1221    1.0000 0.26870  0.94570  0.89720  Biso   1.000  H
  C969     1.0000 0.30440  0.95950  0.85450  Biso   1.000  C
  C970     1.0000 0.30770  0.96150  0.81580  Biso   1.000  C
  H1222    1.0000 0.33090  0.96880  0.80480  Biso   1.000  H
  C971     1.0000 0.27880  0.95330  0.79400  Biso   1.000  C
  H1223    1.0000 0.28100  0.95500  0.76750  Biso   1.000  H
  C972     1.0000 0.24430  0.94200  0.81090  Biso   1.000  C
  H1224    1.0000 0.22390  0.93540  0.79510  Biso   1.000  H
  C973     1.0000 0.02980  0.98210  0.89670  Biso   1.000  C
  H1225    1.0000 0.02510  0.97990  0.86940  Biso   1.000  H
  H1226    1.0000 0.03990  0.00750  0.90160  Biso   1.000  H
  C974     1.0000 0.34120  0.97890  0.86920  Biso   1.000  C
  H1227    1.0000 0.34920  0.99960  0.85240  Biso   1.000  H
  H1228    1.0000 0.36200  0.96070  0.87180  Biso   1.000  H
  N257     1.0000 0.29940  0.95090  0.97030  Biso   1.000  N
  N258     1.0000 0.20581  0.90618  0.92340  Biso   1.000  N
  N259     1.0000 0.12380  0.92760  0.90141  Biso   1.000  N
  N260     1.0000 0.23960  0.94050  0.84830  Biso   1.000  N
  O193     1.0000 0.32870  0.99310  0.90570  Biso   1.000  O
  H1229    1.0000 0.32100  0.00600  0.92370  Biso   1.000  H
  O194     1.0000 0.99860  0.97930  0.91890  Biso   1.000  O
  H1230    1.0000 0.98600  0.97100  0.93800  Biso   1.000  H
  H1231    1.0000 0.04330  0.00450  0.88720  Biso   1.000  H
  H1232    1.0000 0.01550  0.98990  0.91930  Biso   1.000  H
  C975     1.0000 0.33770  0.95940  0.88160  Biso   1.000  C
  H1233    1.0000 0.36180  0.96270  0.86810  Biso   1.000  H
  H1234    1.0000 0.33860  0.93610  0.89660  Biso   1.000  H
  O195     1.0000 0.00340  0.96940  0.86800  Biso   1.000  O
  H1235    1.0000 0.00360  0.98060  0.84620  Biso   1.000  H
  C976     1.0000 0.78230  0.42490  0.48090  Biso   1.000  C
  C977     1.0000 0.72090  0.39390  0.44960  Biso   1.000  C
  C978     1.0000 0.59700  0.45320  0.39360  Biso   1.000  C
  H1236    1.0000 0.60330  0.47340  0.37740  Biso   1.000  H
  C979     1.0000 0.55950  0.45170  0.40860  Biso   1.000  C
  C980     1.0000 0.55110  0.42260  0.43270  Biso   1.000  C
  H1237    1.0000 0.52670  0.42060  0.44320  Biso   1.000  H
  C981     1.0000 0.57880  0.39590  0.44170  Biso   1.000  C
  H1238    1.0000 0.57360  0.37630  0.45890  Biso   1.000  H
  C982     1.0000 0.61470  0.39880  0.42460  Biso   1.000  C
  H1239    1.0000 0.63290  0.38000  0.42970  Biso   1.000  H
  C983     1.0000 0.77060  0.44820  0.37070  Biso   1.000  C
  H1240    1.0000 0.76870  0.44570  0.39720  Biso   1.000  H
  C984     1.0000 0.80440  0.45950  0.35450  Biso   1.000  C
  C985     1.0000 0.80770  0.46150  0.31580  Biso   1.000  C
  H1241    1.0000 0.83090  0.46880  0.30480  Biso   1.000  H
  C986     1.0000 0.77880  0.45330  0.29400  Biso   1.000  C
  H1242    1.0000 0.78100  0.45500  0.26750  Biso   1.000  H
  C987     1.0000 0.74430  0.44200  0.31090  Biso   1.000  C
  H1243    1.0000 0.72390  0.43540  0.29510  Biso   1.000  H
  C988     1.0000 0.52980  0.48210  0.39670  Biso   1.000  C
  H1244    1.0000 0.52510  0.47990  0.36940  Biso   1.000  H
  H1245    1.0000 0.53990  0.50750  0.40160  Biso   1.000  H
  C989     1.0000 0.84120  0.47890  0.36920  Biso   1.000  C
  H1246    1.0000 0.84920  0.49960  0.35240  Biso   1.000  H
  H1247    1.0000 0.86200  0.46070  0.37180  Biso   1.000  H
  N261     1.0000 0.79940  0.45090  0.47030  Biso   1.000  N
  N262     1.0000 0.70581  0.40618  0.42340  Biso   1.000  N
  N263     1.0000 0.62380  0.42760  0.40141  Biso   1.000  N
  N264     1.0000 0.73960  0.44050  0.34830  Biso   1.000  N
  O196     1.0000 0.82870  0.49310  0.40570  Biso   1.000  O
  H1248    1.0000 0.82100  0.50600  0.42370  Biso   1.000  H
  O197     1.0000 0.49860  0.47930  0.41890  Biso   1.000  O
  H1249    1.0000 0.48600  0.47100  0.43800  Biso   1.000  H
  H1250    1.0000 0.54330  0.50450  0.38720  Biso   1.000  H
  H1251    1.0000 0.51550  0.48990  0.41930  Biso   1.000  H
  C990     1.0000 0.83770  0.45940  0.38160  Biso   1.000  C
  H1252    1.0000 0.86180  0.46270  0.36810  Biso   1.000  H
  H1253    1.0000 0.83860  0.43610  0.39660  Biso   1.000  H
  O198     1.0000 0.50340  0.46940  0.36800  Biso   1.000  O
  H1254    1.0000 0.50360  0.48060  0.34620  Biso   1.000  H
  C991     1.0000 0.71770  0.42490  0.51910  Biso   1.000  C
  C992     1.0000 0.77910  0.39390  0.55040  Biso   1.000  C
  C993     1.0000 0.90300  0.45320  0.60640  Biso   1.000  C
  H1255    1.0000 0.89670  0.47340  0.62260  Biso   1.000  H
  C994     1.0000 0.94050  0.45170  0.59140  Biso   1.000  C
  C995     1.0000 0.94890  0.42260  0.56730  Biso   1.000  C
  H1256    1.0000 0.97330  0.42060  0.55680  Biso   1.000  H
  C996     1.0000 0.92120  0.39590  0.55830  Biso   1.000  C
  H1257    1.0000 0.92640  0.37630  0.54110  Biso   1.000  H
  C997     1.0000 0.88530  0.39880  0.57540  Biso   1.000  C
  H1258    1.0000 0.86710  0.38000  0.57030  Biso   1.000  H
  C998     1.0000 0.72940  0.44820  0.62930  Biso   1.000  C
  H1259    1.0000 0.73130  0.44570  0.60280  Biso   1.000  H
  C999     1.0000 0.69560  0.45950  0.64550  Biso   1.000  C
  C1000    1.0000 0.69230  0.46150  0.68420  Biso   1.000  C
  H1260    1.0000 0.66910  0.46880  0.69520  Biso   1.000  H
  C1001    1.0000 0.72120  0.45330  0.70600  Biso   1.000  C
  H1261    1.0000 0.71900  0.45500  0.73250  Biso   1.000  H
  C1002    1.0000 0.75570  0.44200  0.68910  Biso   1.000  C
  H1262    1.0000 0.77610  0.43540  0.70490  Biso   1.000  H
  C1003    1.0000 0.97020  0.48210  0.60330  Biso   1.000  C
  H1263    1.0000 0.97490  0.47990  0.63060  Biso   1.000  H
  H1264    1.0000 0.96010  0.50750  0.59840  Biso   1.000  H
  C1004    1.0000 0.65880  0.47890  0.63080  Biso   1.000  C
  H1265    1.0000 0.65080  0.49960  0.64760  Biso   1.000  H
  H1266    1.0000 0.63800  0.46070  0.62820  Biso   1.000  H
  N265     1.0000 0.70060  0.45090  0.52970  Biso   1.000  N
  N266     1.0000 0.79419  0.40618  0.57660  Biso   1.000  N
  N267     1.0000 0.87620  0.42760  0.59859  Biso   1.000  N
  N268     1.0000 0.76040  0.44050  0.65170  Biso   1.000  N
  O199     1.0000 0.67130  0.49310  0.59430  Biso   1.000  O
  H1267    1.0000 0.67900  0.50600  0.57630  Biso   1.000  H
  O200     1.0000 0.00140  0.47930  0.58110  Biso   1.000  O
  H1268    1.0000 0.01400  0.47100  0.56200  Biso   1.000  H
  H1269    1.0000 0.95670  0.50450  0.61280  Biso   1.000  H
  H1270    1.0000 0.98450  0.48990  0.58070  Biso   1.000  H
  C1005    1.0000 0.66230  0.45940  0.61840  Biso   1.000  C
  H1271    1.0000 0.63820  0.46270  0.63190  Biso   1.000  H
  H1272    1.0000 0.66140  0.43610  0.60340  Biso   1.000  H
  O201     1.0000 0.99660  0.46940  0.63200  Biso   1.000  O
  H1273    1.0000 0.99640  0.48060  0.65380  Biso   1.000  H
  C1006    1.0000 0.21770  0.92490  0.01910  Biso   1.000  C
  C1007    1.0000 0.27910  0.89390  0.05040  Biso   1.000  C
  C1008    1.0000 0.40300  0.95320  0.10640  Biso   1.000  C
  H1274    1.0000 0.39670  0.97340  0.12260  Biso   1.000  H
  C1009    1.0000 0.44050  0.95170  0.09140  Biso   1.000  C
  C1010    1.0000 0.44890  0.92260  0.06730  Biso   1.000  C
  H1275    1.0000 0.47330  0.92060  0.05680  Biso   1.000  H
  C1011    1.0000 0.42120  0.89590  0.05830  Biso   1.000  C
  H1276    1.0000 0.42640  0.87630  0.04110  Biso   1.000  H
  C1012    1.0000 0.38530  0.89880  0.07540  Biso   1.000  C
  H1277    1.0000 0.36710  0.88000  0.07030  Biso   1.000  H
  C1013    1.0000 0.22940  0.94820  0.12930  Biso   1.000  C
  H1278    1.0000 0.23130  0.94570  0.10280  Biso   1.000  H
  C1014    1.0000 0.19560  0.95950  0.14550  Biso   1.000  C
  C1015    1.0000 0.19230  0.96150  0.18420  Biso   1.000  C
  H1279    1.0000 0.16910  0.96880  0.19520  Biso   1.000  H
  C1016    1.0000 0.22120  0.95330  0.20600  Biso   1.000  C
  H1280    1.0000 0.21900  0.95500  0.23250  Biso   1.000  H
  C1017    1.0000 0.25570  0.94200  0.18910  Biso   1.000  C
  H1281    1.0000 0.27610  0.93540  0.20490  Biso   1.000  H
  C1018    1.0000 0.47020  0.98210  0.10330  Biso   1.000  C
  H1282    1.0000 0.47490  0.97990  0.13060  Biso   1.000  H
  H1283    1.0000 0.46010  0.00750  0.09840  Biso   1.000  H
  C1019    1.0000 0.15880  0.97890  0.13080  Biso   1.000  C
  H1284    1.0000 0.15080  0.99960  0.14760  Biso   1.000  H
  H1285    1.0000 0.13800  0.96070  0.12820  Biso   1.000  H
  N269     1.0000 0.20060  0.95090  0.02970  Biso   1.000  N
  N270     1.0000 0.29419  0.90618  0.07660  Biso   1.000  N
  N271     1.0000 0.37620  0.92760  0.09859  Biso   1.000  N
  N272     1.0000 0.26040  0.94050  0.15170  Biso   1.000  N
  O202     1.0000 0.17130  0.99310  0.09430  Biso   1.000  O
  H1286    1.0000 0.17900  0.00600  0.07630  Biso   1.000  H
  O203     1.0000 0.50140  0.97930  0.08110  Biso   1.000  O
  H1287    1.0000 0.51400  0.97100  0.06200  Biso   1.000  H
  H1288    1.0000 0.45670  0.00450  0.11280  Biso   1.000  H
  H1289    1.0000 0.48450  0.98990  0.08070  Biso   1.000  H
  C1020    1.0000 0.16230  0.95940  0.11840  Biso   1.000  C
  H1290    1.0000 0.13820  0.96270  0.13190  Biso   1.000  H
  H1291    1.0000 0.16140  0.93610  0.10340  Biso   1.000  H
  O204     1.0000 0.49660  0.96940  0.13200  Biso   1.000  O
  H1292    1.0000 0.49640  0.98060  0.15380  Biso   1.000  H
  C1021    1.0000 0.78230  0.57510  0.01910  Biso   1.000  C
  C1022    1.0000 0.72090  0.60610  0.05040  Biso   1.000  C
  C1023    1.0000 0.59700  0.54680  0.10640  Biso   1.000  C
  H1293    1.0000 0.60330  0.52660  0.12260  Biso   1.000  H
  C1024    1.0000 0.55950  0.54830  0.09140  Biso   1.000  C
  C1025    1.0000 0.55110  0.57740  0.06730  Biso   1.000  C
  H1294    1.0000 0.52670  0.57940  0.05680  Biso   1.000  H
  C1026    1.0000 0.57880  0.60410  0.05830  Biso   1.000  C
  H1295    1.0000 0.57360  0.62370  0.04110  Biso   1.000  H
  C1027    1.0000 0.61470  0.60120  0.07540  Biso   1.000  C
  H1296    1.0000 0.63290  0.62000  0.07030  Biso   1.000  H
  C1028    1.0000 0.77060  0.55180  0.12930  Biso   1.000  C
  H1297    1.0000 0.76870  0.55430  0.10280  Biso   1.000  H
  C1029    1.0000 0.80440  0.54050  0.14550  Biso   1.000  C
  C1030    1.0000 0.80770  0.53850  0.18420  Biso   1.000  C
  H1298    1.0000 0.83090  0.53120  0.19520  Biso   1.000  H
  C1031    1.0000 0.77880  0.54670  0.20600  Biso   1.000  C
  H1299    1.0000 0.78100  0.54500  0.23250  Biso   1.000  H
  C1032    1.0000 0.74430  0.55800  0.18910  Biso   1.000  C
  H1300    1.0000 0.72390  0.56460  0.20490  Biso   1.000  H
  C1033    1.0000 0.52980  0.51790  0.10330  Biso   1.000  C
  H1301    1.0000 0.52510  0.52010  0.13060  Biso   1.000  H
  H1302    1.0000 0.53990  0.49250  0.09840  Biso   1.000  H
  C1034    1.0000 0.84120  0.52110  0.13080  Biso   1.000  C
  H1303    1.0000 0.84920  0.50040  0.14760  Biso   1.000  H
  H1304    1.0000 0.86200  0.53930  0.12820  Biso   1.000  H
  N273     1.0000 0.79940  0.54910  0.02970  Biso   1.000  N
  N274     1.0000 0.70581  0.59382  0.07660  Biso   1.000  N
  N275     1.0000 0.62380  0.57240  0.09859  Biso   1.000  N
  N276     1.0000 0.73960  0.55950  0.15170  Biso   1.000  N
  O205     1.0000 0.82870  0.50690  0.09430  Biso   1.000  O
  H1305    1.0000 0.82100  0.49400  0.07630  Biso   1.000  H
  O206     1.0000 0.49860  0.52070  0.08110  Biso   1.000  O
  H1306    1.0000 0.48600  0.52900  0.06200  Biso   1.000  H
  H1307    1.0000 0.54330  0.49550  0.11280  Biso   1.000  H
  H1308    1.0000 0.51550  0.51010  0.08070  Biso   1.000  H
  C1035    1.0000 0.83770  0.54060  0.11840  Biso   1.000  C
  H1309    1.0000 0.86180  0.53730  0.13190  Biso   1.000  H
  H1310    1.0000 0.83860  0.56390  0.10340  Biso   1.000  H
  O207     1.0000 0.50340  0.53060  0.13200  Biso   1.000  O
  H1311    1.0000 0.50360  0.51940  0.15380  Biso   1.000  H
  C1036    1.0000 0.28230  0.07510  0.51910  Biso   1.000  C
  C1037    1.0000 0.22090  0.10610  0.55040  Biso   1.000  C
  C1038    1.0000 0.09700  0.04680  0.60640  Biso   1.000  C
  H1312    1.0000 0.10330  0.02660  0.62260  Biso   1.000  H
  C1039    1.0000 0.05950  0.04830  0.59140  Biso   1.000  C
  C1040    1.0000 0.05110  0.07740  0.56730  Biso   1.000  C
  H1313    1.0000 0.02670  0.07940  0.55680  Biso   1.000  H
  C1041    1.0000 0.07880  0.10410  0.55830  Biso   1.000  C
  H1314    1.0000 0.07360  0.12370  0.54110  Biso   1.000  H
  C1042    1.0000 0.11470  0.10120  0.57540  Biso   1.000  C
  H1315    1.0000 0.13290  0.12000  0.57030  Biso   1.000  H
  C1043    1.0000 0.27060  0.05180  0.62930  Biso   1.000  C
  H1316    1.0000 0.26870  0.05430  0.60280  Biso   1.000  H
  C1044    1.0000 0.30440  0.04050  0.64550  Biso   1.000  C
  C1045    1.0000 0.30770  0.03850  0.68420  Biso   1.000  C
  H1317    1.0000 0.33090  0.03120  0.69520  Biso   1.000  H
  C1046    1.0000 0.27880  0.04670  0.70600  Biso   1.000  C
  H1318    1.0000 0.28100  0.04500  0.73250  Biso   1.000  H
  C1047    1.0000 0.24430  0.05800  0.68910  Biso   1.000  C
  H1319    1.0000 0.22390  0.06460  0.70490  Biso   1.000  H
  C1048    1.0000 0.02980  0.01790  0.60330  Biso   1.000  C
  H1320    1.0000 0.02510  0.02010  0.63060  Biso   1.000  H
  H1321    1.0000 0.03990  0.99250  0.59840  Biso   1.000  H
  C1049    1.0000 0.34120  0.02110  0.63080  Biso   1.000  C
  H1322    1.0000 0.34920  0.00040  0.64760  Biso   1.000  H
  H1323    1.0000 0.36200  0.03930  0.62820  Biso   1.000  H
  N277     1.0000 0.29940  0.04910  0.52970  Biso   1.000  N
  N278     1.0000 0.20581  0.09382  0.57660  Biso   1.000  N
  N279     1.0000 0.12380  0.07240  0.59859  Biso   1.000  N
  N280     1.0000 0.23960  0.05950  0.65170  Biso   1.000  N
  O208     1.0000 0.32870  0.00690  0.59430  Biso   1.000  O
  H1324    1.0000 0.32100  0.99400  0.57630  Biso   1.000  H
  O209     1.0000 0.99860  0.02070  0.58110  Biso   1.000  O
  H1325    1.0000 0.98600  0.02900  0.56200  Biso   1.000  H
  H1326    1.0000 0.04330  0.99550  0.61280  Biso   1.000  H
  H1327    1.0000 0.01550  0.01010  0.58070  Biso   1.000  H
  C1050    1.0000 0.33770  0.04060  0.61840  Biso   1.000  C
  H1328    1.0000 0.36180  0.03730  0.63190  Biso   1.000  H
  H1329    1.0000 0.33860  0.06390  0.60340  Biso   1.000  H
  O210     1.0000 0.00340  0.03060  0.63200  Biso   1.000  O
  H1330    1.0000 0.00360  0.01940  0.65380  Biso   1.000  H
  C1051    1.0000 0.21770  0.07510  0.48090  Biso   1.000  C
  C1052    1.0000 0.27910  0.10610  0.44960  Biso   1.000  C
  C1053    1.0000 0.40300  0.04680  0.39360  Biso   1.000  C
  H1331    1.0000 0.39670  0.02660  0.37740  Biso   1.000  H
  C1054    1.0000 0.44050  0.04830  0.40860  Biso   1.000  C
  C1055    1.0000 0.44890  0.07740  0.43270  Biso   1.000  C
  H1332    1.0000 0.47330  0.07940  0.44320  Biso   1.000  H
  C1056    1.0000 0.42120  0.10410  0.44170  Biso   1.000  C
  H1333    1.0000 0.42640  0.12370  0.45890  Biso   1.000  H
  C1057    1.0000 0.38530  0.10120  0.42460  Biso   1.000  C
  H1334    1.0000 0.36710  0.12000  0.42970  Biso   1.000  H
  C1058    1.0000 0.22940  0.05180  0.37070  Biso   1.000  C
  H1335    1.0000 0.23130  0.05430  0.39720  Biso   1.000  H
  C1059    1.0000 0.19560  0.04050  0.35450  Biso   1.000  C
  C1060    1.0000 0.19230  0.03850  0.31580  Biso   1.000  C
  H1336    1.0000 0.16910  0.03120  0.30480  Biso   1.000  H
  C1061    1.0000 0.22120  0.04670  0.29400  Biso   1.000  C
  H1337    1.0000 0.21900  0.04500  0.26750  Biso   1.000  H
  C1062    1.0000 0.25570  0.05800  0.31090  Biso   1.000  C
  H1338    1.0000 0.27610  0.06460  0.29510  Biso   1.000  H
  C1063    1.0000 0.47020  0.01790  0.39670  Biso   1.000  C
  H1339    1.0000 0.47490  0.02010  0.36940  Biso   1.000  H
  H1340    1.0000 0.46010  0.99250  0.40160  Biso   1.000  H
  C1064    1.0000 0.15880  0.02110  0.36920  Biso   1.000  C
  H1341    1.0000 0.15080  0.00040  0.35240  Biso   1.000  H
  H1342    1.0000 0.13800  0.03930  0.37180  Biso   1.000  H
  N281     1.0000 0.20060  0.04910  0.47030  Biso   1.000  N
  N282     1.0000 0.29419  0.09382  0.42340  Biso   1.000  N
  N283     1.0000 0.37620  0.07240  0.40141  Biso   1.000  N
  N284     1.0000 0.26040  0.05950  0.34830  Biso   1.000  N
  O211     1.0000 0.17130  0.00690  0.40570  Biso   1.000  O
  H1343    1.0000 0.17900  0.99400  0.42370  Biso   1.000  H
  O212     1.0000 0.50140  0.02070  0.41890  Biso   1.000  O
  H1344    1.0000 0.51400  0.02900  0.43800  Biso   1.000  H
  H1345    1.0000 0.45670  0.99550  0.38720  Biso   1.000  H
  H1346    1.0000 0.48450  0.01010  0.41930  Biso   1.000  H
  C1065    1.0000 0.16230  0.04060  0.38160  Biso   1.000  C
  H1347    1.0000 0.13820  0.03730  0.36810  Biso   1.000  H
  H1348    1.0000 0.16140  0.06390  0.39660  Biso   1.000  H
  O213     1.0000 0.49660  0.03060  0.36800  Biso   1.000  O
  H1349    1.0000 0.49640  0.01940  0.34620  Biso   1.000  H
  C1066    1.0000 0.71770  0.57510  0.98090  Biso   1.000  C
  C1067    1.0000 0.77910  0.60610  0.94960  Biso   1.000  C
  C1068    1.0000 0.90300  0.54680  0.89360  Biso   1.000  C
  H1350    1.0000 0.89670  0.52660  0.87740  Biso   1.000  H
  C1069    1.0000 0.94050  0.54830  0.90860  Biso   1.000  C
  C1070    1.0000 0.94890  0.57740  0.93270  Biso   1.000  C
  H1351    1.0000 0.97330  0.57940  0.94320  Biso   1.000  H
  C1071    1.0000 0.92120  0.60410  0.94170  Biso   1.000  C
  H1352    1.0000 0.92640  0.62370  0.95890  Biso   1.000  H
  C1072    1.0000 0.88530  0.60120  0.92460  Biso   1.000  C
  H1353    1.0000 0.86710  0.62000  0.92970  Biso   1.000  H
  C1073    1.0000 0.72940  0.55180  0.87070  Biso   1.000  C
  H1354    1.0000 0.73130  0.55430  0.89720  Biso   1.000  H
  C1074    1.0000 0.69560  0.54050  0.85450  Biso   1.000  C
  C1075    1.0000 0.69230  0.53850  0.81580  Biso   1.000  C
  H1355    1.0000 0.66910  0.53120  0.80480  Biso   1.000  H
  C1076    1.0000 0.72120  0.54670  0.79400  Biso   1.000  C
  H1356    1.0000 0.71900  0.54500  0.76750  Biso   1.000  H
  C1077    1.0000 0.75570  0.55800  0.81090  Biso   1.000  C
  H1357    1.0000 0.77610  0.56460  0.79510  Biso   1.000  H
  C1078    1.0000 0.97020  0.51790  0.89670  Biso   1.000  C
  H1358    1.0000 0.97490  0.52010  0.86940  Biso   1.000  H
  H1359    1.0000 0.96010  0.49250  0.90160  Biso   1.000  H
  C1079    1.0000 0.65880  0.52110  0.86920  Biso   1.000  C
  H1360    1.0000 0.65080  0.50040  0.85240  Biso   1.000  H
  H1361    1.0000 0.63800  0.53930  0.87180  Biso   1.000  H
  N285     1.0000 0.70060  0.54910  0.97030  Biso   1.000  N
  N286     1.0000 0.79419  0.59382  0.92340  Biso   1.000  N
  N287     1.0000 0.87620  0.57240  0.90141  Biso   1.000  N
  N288     1.0000 0.76040  0.55950  0.84830  Biso   1.000  N
  O214     1.0000 0.67130  0.50690  0.90570  Biso   1.000  O
  H1362    1.0000 0.67900  0.49400  0.92370  Biso   1.000  H
  O215     1.0000 0.00140  0.52070  0.91890  Biso   1.000  O
  H1363    1.0000 0.01400  0.52900  0.93800  Biso   1.000  H
  H1364    1.0000 0.95670  0.49550  0.88720  Biso   1.000  H
  H1365    1.0000 0.98450  0.51010  0.91930  Biso   1.000  H
  C1080    1.0000 0.66230  0.54060  0.88160  Biso   1.000  C
  H1366    1.0000 0.63820  0.53730  0.86810  Biso   1.000  H
  H1367    1.0000 0.66140  0.56390  0.89660  Biso   1.000  H
  O216     1.0000 0.99660  0.53060  0.86800  Biso   1.000  O
  H1368    1.0000 0.99640  0.51940  0.84620  Biso   1.000  H
  C1081    1.0000 0.53230  0.73090  0.82510  Biso   1.000  C
  C1082    1.0000 0.47090  0.69960  0.85610  Biso   1.000  C
  C1083    1.0000 0.34700  0.64360  0.79680  Biso   1.000  C
  H1369    1.0000 0.35330  0.62740  0.77660  Biso   1.000  H
  C1084    1.0000 0.30950  0.65860  0.79830  Biso   1.000  C
  C1085    1.0000 0.30110  0.68270  0.82740  Biso   1.000  C
  H1370    1.0000 0.27670  0.69320  0.82940  Biso   1.000  H
  C1086    1.0000 0.32880  0.69170  0.85410  Biso   1.000  C
  H1371    1.0000 0.32360  0.70890  0.87370  Biso   1.000  H
  C1087    1.0000 0.36470  0.67460  0.85120  Biso   1.000  C
  H1372    1.0000 0.38290  0.67970  0.87000  Biso   1.000  H
  C1088    1.0000 0.52060  0.62070  0.80180  Biso   1.000  C
  H1373    1.0000 0.51870  0.64720  0.80430  Biso   1.000  H
  C1089    1.0000 0.55440  0.60450  0.79050  Biso   1.000  C
  C1090    1.0000 0.55770  0.56580  0.78850  Biso   1.000  C
  H1374    1.0000 0.58090  0.55480  0.78120  Biso   1.000  H
  C1091    1.0000 0.52880  0.54400  0.79670  Biso   1.000  C
  H1375    1.0000 0.53100  0.51750  0.79500  Biso   1.000  H
  C1092    1.0000 0.49430  0.56090  0.80800  Biso   1.000  C
  H1376    1.0000 0.47390  0.54510  0.81460  Biso   1.000  H
  C1093    1.0000 0.27980  0.64670  0.76790  Biso   1.000  C
  H1377    1.0000 0.27510  0.61940  0.77010  Biso   1.000  H
  H1378    1.0000 0.28990  0.65160  0.74250  Biso   1.000  H
  C1094    1.0000 0.59120  0.61920  0.77110  Biso   1.000  C
  H1379    1.0000 0.59920  0.60240  0.75040  Biso   1.000  H
  H1380    1.0000 0.61200  0.62180  0.78930  Biso   1.000  H
  N289     1.0000 0.54940  0.72030  0.79910  Biso   1.000  N
  N290     1.0000 0.45581  0.67340  0.84382  Biso   1.000  N
  N291     1.0000 0.37380  0.65141  0.82240  Biso   1.000  N
  N292     1.0000 0.48960  0.59830  0.80950  Biso   1.000  N
  O217     1.0000 0.57870  0.65570  0.75690  Biso   1.000  O
  H1381    1.0000 0.57100  0.67370  0.74400  Biso   1.000  H
  O218     1.0000 0.24860  0.66890  0.77070  Biso   1.000  O
  H1382    1.0000 0.23600  0.68800  0.77900  Biso   1.000  H
  H1383    1.0000 0.29330  0.63720  0.74550  Biso   1.000  H
  H1384    1.0000 0.26550  0.66930  0.76010  Biso   1.000  H
  C1095    1.0000 0.58770  0.63160  0.79060  Biso   1.000  C
  H1385    1.0000 0.61180  0.61810  0.78730  Biso   1.000  H
  H1386    1.0000 0.58860  0.64660  0.81390  Biso   1.000  H
  O219     1.0000 0.25340  0.61800  0.78060  Biso   1.000  O
  H1387    1.0000 0.25360  0.59620  0.76940  Biso   1.000  H
  C1096    1.0000 0.03230  0.23090  0.32510  Biso   1.000  C
  C1097    1.0000 0.97090  0.19960  0.35610  Biso   1.000  C
  C1098    1.0000 0.84700  0.14360  0.29680  Biso   1.000  C
  H1388    1.0000 0.85330  0.12740  0.27660  Biso   1.000  H
  C1099    1.0000 0.80950  0.15860  0.29830  Biso   1.000  C
  C1100    1.0000 0.80110  0.18270  0.32740  Biso   1.000  C
  H1389    1.0000 0.77670  0.19320  0.32940  Biso   1.000  H
  C1101    1.0000 0.82880  0.19170  0.35410  Biso   1.000  C
  H1390    1.0000 0.82360  0.20890  0.37370  Biso   1.000  H
  C1102    1.0000 0.86470  0.17460  0.35120  Biso   1.000  C
  H1391    1.0000 0.88290  0.17970  0.37000  Biso   1.000  H
  C1103    1.0000 0.02060  0.12070  0.30180  Biso   1.000  C
  H1392    1.0000 0.01870  0.14720  0.30430  Biso   1.000  H
  C1104    1.0000 0.05440  0.10450  0.29050  Biso   1.000  C
  C1105    1.0000 0.05770  0.06580  0.28850  Biso   1.000  C
  H1393    1.0000 0.08090  0.05480  0.28120  Biso   1.000  H
  C1106    1.0000 0.02880  0.04400  0.29670  Biso   1.000  C
  H1394    1.0000 0.03100  0.01750  0.29500  Biso   1.000  H
  C1107    1.0000 0.99430  0.06090  0.30800  Biso   1.000  C
  H1395    1.0000 0.97390  0.04510  0.31460  Biso   1.000  H
  C1108    1.0000 0.77980  0.14670  0.26790  Biso   1.000  C
  H1396    1.0000 0.77510  0.11940  0.27010  Biso   1.000  H
  H1397    1.0000 0.78990  0.15160  0.24250  Biso   1.000  H
  C1109    1.0000 0.09120  0.11920  0.27110  Biso   1.000  C
  H1398    1.0000 0.09920  0.10240  0.25040  Biso   1.000  H
  H1399    1.0000 0.11200  0.12180  0.28930  Biso   1.000  H
  N293     1.0000 0.04940  0.22030  0.29910  Biso   1.000  N
  N294     1.0000 0.95581  0.17340  0.34382  Biso   1.000  N
  N295     1.0000 0.87380  0.15141  0.32240  Biso   1.000  N
  N296     1.0000 0.98960  0.09830  0.30950  Biso   1.000  N
  O220     1.0000 0.07870  0.15570  0.25690  Biso   1.000  O
  H1400    1.0000 0.07100  0.17370  0.24400  Biso   1.000  H
  O221     1.0000 0.74860  0.16890  0.27070  Biso   1.000  O
  H1401    1.0000 0.73600  0.18800  0.27900  Biso   1.000  H
  H1402    1.0000 0.79330  0.13720  0.24550  Biso   1.000  H
  H1403    1.0000 0.76550  0.16930  0.26010  Biso   1.000  H
  C1110    1.0000 0.08770  0.13160  0.29060  Biso   1.000  C
  H1404    1.0000 0.11180  0.11810  0.28730  Biso   1.000  H
  H1405    1.0000 0.08860  0.14660  0.31390  Biso   1.000  H
  O222     1.0000 0.75340  0.11800  0.28060  Biso   1.000  O
  H1406    1.0000 0.75360  0.09620  0.26940  Biso   1.000  H
  C1111    1.0000 0.96770  0.26910  0.32510  Biso   1.000  C
  C1112    1.0000 0.02910  0.30040  0.35610  Biso   1.000  C
  C1113    1.0000 0.15300  0.35640  0.29680  Biso   1.000  C
  H1407    1.0000 0.14670  0.37260  0.27660  Biso   1.000  H
  C1114    1.0000 0.19050  0.34140  0.29830  Biso   1.000  C
  C1115    1.0000 0.19890  0.31730  0.32740  Biso   1.000  C
  H1408    1.0000 0.22330  0.30680  0.32940  Biso   1.000  H
  C1116    1.0000 0.17120  0.30830  0.35410  Biso   1.000  C
  H1409    1.0000 0.17640  0.29110  0.37370  Biso   1.000  H
  C1117    1.0000 0.13530  0.32540  0.35120  Biso   1.000  C
  H1410    1.0000 0.11710  0.32030  0.37000  Biso   1.000  H
  C1118    1.0000 0.97940  0.37930  0.30180  Biso   1.000  C
  H1411    1.0000 0.98130  0.35280  0.30430  Biso   1.000  H
  C1119    1.0000 0.94560  0.39550  0.29050  Biso   1.000  C
  C1120    1.0000 0.94230  0.43420  0.28850  Biso   1.000  C
  H1412    1.0000 0.91910  0.44520  0.28120  Biso   1.000  H
  C1121    1.0000 0.97120  0.45600  0.29670  Biso   1.000  C
  H1413    1.0000 0.96900  0.48250  0.29500  Biso   1.000  H
  C1122    1.0000 0.00570  0.43910  0.30800  Biso   1.000  C
  H1414    1.0000 0.02610  0.45490  0.31460  Biso   1.000  H
  C1123    1.0000 0.22020  0.35330  0.26790  Biso   1.000  C
  H1415    1.0000 0.22490  0.38060  0.27010  Biso   1.000  H
  H1416    1.0000 0.21010  0.34840  0.24250  Biso   1.000  H
  C1124    1.0000 0.90880  0.38080  0.27110  Biso   1.000  C
  H1417    1.0000 0.90080  0.39760  0.25040  Biso   1.000  H
  H1418    1.0000 0.88800  0.37820  0.28930  Biso   1.000  H
  N297     1.0000 0.95060  0.27970  0.29910  Biso   1.000  N
  N298     1.0000 0.04419  0.32660  0.34382  Biso   1.000  N
  N299     1.0000 0.12620  0.34859  0.32240  Biso   1.000  N
  N300     1.0000 0.01040  0.40170  0.30950  Biso   1.000  N
  O223     1.0000 0.92130  0.34430  0.25690  Biso   1.000  O
  H1419    1.0000 0.92900  0.32630  0.24400  Biso   1.000  H
  O224     1.0000 0.25140  0.33110  0.27070  Biso   1.000  O
  H1420    1.0000 0.26400  0.31200  0.27900  Biso   1.000  H
  H1421    1.0000 0.20670  0.36280  0.24550  Biso   1.000  H
  H1422    1.0000 0.23450  0.33070  0.26010  Biso   1.000  H
  C1125    1.0000 0.91230  0.36840  0.29060  Biso   1.000  C
  H1423    1.0000 0.88820  0.38190  0.28730  Biso   1.000  H
  H1424    1.0000 0.91140  0.35340  0.31390  Biso   1.000  H
  O225     1.0000 0.24660  0.38200  0.28060  Biso   1.000  O
  H1425    1.0000 0.24640  0.40380  0.26940  Biso   1.000  H
  C1126    1.0000 0.46770  0.76910  0.82510  Biso   1.000  C
  C1127    1.0000 0.52910  0.80040  0.85610  Biso   1.000  C
  C1128    1.0000 0.65300  0.85640  0.79680  Biso   1.000  C
  H1426    1.0000 0.64670  0.87260  0.77660  Biso   1.000  H
  C1129    1.0000 0.69050  0.84140  0.79830  Biso   1.000  C
  C1130    1.0000 0.69890  0.81730  0.82740  Biso   1.000  C
  H1427    1.0000 0.72330  0.80680  0.82940  Biso   1.000  H
  C1131    1.0000 0.67120  0.80830  0.85410  Biso   1.000  C
  H1428    1.0000 0.67640  0.79110  0.87370  Biso   1.000  H
  C1132    1.0000 0.63530  0.82540  0.85120  Biso   1.000  C
  H1429    1.0000 0.61710  0.82030  0.87000  Biso   1.000  H
  C1133    1.0000 0.47940  0.87930  0.80180  Biso   1.000  C
  H1430    1.0000 0.48130  0.85280  0.80430  Biso   1.000  H
  C1134    1.0000 0.44560  0.89550  0.79050  Biso   1.000  C
  C1135    1.0000 0.44230  0.93420  0.78850  Biso   1.000  C
  H1431    1.0000 0.41910  0.94520  0.78120  Biso   1.000  H
  C1136    1.0000 0.47120  0.95600  0.79670  Biso   1.000  C
  H1432    1.0000 0.46900  0.98250  0.79500  Biso   1.000  H
  C1137    1.0000 0.50570  0.93910  0.80800  Biso   1.000  C
  H1433    1.0000 0.52610  0.95490  0.81460  Biso   1.000  H
  C1138    1.0000 0.72020  0.85330  0.76790  Biso   1.000  C
  H1434    1.0000 0.72490  0.88060  0.77010  Biso   1.000  H
  H1435    1.0000 0.71010  0.84840  0.74250  Biso   1.000  H
  C1139    1.0000 0.40880  0.88080  0.77110  Biso   1.000  C
  H1436    1.0000 0.40080  0.89760  0.75040  Biso   1.000  H
  H1437    1.0000 0.38800  0.87820  0.78930  Biso   1.000  H
  N301     1.0000 0.45060  0.77970  0.79910  Biso   1.000  N
  N302     1.0000 0.54419  0.82660  0.84382  Biso   1.000  N
  N303     1.0000 0.62620  0.84859  0.82240  Biso   1.000  N
  N304     1.0000 0.51040  0.90170  0.80950  Biso   1.000  N
  O226     1.0000 0.42130  0.84430  0.75690  Biso   1.000  O
  H1438    1.0000 0.42900  0.82630  0.74400  Biso   1.000  H
  O227     1.0000 0.75140  0.83110  0.77070  Biso   1.000  O
  H1439    1.0000 0.76400  0.81200  0.77900  Biso   1.000  H
  H1440    1.0000 0.70670  0.86280  0.74550  Biso   1.000  H
  H1441    1.0000 0.73450  0.83070  0.76010  Biso   1.000  H
  C1140    1.0000 0.41230  0.86840  0.79060  Biso   1.000  C
  H1442    1.0000 0.38820  0.88190  0.78730  Biso   1.000  H
  H1443    1.0000 0.41140  0.85340  0.81390  Biso   1.000  H
  O228     1.0000 0.74660  0.88200  0.78060  Biso   1.000  O
  H1444    1.0000 0.74640  0.90380  0.76940  Biso   1.000  H
  C1141    1.0000 0.03230  0.76910  0.17490  Biso   1.000  C
  C1142    1.0000 0.97090  0.80040  0.14390  Biso   1.000  C
  C1143    1.0000 0.84700  0.85640  0.20320  Biso   1.000  C
  H1445    1.0000 0.85330  0.87260  0.22340  Biso   1.000  H
  C1144    1.0000 0.80950  0.84140  0.20170  Biso   1.000  C
  C1145    1.0000 0.80110  0.81730  0.17260  Biso   1.000  C
  H1446    1.0000 0.77670  0.80680  0.17060  Biso   1.000  H
  C1146    1.0000 0.82880  0.80830  0.14590  Biso   1.000  C
  H1447    1.0000 0.82360  0.79110  0.12630  Biso   1.000  H
  C1147    1.0000 0.86470  0.82540  0.14880  Biso   1.000  C
  H1448    1.0000 0.88290  0.82030  0.13000  Biso   1.000  H
  C1148    1.0000 0.02060  0.87930  0.19820  Biso   1.000  C
  H1449    1.0000 0.01870  0.85280  0.19570  Biso   1.000  H
  C1149    1.0000 0.05440  0.89550  0.20950  Biso   1.000  C
  C1150    1.0000 0.05770  0.93420  0.21150  Biso   1.000  C
  H1450    1.0000 0.08090  0.94520  0.21880  Biso   1.000  H
  C1151    1.0000 0.02880  0.95600  0.20330  Biso   1.000  C
  H1451    1.0000 0.03100  0.98250  0.20500  Biso   1.000  H
  C1152    1.0000 0.99430  0.93910  0.19200  Biso   1.000  C
  H1452    1.0000 0.97390  0.95490  0.18540  Biso   1.000  H
  C1153    1.0000 0.77980  0.85330  0.23210  Biso   1.000  C
  H1453    1.0000 0.77510  0.88060  0.22990  Biso   1.000  H
  H1454    1.0000 0.78990  0.84840  0.25750  Biso   1.000  H
  C1154    1.0000 0.09120  0.88080  0.22890  Biso   1.000  C
  H1455    1.0000 0.09920  0.89760  0.24960  Biso   1.000  H
  H1456    1.0000 0.11200  0.87820  0.21070  Biso   1.000  H
  N305     1.0000 0.04940  0.77970  0.20090  Biso   1.000  N
  N306     1.0000 0.95581  0.82660  0.15618  Biso   1.000  N
  N307     1.0000 0.87380  0.84859  0.17760  Biso   1.000  N
  N308     1.0000 0.98960  0.90170  0.19050  Biso   1.000  N
  O229     1.0000 0.07870  0.84430  0.24310  Biso   1.000  O
  H1457    1.0000 0.07100  0.82630  0.25600  Biso   1.000  H
  O230     1.0000 0.74860  0.83110  0.22930  Biso   1.000  O
  H1458    1.0000 0.73600  0.81200  0.22100  Biso   1.000  H
  H1459    1.0000 0.79330  0.86280  0.25450  Biso   1.000  H
  H1460    1.0000 0.76550  0.83070  0.23990  Biso   1.000  H
  C1155    1.0000 0.08770  0.86840  0.20940  Biso   1.000  C
  H1461    1.0000 0.11180  0.88190  0.21270  Biso   1.000  H
  H1462    1.0000 0.08860  0.85340  0.18610  Biso   1.000  H
  O231     1.0000 0.75340  0.88200  0.21940  Biso   1.000  O
  H1463    1.0000 0.75360  0.90380  0.23060  Biso   1.000  H
  C1156    1.0000 0.53230  0.26910  0.67490  Biso   1.000  C
  C1157    1.0000 0.47090  0.30040  0.64390  Biso   1.000  C
  C1158    1.0000 0.34700  0.35640  0.70320  Biso   1.000  C
  H1464    1.0000 0.35330  0.37260  0.72340  Biso   1.000  H
  C1159    1.0000 0.30950  0.34140  0.70170  Biso   1.000  C
  C1160    1.0000 0.30110  0.31730  0.67260  Biso   1.000  C
  H1465    1.0000 0.27670  0.30680  0.67060  Biso   1.000  H
  C1161    1.0000 0.32880  0.30830  0.64590  Biso   1.000  C
  H1466    1.0000 0.32360  0.29110  0.62630  Biso   1.000  H
  C1162    1.0000 0.36470  0.32540  0.64880  Biso   1.000  C
  H1467    1.0000 0.38290  0.32030  0.63000  Biso   1.000  H
  C1163    1.0000 0.52060  0.37930  0.69820  Biso   1.000  C
  H1468    1.0000 0.51870  0.35280  0.69570  Biso   1.000  H
  C1164    1.0000 0.55440  0.39550  0.70950  Biso   1.000  C
  C1165    1.0000 0.55770  0.43420  0.71150  Biso   1.000  C
  H1469    1.0000 0.58090  0.44520  0.71880  Biso   1.000  H
  C1166    1.0000 0.52880  0.45600  0.70330  Biso   1.000  C
  H1470    1.0000 0.53100  0.48250  0.70500  Biso   1.000  H
  C1167    1.0000 0.49430  0.43910  0.69200  Biso   1.000  C
  H1471    1.0000 0.47390  0.45490  0.68540  Biso   1.000  H
  C1168    1.0000 0.27980  0.35330  0.73210  Biso   1.000  C
  H1472    1.0000 0.27510  0.38060  0.72990  Biso   1.000  H
  H1473    1.0000 0.28990  0.34840  0.75750  Biso   1.000  H
  C1169    1.0000 0.59120  0.38080  0.72890  Biso   1.000  C
  H1474    1.0000 0.59920  0.39760  0.74960  Biso   1.000  H
  H1475    1.0000 0.61200  0.37820  0.71070  Biso   1.000  H
  N309     1.0000 0.54940  0.27970  0.70090  Biso   1.000  N
  N310     1.0000 0.45581  0.32660  0.65618  Biso   1.000  N
  N311     1.0000 0.37380  0.34859  0.67760  Biso   1.000  N
  N312     1.0000 0.48960  0.40170  0.69050  Biso   1.000  N
  O232     1.0000 0.57870  0.34430  0.74310  Biso   1.000  O
  H1476    1.0000 0.57100  0.32630  0.75600  Biso   1.000  H
  O233     1.0000 0.24860  0.33110  0.72930  Biso   1.000  O
  H1477    1.0000 0.23600  0.31200  0.72100  Biso   1.000  H
  H1478    1.0000 0.29330  0.36280  0.75450  Biso   1.000  H
  H1479    1.0000 0.26550  0.33070  0.73990  Biso   1.000  H
  C1170    1.0000 0.58770  0.36840  0.70940  Biso   1.000  C
  H1480    1.0000 0.61180  0.38190  0.71270  Biso   1.000  H
  H1481    1.0000 0.58860  0.35340  0.68610  Biso   1.000  H
  O234     1.0000 0.25340  0.38200  0.71940  Biso   1.000  O
  H1482    1.0000 0.25360  0.40380  0.73060  Biso   1.000  H
  C1171    1.0000 0.46770  0.23090  0.67490  Biso   1.000  C
  C1172    1.0000 0.52910  0.19960  0.64390  Biso   1.000  C
  C1173    1.0000 0.65300  0.14360  0.70320  Biso   1.000  C
  H1483    1.0000 0.64670  0.12740  0.72340  Biso   1.000  H
  C1174    1.0000 0.69050  0.15860  0.70170  Biso   1.000  C
  C1175    1.0000 0.69890  0.18270  0.67260  Biso   1.000  C
  H1484    1.0000 0.72330  0.19320  0.67060  Biso   1.000  H
  C1176    1.0000 0.67120  0.19170  0.64590  Biso   1.000  C
  H1485    1.0000 0.67640  0.20890  0.62630  Biso   1.000  H
  C1177    1.0000 0.63530  0.17460  0.64880  Biso   1.000  C
  H1486    1.0000 0.61710  0.17970  0.63000  Biso   1.000  H
  C1178    1.0000 0.47940  0.12070  0.69820  Biso   1.000  C
  H1487    1.0000 0.48130  0.14720  0.69570  Biso   1.000  H
  C1179    1.0000 0.44560  0.10450  0.70950  Biso   1.000  C
  C1180    1.0000 0.44230  0.06580  0.71150  Biso   1.000  C
  H1488    1.0000 0.41910  0.05480  0.71880  Biso   1.000  H
  C1181    1.0000 0.47120  0.04400  0.70330  Biso   1.000  C
  H1489    1.0000 0.46900  0.01750  0.70500  Biso   1.000  H
  C1182    1.0000 0.50570  0.06090  0.69200  Biso   1.000  C
  H1490    1.0000 0.52610  0.04510  0.68540  Biso   1.000  H
  C1183    1.0000 0.72020  0.14670  0.73210  Biso   1.000  C
  H1491    1.0000 0.72490  0.11940  0.72990  Biso   1.000  H
  H1492    1.0000 0.71010  0.15160  0.75750  Biso   1.000  H
  C1184    1.0000 0.40880  0.11920  0.72890  Biso   1.000  C
  H1493    1.0000 0.40080  0.10240  0.74960  Biso   1.000  H
  H1494    1.0000 0.38800  0.12180  0.71070  Biso   1.000  H
  N313     1.0000 0.45060  0.22030  0.70090  Biso   1.000  N
  N314     1.0000 0.54419  0.17340  0.65618  Biso   1.000  N
  N315     1.0000 0.62620  0.15141  0.67760  Biso   1.000  N
  N316     1.0000 0.51040  0.09830  0.69050  Biso   1.000  N
  O235     1.0000 0.42130  0.15570  0.74310  Biso   1.000  O
  H1495    1.0000 0.42900  0.17370  0.75600  Biso   1.000  H
  O236     1.0000 0.75140  0.16890  0.72930  Biso   1.000  O
  H1496    1.0000 0.76400  0.18800  0.72100  Biso   1.000  H
  H1497    1.0000 0.70670  0.13720  0.75450  Biso   1.000  H
  H1498    1.0000 0.73450  0.16930  0.73990  Biso   1.000  H
  C1185    1.0000 0.41230  0.13160  0.70940  Biso   1.000  C
  H1499    1.0000 0.38820  0.11810  0.71270  Biso   1.000  H
  H1500    1.0000 0.41140  0.14660  0.68610  Biso   1.000  H
  O237     1.0000 0.74660  0.11800  0.71940  Biso   1.000  O
  H1501    1.0000 0.74640  0.09620  0.73060  Biso   1.000  H
  C1186    1.0000 0.96770  0.73090  0.17490  Biso   1.000  C
  C1187    1.0000 0.02910  0.69960  0.14390  Biso   1.000  C
  C1188    1.0000 0.15300  0.64360  0.20320  Biso   1.000  C
  H1502    1.0000 0.14670  0.62740  0.22340  Biso   1.000  H
  C1189    1.0000 0.19050  0.65860  0.20170  Biso   1.000  C
  C1190    1.0000 0.19890  0.68270  0.17260  Biso   1.000  C
  H1503    1.0000 0.22330  0.69320  0.17060  Biso   1.000  H
  C1191    1.0000 0.17120  0.69170  0.14590  Biso   1.000  C
  H1504    1.0000 0.17640  0.70890  0.12630  Biso   1.000  H
  C1192    1.0000 0.13530  0.67460  0.14880  Biso   1.000  C
  H1505    1.0000 0.11710  0.67970  0.13000  Biso   1.000  H
  C1193    1.0000 0.97940  0.62070  0.19820  Biso   1.000  C
  H1506    1.0000 0.98130  0.64720  0.19570  Biso   1.000  H
  C1194    1.0000 0.94560  0.60450  0.20950  Biso   1.000  C
  C1195    1.0000 0.94230  0.56580  0.21150  Biso   1.000  C
  H1507    1.0000 0.91910  0.55480  0.21880  Biso   1.000  H
  C1196    1.0000 0.97120  0.54400  0.20330  Biso   1.000  C
  H1508    1.0000 0.96900  0.51750  0.20500  Biso   1.000  H
  C1197    1.0000 0.00570  0.56090  0.19200  Biso   1.000  C
  H1509    1.0000 0.02610  0.54510  0.18540  Biso   1.000  H
  C1198    1.0000 0.22020  0.64670  0.23210  Biso   1.000  C
  H1510    1.0000 0.22490  0.61940  0.22990  Biso   1.000  H
  H1511    1.0000 0.21010  0.65160  0.25750  Biso   1.000  H
  C1199    1.0000 0.90880  0.61920  0.22890  Biso   1.000  C
  H1512    1.0000 0.90080  0.60240  0.24960  Biso   1.000  H
  H1513    1.0000 0.88800  0.62180  0.21070  Biso   1.000  H
  N317     1.0000 0.95060  0.72030  0.20090  Biso   1.000  N
  N318     1.0000 0.04419  0.67340  0.15618  Biso   1.000  N
  N319     1.0000 0.12620  0.65141  0.17760  Biso   1.000  N
  N320     1.0000 0.01040  0.59830  0.19050  Biso   1.000  N
  O238     1.0000 0.92130  0.65570  0.24310  Biso   1.000  O
  H1514    1.0000 0.92900  0.67370  0.25600  Biso   1.000  H
  O239     1.0000 0.25140  0.66890  0.22930  Biso   1.000  O
  H1515    1.0000 0.26400  0.68800  0.22100  Biso   1.000  H
  H1516    1.0000 0.20670  0.63720  0.25450  Biso   1.000  H
  H1517    1.0000 0.23450  0.66930  0.23990  Biso   1.000  H
  C1200    1.0000 0.91230  0.63160  0.20940  Biso   1.000  C
  H1518    1.0000 0.88820  0.61810  0.21270  Biso   1.000  H
  H1519    1.0000 0.91140  0.64660  0.18610  Biso   1.000  H
  O240     1.0000 0.24660  0.61800  0.21940  Biso   1.000  O
  H1520    1.0000 0.24640  0.59620  0.23060  Biso   1.000  H
  C1201    1.0000 0.23090  0.67490  0.46770  Biso   1.000  C
  C1202    1.0000 0.19960  0.64390  0.52910  Biso   1.000  C
  C1203    1.0000 0.14360  0.70320  0.65300  Biso   1.000  C
  H1521    1.0000 0.12740  0.72340  0.64670  Biso   1.000  H
  C1204    1.0000 0.15860  0.70170  0.69050  Biso   1.000  C
  C1205    1.0000 0.18270  0.67260  0.69890  Biso   1.000  C
  H1522    1.0000 0.19320  0.67060  0.72330  Biso   1.000  H
  C1206    1.0000 0.19170  0.64590  0.67120  Biso   1.000  C
  H1523    1.0000 0.20890  0.62630  0.67640  Biso   1.000  H
  C1207    1.0000 0.17460  0.64880  0.63530  Biso   1.000  C
  H1524    1.0000 0.17970  0.63000  0.61710  Biso   1.000  H
  C1208    1.0000 0.12070  0.69820  0.47940  Biso   1.000  C
  H1525    1.0000 0.14720  0.69570  0.48130  Biso   1.000  H
  C1209    1.0000 0.10450  0.70950  0.44560  Biso   1.000  C
  C1210    1.0000 0.06580  0.71150  0.44230  Biso   1.000  C
  H1526    1.0000 0.05480  0.71880  0.41910  Biso   1.000  H
  C1211    1.0000 0.04400  0.70330  0.47120  Biso   1.000  C
  H1527    1.0000 0.01750  0.70500  0.46900  Biso   1.000  H
  C1212    1.0000 0.06090  0.69200  0.50570  Biso   1.000  C
  H1528    1.0000 0.04510  0.68540  0.52610  Biso   1.000  H
  C1213    1.0000 0.14670  0.73210  0.72020  Biso   1.000  C
  H1529    1.0000 0.11940  0.72990  0.72490  Biso   1.000  H
  H1530    1.0000 0.15160  0.75750  0.71010  Biso   1.000  H
  C1214    1.0000 0.11920  0.72890  0.40880  Biso   1.000  C
  H1531    1.0000 0.10240  0.74960  0.40080  Biso   1.000  H
  H1532    1.0000 0.12180  0.71070  0.38800  Biso   1.000  H
  N321     1.0000 0.22030  0.70090  0.45060  Biso   1.000  N
  N322     1.0000 0.17340  0.65618  0.54419  Biso   1.000  N
  N323     1.0000 0.15141  0.67760  0.62620  Biso   1.000  N
  N324     1.0000 0.09830  0.69050  0.51040  Biso   1.000  N
  O241     1.0000 0.15570  0.74310  0.42130  Biso   1.000  O
  H1533    1.0000 0.17370  0.75600  0.42900  Biso   1.000  H
  O242     1.0000 0.16890  0.72930  0.75140  Biso   1.000  O
  H1534    1.0000 0.18800  0.72100  0.76400  Biso   1.000  H
  H1535    1.0000 0.13720  0.75450  0.70670  Biso   1.000  H
  H1536    1.0000 0.16930  0.73990  0.73450  Biso   1.000  H
  C1215    1.0000 0.13160  0.70940  0.41230  Biso   1.000  C
  H1537    1.0000 0.11810  0.71270  0.38820  Biso   1.000  H
  H1538    1.0000 0.14660  0.68610  0.41140  Biso   1.000  H
  O243     1.0000 0.11800  0.71940  0.74660  Biso   1.000  O
  H1539    1.0000 0.09620  0.73060  0.74640  Biso   1.000  H
  C1216    1.0000 0.73090  0.17490  0.96770  Biso   1.000  C
  C1217    1.0000 0.69960  0.14390  0.02910  Biso   1.000  C
  C1218    1.0000 0.64360  0.20320  0.15300  Biso   1.000  C
  H1540    1.0000 0.62740  0.22340  0.14670  Biso   1.000  H
  C1219    1.0000 0.65860  0.20170  0.19050  Biso   1.000  C
  C1220    1.0000 0.68270  0.17260  0.19890  Biso   1.000  C
  H1541    1.0000 0.69320  0.17060  0.22330  Biso   1.000  H
  C1221    1.0000 0.69170  0.14590  0.17120  Biso   1.000  C
  H1542    1.0000 0.70890  0.12630  0.17640  Biso   1.000  H
  C1222    1.0000 0.67460  0.14880  0.13530  Biso   1.000  C
  H1543    1.0000 0.67970  0.13000  0.11710  Biso   1.000  H
  C1223    1.0000 0.62070  0.19820  0.97940  Biso   1.000  C
  H1544    1.0000 0.64720  0.19570  0.98130  Biso   1.000  H
  C1224    1.0000 0.60450  0.20950  0.94560  Biso   1.000  C
  C1225    1.0000 0.56580  0.21150  0.94230  Biso   1.000  C
  H1545    1.0000 0.55480  0.21880  0.91910  Biso   1.000  H
  C1226    1.0000 0.54400  0.20330  0.97120  Biso   1.000  C
  H1546    1.0000 0.51750  0.20500  0.96900  Biso   1.000  H
  C1227    1.0000 0.56090  0.19200  0.00570  Biso   1.000  C
  H1547    1.0000 0.54510  0.18540  0.02610  Biso   1.000  H
  C1228    1.0000 0.64670  0.23210  0.22020  Biso   1.000  C
  H1548    1.0000 0.61940  0.22990  0.22490  Biso   1.000  H
  H1549    1.0000 0.65160  0.25750  0.21010  Biso   1.000  H
  C1229    1.0000 0.61920  0.22890  0.90880  Biso   1.000  C
  H1550    1.0000 0.60240  0.24960  0.90080  Biso   1.000  H
  H1551    1.0000 0.62180  0.21070  0.88800  Biso   1.000  H
  N325     1.0000 0.72030  0.20090  0.95060  Biso   1.000  N
  N326     1.0000 0.67340  0.15618  0.04419  Biso   1.000  N
  N327     1.0000 0.65141  0.17760  0.12620  Biso   1.000  N
  N328     1.0000 0.59830  0.19050  0.01040  Biso   1.000  N
  O244     1.0000 0.65570  0.24310  0.92130  Biso   1.000  O
  H1552    1.0000 0.67370  0.25600  0.92900  Biso   1.000  H
  O245     1.0000 0.66890  0.22930  0.25140  Biso   1.000  O
  H1553    1.0000 0.68800  0.22100  0.26400  Biso   1.000  H
  H1554    1.0000 0.63720  0.25450  0.20670  Biso   1.000  H
  H1555    1.0000 0.66930  0.23990  0.23450  Biso   1.000  H
  C1230    1.0000 0.63160  0.20940  0.91230  Biso   1.000  C
  H1556    1.0000 0.61810  0.21270  0.88820  Biso   1.000  H
  H1557    1.0000 0.64660  0.18610  0.91140  Biso   1.000  H
  O246     1.0000 0.61800  0.21940  0.24660  Biso   1.000  O
  H1558    1.0000 0.59620  0.23060  0.24640  Biso   1.000  H
  C1231    1.0000 0.76910  0.17490  0.03230  Biso   1.000  C
  C1232    1.0000 0.80040  0.14390  0.97090  Biso   1.000  C
  C1233    1.0000 0.85640  0.20320  0.84700  Biso   1.000  C
  H1559    1.0000 0.87260  0.22340  0.85330  Biso   1.000  H
  C1234    1.0000 0.84140  0.20170  0.80950  Biso   1.000  C
  C1235    1.0000 0.81730  0.17260  0.80110  Biso   1.000  C
  H1560    1.0000 0.80680  0.17060  0.77670  Biso   1.000  H
  C1236    1.0000 0.80830  0.14590  0.82880  Biso   1.000  C
  H1561    1.0000 0.79110  0.12630  0.82360  Biso   1.000  H
  C1237    1.0000 0.82540  0.14880  0.86470  Biso   1.000  C
  H1562    1.0000 0.82030  0.13000  0.88290  Biso   1.000  H
  C1238    1.0000 0.87930  0.19820  0.02060  Biso   1.000  C
  H1563    1.0000 0.85280  0.19570  0.01870  Biso   1.000  H
  C1239    1.0000 0.89550  0.20950  0.05440  Biso   1.000  C
  C1240    1.0000 0.93420  0.21150  0.05770  Biso   1.000  C
  H1564    1.0000 0.94520  0.21880  0.08090  Biso   1.000  H
  C1241    1.0000 0.95600  0.20330  0.02880  Biso   1.000  C
  H1565    1.0000 0.98250  0.20500  0.03100  Biso   1.000  H
  C1242    1.0000 0.93910  0.19200  0.99430  Biso   1.000  C
  H1566    1.0000 0.95490  0.18540  0.97390  Biso   1.000  H
  C1243    1.0000 0.85330  0.23210  0.77980  Biso   1.000  C
  H1567    1.0000 0.88060  0.22990  0.77510  Biso   1.000  H
  H1568    1.0000 0.84840  0.25750  0.78990  Biso   1.000  H
  C1244    1.0000 0.88080  0.22890  0.09120  Biso   1.000  C
  H1569    1.0000 0.89760  0.24960  0.09920  Biso   1.000  H
  H1570    1.0000 0.87820  0.21070  0.11200  Biso   1.000  H
  N329     1.0000 0.77970  0.20090  0.04940  Biso   1.000  N
  N330     1.0000 0.82660  0.15618  0.95581  Biso   1.000  N
  N331     1.0000 0.84859  0.17760  0.87380  Biso   1.000  N
  N332     1.0000 0.90170  0.19050  0.98960  Biso   1.000  N
  O247     1.0000 0.84430  0.24310  0.07870  Biso   1.000  O
  H1571    1.0000 0.82630  0.25600  0.07100  Biso   1.000  H
  O248     1.0000 0.83110  0.22930  0.74860  Biso   1.000  O
  H1572    1.0000 0.81200  0.22100  0.73600  Biso   1.000  H
  H1573    1.0000 0.86280  0.25450  0.79330  Biso   1.000  H
  H1574    1.0000 0.83070  0.23990  0.76550  Biso   1.000  H
  C1245    1.0000 0.86840  0.20940  0.08770  Biso   1.000  C
  H1575    1.0000 0.88190  0.21270  0.11180  Biso   1.000  H
  H1576    1.0000 0.85340  0.18610  0.08860  Biso   1.000  H
  O249     1.0000 0.88200  0.21940  0.75340  Biso   1.000  O
  H1577    1.0000 0.90380  0.23060  0.75360  Biso   1.000  H
  C1246    1.0000 0.26910  0.67490  0.53230  Biso   1.000  C
  C1247    1.0000 0.30040  0.64390  0.47090  Biso   1.000  C
  C1248    1.0000 0.35640  0.70320  0.34700  Biso   1.000  C
  H1578    1.0000 0.37260  0.72340  0.35330  Biso   1.000  H
  C1249    1.0000 0.34140  0.70170  0.30950  Biso   1.000  C
  C1250    1.0000 0.31730  0.67260  0.30110  Biso   1.000  C
  H1579    1.0000 0.30680  0.67060  0.27670  Biso   1.000  H
  C1251    1.0000 0.30830  0.64590  0.32880  Biso   1.000  C
  H1580    1.0000 0.29110  0.62630  0.32360  Biso   1.000  H
  C1252    1.0000 0.32540  0.64880  0.36470  Biso   1.000  C
  H1581    1.0000 0.32030  0.63000  0.38290  Biso   1.000  H
  C1253    1.0000 0.37930  0.69820  0.52060  Biso   1.000  C
  H1582    1.0000 0.35280  0.69570  0.51870  Biso   1.000  H
  C1254    1.0000 0.39550  0.70950  0.55440  Biso   1.000  C
  C1255    1.0000 0.43420  0.71150  0.55770  Biso   1.000  C
  H1583    1.0000 0.44520  0.71880  0.58090  Biso   1.000  H
  C1256    1.0000 0.45600  0.70330  0.52880  Biso   1.000  C
  H1584    1.0000 0.48250  0.70500  0.53100  Biso   1.000  H
  C1257    1.0000 0.43910  0.69200  0.49430  Biso   1.000  C
  H1585    1.0000 0.45490  0.68540  0.47390  Biso   1.000  H
  C1258    1.0000 0.35330  0.73210  0.27980  Biso   1.000  C
  H1586    1.0000 0.38060  0.72990  0.27510  Biso   1.000  H
  H1587    1.0000 0.34840  0.75750  0.28990  Biso   1.000  H
  C1259    1.0000 0.38080  0.72890  0.59120  Biso   1.000  C
  H1588    1.0000 0.39760  0.74960  0.59920  Biso   1.000  H
  H1589    1.0000 0.37820  0.71070  0.61200  Biso   1.000  H
  N333     1.0000 0.27970  0.70090  0.54940  Biso   1.000  N
  N334     1.0000 0.32660  0.65618  0.45581  Biso   1.000  N
  N335     1.0000 0.34859  0.67760  0.37380  Biso   1.000  N
  N336     1.0000 0.40170  0.69050  0.48960  Biso   1.000  N
  O250     1.0000 0.34430  0.74310  0.57870  Biso   1.000  O
  H1590    1.0000 0.32630  0.75600  0.57100  Biso   1.000  H
  O251     1.0000 0.33110  0.72930  0.24860  Biso   1.000  O
  H1591    1.0000 0.31200  0.72100  0.23600  Biso   1.000  H
  H1592    1.0000 0.36280  0.75450  0.29330  Biso   1.000  H
  H1593    1.0000 0.33070  0.73990  0.26550  Biso   1.000  H
  C1260    1.0000 0.36840  0.70940  0.58770  Biso   1.000  C
  H1594    1.0000 0.38190  0.71270  0.61180  Biso   1.000  H
  H1595    1.0000 0.35340  0.68610  0.58860  Biso   1.000  H
  O252     1.0000 0.38200  0.71940  0.25340  Biso   1.000  O
  H1596    1.0000 0.40380  0.73060  0.25360  Biso   1.000  H
  C1261    1.0000 0.26910  0.32510  0.96770  Biso   1.000  C
  C1262    1.0000 0.30040  0.35610  0.02910  Biso   1.000  C
  C1263    1.0000 0.35640  0.29680  0.15300  Biso   1.000  C
  H1597    1.0000 0.37260  0.27660  0.14670  Biso   1.000  H
  C1264    1.0000 0.34140  0.29830  0.19050  Biso   1.000  C
  C1265    1.0000 0.31730  0.32740  0.19890  Biso   1.000  C
  H1598    1.0000 0.30680  0.32940  0.22330  Biso   1.000  H
  C1266    1.0000 0.30830  0.35410  0.17120  Biso   1.000  C
  H1599    1.0000 0.29110  0.37370  0.17640  Biso   1.000  H
  C1267    1.0000 0.32540  0.35120  0.13530  Biso   1.000  C
  H1600    1.0000 0.32030  0.37000  0.11710  Biso   1.000  H
  C1268    1.0000 0.37930  0.30180  0.97940  Biso   1.000  C
  H1601    1.0000 0.35280  0.30430  0.98130  Biso   1.000  H
  C1269    1.0000 0.39550  0.29050  0.94560  Biso   1.000  C
  C1270    1.0000 0.43420  0.28850  0.94230  Biso   1.000  C
  H1602    1.0000 0.44520  0.28120  0.91910  Biso   1.000  H
  C1271    1.0000 0.45600  0.29670  0.97120  Biso   1.000  C
  H1603    1.0000 0.48250  0.29500  0.96900  Biso   1.000  H
  C1272    1.0000 0.43910  0.30800  0.00570  Biso   1.000  C
  H1604    1.0000 0.45490  0.31460  0.02610  Biso   1.000  H
  C1273    1.0000 0.35330  0.26790  0.22020  Biso   1.000  C
  H1605    1.0000 0.38060  0.27010  0.22490  Biso   1.000  H
  H1606    1.0000 0.34840  0.24250  0.21010  Biso   1.000  H
  C1274    1.0000 0.38080  0.27110  0.90880  Biso   1.000  C
  H1607    1.0000 0.39760  0.25040  0.90080  Biso   1.000  H
  H1608    1.0000 0.37820  0.28930  0.88800  Biso   1.000  H
  N337     1.0000 0.27970  0.29910  0.95060  Biso   1.000  N
  N338     1.0000 0.32660  0.34382  0.04419  Biso   1.000  N
  N339     1.0000 0.34859  0.32240  0.12620  Biso   1.000  N
  N340     1.0000 0.40170  0.30950  0.01040  Biso   1.000  N
  O253     1.0000 0.34430  0.25690  0.92130  Biso   1.000  O
  H1609    1.0000 0.32630  0.24400  0.92900  Biso   1.000  H
  O254     1.0000 0.33110  0.27070  0.25140  Biso   1.000  O
  H1610    1.0000 0.31200  0.27900  0.26400  Biso   1.000  H
  H1611    1.0000 0.36280  0.24550  0.20670  Biso   1.000  H
  H1612    1.0000 0.33070  0.26010  0.23450  Biso   1.000  H
  C1275    1.0000 0.36840  0.29060  0.91230  Biso   1.000  C
  H1613    1.0000 0.38190  0.28730  0.88820  Biso   1.000  H
  H1614    1.0000 0.35340  0.31390  0.91140  Biso   1.000  H
  O255     1.0000 0.38200  0.28060  0.24660  Biso   1.000  O
  H1615    1.0000 0.40380  0.26940  0.24640  Biso   1.000  H
  C1276    1.0000 0.76910  0.82510  0.46770  Biso   1.000  C
  C1277    1.0000 0.80040  0.85610  0.52910  Biso   1.000  C
  C1278    1.0000 0.85640  0.79680  0.65300  Biso   1.000  C
  H1616    1.0000 0.87260  0.77660  0.64670  Biso   1.000  H
  C1279    1.0000 0.84140  0.79830  0.69050  Biso   1.000  C
  C1280    1.0000 0.81730  0.82740  0.69890  Biso   1.000  C
  H1617    1.0000 0.80680  0.82940  0.72330  Biso   1.000  H
  C1281    1.0000 0.80830  0.85410  0.67120  Biso   1.000  C
  H1618    1.0000 0.79110  0.87370  0.67640  Biso   1.000  H
  C1282    1.0000 0.82540  0.85120  0.63530  Biso   1.000  C
  H1619    1.0000 0.82030  0.87000  0.61710  Biso   1.000  H
  C1283    1.0000 0.87930  0.80180  0.47940  Biso   1.000  C
  H1620    1.0000 0.85280  0.80430  0.48130  Biso   1.000  H
  C1284    1.0000 0.89550  0.79050  0.44560  Biso   1.000  C
  C1285    1.0000 0.93420  0.78850  0.44230  Biso   1.000  C
  H1621    1.0000 0.94520  0.78120  0.41910  Biso   1.000  H
  C1286    1.0000 0.95600  0.79670  0.47120  Biso   1.000  C
  H1622    1.0000 0.98250  0.79500  0.46900  Biso   1.000  H
  C1287    1.0000 0.93910  0.80800  0.50570  Biso   1.000  C
  H1623    1.0000 0.95490  0.81460  0.52610  Biso   1.000  H
  C1288    1.0000 0.85330  0.76790  0.72020  Biso   1.000  C
  H1624    1.0000 0.88060  0.77010  0.72490  Biso   1.000  H
  H1625    1.0000 0.84840  0.74250  0.71010  Biso   1.000  H
  C1289    1.0000 0.88080  0.77110  0.40880  Biso   1.000  C
  H1626    1.0000 0.89760  0.75040  0.40080  Biso   1.000  H
  H1627    1.0000 0.87820  0.78930  0.38800  Biso   1.000  H
  N341     1.0000 0.77970  0.79910  0.45060  Biso   1.000  N
  N342     1.0000 0.82660  0.84382  0.54419  Biso   1.000  N
  N343     1.0000 0.84859  0.82240  0.62620  Biso   1.000  N
  N344     1.0000 0.90170  0.80950  0.51040  Biso   1.000  N
  O256     1.0000 0.84430  0.75690  0.42130  Biso   1.000  O
  H1628    1.0000 0.82630  0.74400  0.42900  Biso   1.000  H
  O257     1.0000 0.83110  0.77070  0.75140  Biso   1.000  O
  H1629    1.0000 0.81200  0.77900  0.76400  Biso   1.000  H
  H1630    1.0000 0.86280  0.74550  0.70670  Biso   1.000  H
  H1631    1.0000 0.83070  0.76010  0.73450  Biso   1.000  H
  C1290    1.0000 0.86840  0.79060  0.41230  Biso   1.000  C
  H1632    1.0000 0.88190  0.78730  0.38820  Biso   1.000  H
  H1633    1.0000 0.85340  0.81390  0.41140  Biso   1.000  H
  O258     1.0000 0.88200  0.78060  0.74660  Biso   1.000  O
  H1634    1.0000 0.90380  0.76940  0.74640  Biso   1.000  H
  C1291    1.0000 0.73090  0.82510  0.53230  Biso   1.000  C
  C1292    1.0000 0.69960  0.85610  0.47090  Biso   1.000  C
  C1293    1.0000 0.64360  0.79680  0.34700  Biso   1.000  C
  H1635    1.0000 0.62740  0.77660  0.35330  Biso   1.000  H
  C1294    1.0000 0.65860  0.79830  0.30950  Biso   1.000  C
  C1295    1.0000 0.68270  0.82740  0.30110  Biso   1.000  C
  H1636    1.0000 0.69320  0.82940  0.27670  Biso   1.000  H
  C1296    1.0000 0.69170  0.85410  0.32880  Biso   1.000  C
  H1637    1.0000 0.70890  0.87370  0.32360  Biso   1.000  H
  C1297    1.0000 0.67460  0.85120  0.36470  Biso   1.000  C
  H1638    1.0000 0.67970  0.87000  0.38290  Biso   1.000  H
  C1298    1.0000 0.62070  0.80180  0.52060  Biso   1.000  C
  H1639    1.0000 0.64720  0.80430  0.51870  Biso   1.000  H
  C1299    1.0000 0.60450  0.79050  0.55440  Biso   1.000  C
  C1300    1.0000 0.56580  0.78850  0.55770  Biso   1.000  C
  H1640    1.0000 0.55480  0.78120  0.58090  Biso   1.000  H
  C1301    1.0000 0.54400  0.79670  0.52880  Biso   1.000  C
  H1641    1.0000 0.51750  0.79500  0.53100  Biso   1.000  H
  C1302    1.0000 0.56090  0.80800  0.49430  Biso   1.000  C
  H1642    1.0000 0.54510  0.81460  0.47390  Biso   1.000  H
  C1303    1.0000 0.64670  0.76790  0.27980  Biso   1.000  C
  H1643    1.0000 0.61940  0.77010  0.27510  Biso   1.000  H
  H1644    1.0000 0.65160  0.74250  0.28990  Biso   1.000  H
  C1304    1.0000 0.61920  0.77110  0.59120  Biso   1.000  C
  H1645    1.0000 0.60240  0.75040  0.59920  Biso   1.000  H
  H1646    1.0000 0.62180  0.78930  0.61200  Biso   1.000  H
  N345     1.0000 0.72030  0.79910  0.54940  Biso   1.000  N
  N346     1.0000 0.67340  0.84382  0.45581  Biso   1.000  N
  N347     1.0000 0.65141  0.82240  0.37380  Biso   1.000  N
  N348     1.0000 0.59830  0.80950  0.48960  Biso   1.000  N
  O259     1.0000 0.65570  0.75690  0.57870  Biso   1.000  O
  H1647    1.0000 0.67370  0.74400  0.57100  Biso   1.000  H
  O260     1.0000 0.66890  0.77070  0.24860  Biso   1.000  O
  H1648    1.0000 0.68800  0.77900  0.23600  Biso   1.000  H
  H1649    1.0000 0.63720  0.74550  0.29330  Biso   1.000  H
  H1650    1.0000 0.66930  0.76010  0.26550  Biso   1.000  H
  C1305    1.0000 0.63160  0.79060  0.58770  Biso   1.000  C
  H1651    1.0000 0.61810  0.78730  0.61180  Biso   1.000  H
  H1652    1.0000 0.64660  0.81390  0.58860  Biso   1.000  H
  O261     1.0000 0.61800  0.78060  0.25340  Biso   1.000  O
  H1653    1.0000 0.59620  0.76940  0.25360  Biso   1.000  H
  C1306    1.0000 0.23090  0.32510  0.03230  Biso   1.000  C
  C1307    1.0000 0.19960  0.35610  0.97090  Biso   1.000  C
  C1308    1.0000 0.14360  0.29680  0.84700  Biso   1.000  C
  H1654    1.0000 0.12740  0.27660  0.85330  Biso   1.000  H
  C1309    1.0000 0.15860  0.29830  0.80950  Biso   1.000  C
  C1310    1.0000 0.18270  0.32740  0.80110  Biso   1.000  C
  H1655    1.0000 0.19320  0.32940  0.77670  Biso   1.000  H
  C1311    1.0000 0.19170  0.35410  0.82880  Biso   1.000  C
  H1656    1.0000 0.20890  0.37370  0.82360  Biso   1.000  H
  C1312    1.0000 0.17460  0.35120  0.86470  Biso   1.000  C
  H1657    1.0000 0.17970  0.37000  0.88290  Biso   1.000  H
  C1313    1.0000 0.12070  0.30180  0.02060  Biso   1.000  C
  H1658    1.0000 0.14720  0.30430  0.01870  Biso   1.000  H
  C1314    1.0000 0.10450  0.29050  0.05440  Biso   1.000  C
  C1315    1.0000 0.06580  0.28850  0.05770  Biso   1.000  C
  H1659    1.0000 0.05480  0.28120  0.08090  Biso   1.000  H
  C1316    1.0000 0.04400  0.29670  0.02880  Biso   1.000  C
  H1660    1.0000 0.01750  0.29500  0.03100  Biso   1.000  H
  C1317    1.0000 0.06090  0.30800  0.99430  Biso   1.000  C
  H1661    1.0000 0.04510  0.31460  0.97390  Biso   1.000  H
  C1318    1.0000 0.14670  0.26790  0.77980  Biso   1.000  C
  H1662    1.0000 0.11940  0.27010  0.77510  Biso   1.000  H
  H1663    1.0000 0.15160  0.24250  0.78990  Biso   1.000  H
  C1319    1.0000 0.11920  0.27110  0.09120  Biso   1.000  C
  H1664    1.0000 0.10240  0.25040  0.09920  Biso   1.000  H
  H1665    1.0000 0.12180  0.28930  0.11200  Biso   1.000  H
  N349     1.0000 0.22030  0.29910  0.04940  Biso   1.000  N
  N350     1.0000 0.17340  0.34382  0.95581  Biso   1.000  N
  N351     1.0000 0.15141  0.32240  0.87380  Biso   1.000  N
  N352     1.0000 0.09830  0.30950  0.98960  Biso   1.000  N
  O262     1.0000 0.15570  0.25690  0.07870  Biso   1.000  O
  H1666    1.0000 0.17370  0.24400  0.07100  Biso   1.000  H
  O263     1.0000 0.16890  0.27070  0.74860  Biso   1.000  O
  H1667    1.0000 0.18800  0.27900  0.73600  Biso   1.000  H
  H1668    1.0000 0.13720  0.24550  0.79330  Biso   1.000  H
  H1669    1.0000 0.16930  0.26010  0.76550  Biso   1.000  H
  C1320    1.0000 0.13160  0.29060  0.08770  Biso   1.000  C
  H1670    1.0000 0.11810  0.28730  0.11180  Biso   1.000  H
  H1671    1.0000 0.14660  0.31390  0.08860  Biso   1.000  H
  O264     1.0000 0.11800  0.28060  0.75340  Biso   1.000  O
  H1672    1.0000 0.09620  0.26940  0.75360  Biso   1.000  H
  C1321    1.0000 0.17490  0.03230  0.76910  Biso   1.000  C
  C1322    1.0000 0.14390  0.97090  0.80040  Biso   1.000  C
  C1323    1.0000 0.20320  0.84700  0.85640  Biso   1.000  C
  H1673    1.0000 0.22340  0.85330  0.87260  Biso   1.000  H
  C1324    1.0000 0.20170  0.80950  0.84140  Biso   1.000  C
  C1325    1.0000 0.17260  0.80110  0.81730  Biso   1.000  C
  H1674    1.0000 0.17060  0.77670  0.80680  Biso   1.000  H
  C1326    1.0000 0.14590  0.82880  0.80830  Biso   1.000  C
  H1675    1.0000 0.12630  0.82360  0.79110  Biso   1.000  H
  C1327    1.0000 0.14880  0.86470  0.82540  Biso   1.000  C
  H1676    1.0000 0.13000  0.88290  0.82030  Biso   1.000  H
  C1328    1.0000 0.19820  0.02060  0.87930  Biso   1.000  C
  H1677    1.0000 0.19570  0.01870  0.85280  Biso   1.000  H
  C1329    1.0000 0.20950  0.05440  0.89550  Biso   1.000  C
  C1330    1.0000 0.21150  0.05770  0.93420  Biso   1.000  C
  H1678    1.0000 0.21880  0.08090  0.94520  Biso   1.000  H
  C1331    1.0000 0.20330  0.02880  0.95600  Biso   1.000  C
  H1679    1.0000 0.20500  0.03100  0.98250  Biso   1.000  H
  C1332    1.0000 0.19200  0.99430  0.93910  Biso   1.000  C
  H1680    1.0000 0.18540  0.97390  0.95490  Biso   1.000  H
  C1333    1.0000 0.23210  0.77980  0.85330  Biso   1.000  C
  H1681    1.0000 0.22990  0.77510  0.88060  Biso   1.000  H
  H1682    1.0000 0.25750  0.78990  0.84840  Biso   1.000  H
  C1334    1.0000 0.22890  0.09120  0.88080  Biso   1.000  C
  H1683    1.0000 0.24960  0.09920  0.89760  Biso   1.000  H
  H1684    1.0000 0.21070  0.11200  0.87820  Biso   1.000  H
  N353     1.0000 0.20090  0.04940  0.77970  Biso   1.000  N
  N354     1.0000 0.15618  0.95581  0.82660  Biso   1.000  N
  N355     1.0000 0.17760  0.87380  0.84859  Biso   1.000  N
  N356     1.0000 0.19050  0.98960  0.90170  Biso   1.000  N
  O265     1.0000 0.24310  0.07870  0.84430  Biso   1.000  O
  H1685    1.0000 0.25600  0.07100  0.82630  Biso   1.000  H
  O266     1.0000 0.22930  0.74860  0.83110  Biso   1.000  O
  H1686    1.0000 0.22100  0.73600  0.81200  Biso   1.000  H
  H1687    1.0000 0.25450  0.79330  0.86280  Biso   1.000  H
  H1688    1.0000 0.23990  0.76550  0.83070  Biso   1.000  H
  C1335    1.0000 0.20940  0.08770  0.86840  Biso   1.000  C
  H1689    1.0000 0.21270  0.11180  0.88190  Biso   1.000  H
  H1690    1.0000 0.18610  0.08860  0.85340  Biso   1.000  H
  O267     1.0000 0.21940  0.75340  0.88200  Biso   1.000  O
  H1691    1.0000 0.23060  0.75360  0.90380  Biso   1.000  H
  C1336    1.0000 0.67490  0.53230  0.26910  Biso   1.000  C
  C1337    1.0000 0.64390  0.47090  0.30040  Biso   1.000  C
  C1338    1.0000 0.70320  0.34700  0.35640  Biso   1.000  C
  H1692    1.0000 0.72340  0.35330  0.37260  Biso   1.000  H
  C1339    1.0000 0.70170  0.30950  0.34140  Biso   1.000  C
  C1340    1.0000 0.67260  0.30110  0.31730  Biso   1.000  C
  H1693    1.0000 0.67060  0.27670  0.30680  Biso   1.000  H
  C1341    1.0000 0.64590  0.32880  0.30830  Biso   1.000  C
  H1694    1.0000 0.62630  0.32360  0.29110  Biso   1.000  H
  C1342    1.0000 0.64880  0.36470  0.32540  Biso   1.000  C
  H1695    1.0000 0.63000  0.38290  0.32030  Biso   1.000  H
  C1343    1.0000 0.69820  0.52060  0.37930  Biso   1.000  C
  H1696    1.0000 0.69570  0.51870  0.35280  Biso   1.000  H
  C1344    1.0000 0.70950  0.55440  0.39550  Biso   1.000  C
  C1345    1.0000 0.71150  0.55770  0.43420  Biso   1.000  C
  H1697    1.0000 0.71880  0.58090  0.44520  Biso   1.000  H
  C1346    1.0000 0.70330  0.52880  0.45600  Biso   1.000  C
  H1698    1.0000 0.70500  0.53100  0.48250  Biso   1.000  H
  C1347    1.0000 0.69200  0.49430  0.43910  Biso   1.000  C
  H1699    1.0000 0.68540  0.47390  0.45490  Biso   1.000  H
  C1348    1.0000 0.73210  0.27980  0.35330  Biso   1.000  C
  H1700    1.0000 0.72990  0.27510  0.38060  Biso   1.000  H
  H1701    1.0000 0.75750  0.28990  0.34840  Biso   1.000  H
  C1349    1.0000 0.72890  0.59120  0.38080  Biso   1.000  C
  H1702    1.0000 0.74960  0.59920  0.39760  Biso   1.000  H
  H1703    1.0000 0.71070  0.61200  0.37820  Biso   1.000  H
  N357     1.0000 0.70090  0.54940  0.27970  Biso   1.000  N
  N358     1.0000 0.65618  0.45581  0.32660  Biso   1.000  N
  N359     1.0000 0.67760  0.37380  0.34859  Biso   1.000  N
  N360     1.0000 0.69050  0.48960  0.40170  Biso   1.000  N
  O268     1.0000 0.74310  0.57870  0.34430  Biso   1.000  O
  H1704    1.0000 0.75600  0.57100  0.32630  Biso   1.000  H
  O269     1.0000 0.72930  0.24860  0.33110  Biso   1.000  O
  H1705    1.0000 0.72100  0.23600  0.31200  Biso   1.000  H
  H1706    1.0000 0.75450  0.29330  0.36280  Biso   1.000  H
  H1707    1.0000 0.73990  0.26550  0.33070  Biso   1.000  H
  C1350    1.0000 0.70940  0.58770  0.36840  Biso   1.000  C
  H1708    1.0000 0.71270  0.61180  0.38190  Biso   1.000  H
  H1709    1.0000 0.68610  0.58860  0.35340  Biso   1.000  H
  O270     1.0000 0.71940  0.25340  0.38200  Biso   1.000  O
  H1710    1.0000 0.73060  0.25360  0.40380  Biso   1.000  H
  C1351    1.0000 0.67490  0.46770  0.23090  Biso   1.000  C
  C1352    1.0000 0.64390  0.52910  0.19960  Biso   1.000  C
  C1353    1.0000 0.70320  0.65300  0.14360  Biso   1.000  C
  H1711    1.0000 0.72340  0.64670  0.12740  Biso   1.000  H
  C1354    1.0000 0.70170  0.69050  0.15860  Biso   1.000  C
  C1355    1.0000 0.67260  0.69890  0.18270  Biso   1.000  C
  H1712    1.0000 0.67060  0.72330  0.19320  Biso   1.000  H
  C1356    1.0000 0.64590  0.67120  0.19170  Biso   1.000  C
  H1713    1.0000 0.62630  0.67640  0.20890  Biso   1.000  H
  C1357    1.0000 0.64880  0.63530  0.17460  Biso   1.000  C
  H1714    1.0000 0.63000  0.61710  0.17970  Biso   1.000  H
  C1358    1.0000 0.69820  0.47940  0.12070  Biso   1.000  C
  H1715    1.0000 0.69570  0.48130  0.14720  Biso   1.000  H
  C1359    1.0000 0.70950  0.44560  0.10450  Biso   1.000  C
  C1360    1.0000 0.71150  0.44230  0.06580  Biso   1.000  C
  H1716    1.0000 0.71880  0.41910  0.05480  Biso   1.000  H
  C1361    1.0000 0.70330  0.47120  0.04400  Biso   1.000  C
  H1717    1.0000 0.70500  0.46900  0.01750  Biso   1.000  H
  C1362    1.0000 0.69200  0.50570  0.06090  Biso   1.000  C
  H1718    1.0000 0.68540  0.52610  0.04510  Biso   1.000  H
  C1363    1.0000 0.73210  0.72020  0.14670  Biso   1.000  C
  H1719    1.0000 0.72990  0.72490  0.11940  Biso   1.000  H
  H1720    1.0000 0.75750  0.71010  0.15160  Biso   1.000  H
  C1364    1.0000 0.72890  0.40880  0.11920  Biso   1.000  C
  H1721    1.0000 0.74960  0.40080  0.10240  Biso   1.000  H
  H1722    1.0000 0.71070  0.38800  0.12180  Biso   1.000  H
  N361     1.0000 0.70090  0.45060  0.22030  Biso   1.000  N
  N362     1.0000 0.65618  0.54419  0.17340  Biso   1.000  N
  N363     1.0000 0.67760  0.62620  0.15141  Biso   1.000  N
  N364     1.0000 0.69050  0.51040  0.09830  Biso   1.000  N
  O271     1.0000 0.74310  0.42130  0.15570  Biso   1.000  O
  H1723    1.0000 0.75600  0.42900  0.17370  Biso   1.000  H
  O272     1.0000 0.72930  0.75140  0.16890  Biso   1.000  O
  H1724    1.0000 0.72100  0.76400  0.18800  Biso   1.000  H
  H1725    1.0000 0.75450  0.70670  0.13720  Biso   1.000  H
  H1726    1.0000 0.73990  0.73450  0.16930  Biso   1.000  H
  C1365    1.0000 0.70940  0.41230  0.13160  Biso   1.000  C
  H1727    1.0000 0.71270  0.38820  0.11810  Biso   1.000  H
  H1728    1.0000 0.68610  0.41140  0.14660  Biso   1.000  H
  O273     1.0000 0.71940  0.74660  0.11800  Biso   1.000  O
  H1729    1.0000 0.73060  0.74640  0.09620  Biso   1.000  H
  C1366    1.0000 0.17490  0.96770  0.73090  Biso   1.000  C
  C1367    1.0000 0.14390  0.02910  0.69960  Biso   1.000  C
  C1368    1.0000 0.20320  0.15300  0.64360  Biso   1.000  C
  H1730    1.0000 0.22340  0.14670  0.62740  Biso   1.000  H
  C1369    1.0000 0.20170  0.19050  0.65860  Biso   1.000  C
  C1370    1.0000 0.17260  0.19890  0.68270  Biso   1.000  C
  H1731    1.0000 0.17060  0.22330  0.69320  Biso   1.000  H
  C1371    1.0000 0.14590  0.17120  0.69170  Biso   1.000  C
  H1732    1.0000 0.12630  0.17640  0.70890  Biso   1.000  H
  C1372    1.0000 0.14880  0.13530  0.67460  Biso   1.000  C
  H1733    1.0000 0.13000  0.11710  0.67970  Biso   1.000  H
  C1373    1.0000 0.19820  0.97940  0.62070  Biso   1.000  C
  H1734    1.0000 0.19570  0.98130  0.64720  Biso   1.000  H
  C1374    1.0000 0.20950  0.94560  0.60450  Biso   1.000  C
  C1375    1.0000 0.21150  0.94230  0.56580  Biso   1.000  C
  H1735    1.0000 0.21880  0.91910  0.55480  Biso   1.000  H
  C1376    1.0000 0.20330  0.97120  0.54400  Biso   1.000  C
  H1736    1.0000 0.20500  0.96900  0.51750  Biso   1.000  H
  C1377    1.0000 0.19200  0.00570  0.56090  Biso   1.000  C
  H1737    1.0000 0.18540  0.02610  0.54510  Biso   1.000  H
  C1378    1.0000 0.23210  0.22020  0.64670  Biso   1.000  C
  H1738    1.0000 0.22990  0.22490  0.61940  Biso   1.000  H
  H1739    1.0000 0.25750  0.21010  0.65160  Biso   1.000  H
  C1379    1.0000 0.22890  0.90880  0.61920  Biso   1.000  C
  H1740    1.0000 0.24960  0.90080  0.60240  Biso   1.000  H
  H1741    1.0000 0.21070  0.88800  0.62180  Biso   1.000  H
  N365     1.0000 0.20090  0.95060  0.72030  Biso   1.000  N
  N366     1.0000 0.15618  0.04419  0.67340  Biso   1.000  N
  N367     1.0000 0.17760  0.12620  0.65141  Biso   1.000  N
  N368     1.0000 0.19050  0.01040  0.59830  Biso   1.000  N
  O274     1.0000 0.24310  0.92130  0.65570  Biso   1.000  O
  H1742    1.0000 0.25600  0.92900  0.67370  Biso   1.000  H
  O275     1.0000 0.22930  0.25140  0.66890  Biso   1.000  O
  H1743    1.0000 0.22100  0.26400  0.68800  Biso   1.000  H
  H1744    1.0000 0.25450  0.20670  0.63720  Biso   1.000  H
  H1745    1.0000 0.23990  0.23450  0.66930  Biso   1.000  H
  C1380    1.0000 0.20940  0.91230  0.63160  Biso   1.000  C
  H1746    1.0000 0.21270  0.88820  0.61810  Biso   1.000  H
  H1747    1.0000 0.18610  0.91140  0.64660  Biso   1.000  H
  O276     1.0000 0.21940  0.24660  0.61800  Biso   1.000  O
  H1748    1.0000 0.23060  0.24640  0.59620  Biso   1.000  H
  C1381    1.0000 0.82510  0.53230  0.73090  Biso   1.000  C
  C1382    1.0000 0.85610  0.47090  0.69960  Biso   1.000  C
  C1383    1.0000 0.79680  0.34700  0.64360  Biso   1.000  C
  H1749    1.0000 0.77660  0.35330  0.62740  Biso   1.000  H
  C1384    1.0000 0.79830  0.30950  0.65860  Biso   1.000  C
  C1385    1.0000 0.82740  0.30110  0.68270  Biso   1.000  C
  H1750    1.0000 0.82940  0.27670  0.69320  Biso   1.000  H
  C1386    1.0000 0.85410  0.32880  0.69170  Biso   1.000  C
  H1751    1.0000 0.87370  0.32360  0.70890  Biso   1.000  H
  C1387    1.0000 0.85120  0.36470  0.67460  Biso   1.000  C
  H1752    1.0000 0.87000  0.38290  0.67970  Biso   1.000  H
  C1388    1.0000 0.80180  0.52060  0.62070  Biso   1.000  C
  H1753    1.0000 0.80430  0.51870  0.64720  Biso   1.000  H
  C1389    1.0000 0.79050  0.55440  0.60450  Biso   1.000  C
  C1390    1.0000 0.78850  0.55770  0.56580  Biso   1.000  C
  H1754    1.0000 0.78120  0.58090  0.55480  Biso   1.000  H
  C1391    1.0000 0.79670  0.52880  0.54400  Biso   1.000  C
  H1755    1.0000 0.79500  0.53100  0.51750  Biso   1.000  H
  C1392    1.0000 0.80800  0.49430  0.56090  Biso   1.000  C
  H1756    1.0000 0.81460  0.47390  0.54510  Biso   1.000  H
  C1393    1.0000 0.76790  0.27980  0.64670  Biso   1.000  C
  H1757    1.0000 0.77010  0.27510  0.61940  Biso   1.000  H
  H1758    1.0000 0.74250  0.28990  0.65160  Biso   1.000  H
  C1394    1.0000 0.77110  0.59120  0.61920  Biso   1.000  C
  H1759    1.0000 0.75040  0.59920  0.60240  Biso   1.000  H
  H1760    1.0000 0.78930  0.61200  0.62180  Biso   1.000  H
  N369     1.0000 0.79910  0.54940  0.72030  Biso   1.000  N
  N370     1.0000 0.84382  0.45581  0.67340  Biso   1.000  N
  N371     1.0000 0.82240  0.37380  0.65141  Biso   1.000  N
  N372     1.0000 0.80950  0.48960  0.59830  Biso   1.000  N
  O277     1.0000 0.75690  0.57870  0.65570  Biso   1.000  O
  H1761    1.0000 0.74400  0.57100  0.67370  Biso   1.000  H
  O278     1.0000 0.77070  0.24860  0.66890  Biso   1.000  O
  H1762    1.0000 0.77900  0.23600  0.68800  Biso   1.000  H
  H1763    1.0000 0.74550  0.29330  0.63720  Biso   1.000  H
  H1764    1.0000 0.76010  0.26550  0.66930  Biso   1.000  H
  C1395    1.0000 0.79060  0.58770  0.63160  Biso   1.000  C
  H1765    1.0000 0.78730  0.61180  0.61810  Biso   1.000  H
  H1766    1.0000 0.81390  0.58860  0.64660  Biso   1.000  H
  O279     1.0000 0.78060  0.25340  0.61800  Biso   1.000  O
  H1767    1.0000 0.76940  0.25360  0.59620  Biso   1.000  H
  C1396    1.0000 0.32510  0.03230  0.23090  Biso   1.000  C
  C1397    1.0000 0.35610  0.97090  0.19960  Biso   1.000  C
  C1398    1.0000 0.29680  0.84700  0.14360  Biso   1.000  C
  H1768    1.0000 0.27660  0.85330  0.12740  Biso   1.000  H
  C1399    1.0000 0.29830  0.80950  0.15860  Biso   1.000  C
  C1400    1.0000 0.32740  0.80110  0.18270  Biso   1.000  C
  H1769    1.0000 0.32940  0.77670  0.19320  Biso   1.000  H
  C1401    1.0000 0.35410  0.82880  0.19170  Biso   1.000  C
  H1770    1.0000 0.37370  0.82360  0.20890  Biso   1.000  H
  C1402    1.0000 0.35120  0.86470  0.17460  Biso   1.000  C
  H1771    1.0000 0.37000  0.88290  0.17970  Biso   1.000  H
  C1403    1.0000 0.30180  0.02060  0.12070  Biso   1.000  C
  H1772    1.0000 0.30430  0.01870  0.14720  Biso   1.000  H
  C1404    1.0000 0.29050  0.05440  0.10450  Biso   1.000  C
  C1405    1.0000 0.28850  0.05770  0.06580  Biso   1.000  C
  H1773    1.0000 0.28120  0.08090  0.05480  Biso   1.000  H
  C1406    1.0000 0.29670  0.02880  0.04400  Biso   1.000  C
  H1774    1.0000 0.29500  0.03100  0.01750  Biso   1.000  H
  C1407    1.0000 0.30800  0.99430  0.06090  Biso   1.000  C
  H1775    1.0000 0.31460  0.97390  0.04510  Biso   1.000  H
  C1408    1.0000 0.26790  0.77980  0.14670  Biso   1.000  C
  H1776    1.0000 0.27010  0.77510  0.11940  Biso   1.000  H
  H1777    1.0000 0.24250  0.78990  0.15160  Biso   1.000  H
  C1409    1.0000 0.27110  0.09120  0.11920  Biso   1.000  C
  H1778    1.0000 0.25040  0.09920  0.10240  Biso   1.000  H
  H1779    1.0000 0.28930  0.11200  0.12180  Biso   1.000  H
  N373     1.0000 0.29910  0.04940  0.22030  Biso   1.000  N
  N374     1.0000 0.34382  0.95581  0.17340  Biso   1.000  N
  N375     1.0000 0.32240  0.87380  0.15141  Biso   1.000  N
  N376     1.0000 0.30950  0.98960  0.09830  Biso   1.000  N
  O280     1.0000 0.25690  0.07870  0.15570  Biso   1.000  O
  H1780    1.0000 0.24400  0.07100  0.17370  Biso   1.000  H
  O281     1.0000 0.27070  0.74860  0.16890  Biso   1.000  O
  H1781    1.0000 0.27900  0.73600  0.18800  Biso   1.000  H
  H1782    1.0000 0.24550  0.79330  0.13720  Biso   1.000  H
  H1783    1.0000 0.26010  0.76550  0.16930  Biso   1.000  H
  C1410    1.0000 0.29060  0.08770  0.13160  Biso   1.000  C
  H1784    1.0000 0.28730  0.11180  0.11810  Biso   1.000  H
  H1785    1.0000 0.31390  0.08860  0.14660  Biso   1.000  H
  O282     1.0000 0.28060  0.75340  0.11800  Biso   1.000  O
  H1786    1.0000 0.26940  0.75360  0.09620  Biso   1.000  H
  C1411    1.0000 0.32510  0.96770  0.26910  Biso   1.000  C
  C1412    1.0000 0.35610  0.02910  0.30040  Biso   1.000  C
  C1413    1.0000 0.29680  0.15300  0.35640  Biso   1.000  C
  H1787    1.0000 0.27660  0.14670  0.37260  Biso   1.000  H
  C1414    1.0000 0.29830  0.19050  0.34140  Biso   1.000  C
  C1415    1.0000 0.32740  0.19890  0.31730  Biso   1.000  C
  H1788    1.0000 0.32940  0.22330  0.30680  Biso   1.000  H
  C1416    1.0000 0.35410  0.17120  0.30830  Biso   1.000  C
  H1789    1.0000 0.37370  0.17640  0.29110  Biso   1.000  H
  C1417    1.0000 0.35120  0.13530  0.32540  Biso   1.000  C
  H1790    1.0000 0.37000  0.11710  0.32030  Biso   1.000  H
  C1418    1.0000 0.30180  0.97940  0.37930  Biso   1.000  C
  H1791    1.0000 0.30430  0.98130  0.35280  Biso   1.000  H
  C1419    1.0000 0.29050  0.94560  0.39550  Biso   1.000  C
  C1420    1.0000 0.28850  0.94230  0.43420  Biso   1.000  C
  H1792    1.0000 0.28120  0.91910  0.44520  Biso   1.000  H
  C1421    1.0000 0.29670  0.97120  0.45600  Biso   1.000  C
  H1793    1.0000 0.29500  0.96900  0.48250  Biso   1.000  H
  C1422    1.0000 0.30800  0.00570  0.43910  Biso   1.000  C
  H1794    1.0000 0.31460  0.02610  0.45490  Biso   1.000  H
  C1423    1.0000 0.26790  0.22020  0.35330  Biso   1.000  C
  H1795    1.0000 0.27010  0.22490  0.38060  Biso   1.000  H
  H1796    1.0000 0.24250  0.21010  0.34840  Biso   1.000  H
  C1424    1.0000 0.27110  0.90880  0.38080  Biso   1.000  C
  H1797    1.0000 0.25040  0.90080  0.39760  Biso   1.000  H
  H1798    1.0000 0.28930  0.88800  0.37820  Biso   1.000  H
  N377     1.0000 0.29910  0.95060  0.27970  Biso   1.000  N
  N378     1.0000 0.34382  0.04419  0.32660  Biso   1.000  N
  N379     1.0000 0.32240  0.12620  0.34859  Biso   1.000  N
  N380     1.0000 0.30950  0.01040  0.40170  Biso   1.000  N
  O283     1.0000 0.25690  0.92130  0.34430  Biso   1.000  O
  H1799    1.0000 0.24400  0.92900  0.32630  Biso   1.000  H
  O284     1.0000 0.27070  0.25140  0.33110  Biso   1.000  O
  H1800    1.0000 0.27900  0.26400  0.31200  Biso   1.000  H
  H1801    1.0000 0.24550  0.20670  0.36280  Biso   1.000  H
  H1802    1.0000 0.26010  0.23450  0.33070  Biso   1.000  H
  C1425    1.0000 0.29060  0.91230  0.36840  Biso   1.000  C
  H1803    1.0000 0.28730  0.88820  0.38190  Biso   1.000  H
  H1804    1.0000 0.31390  0.91140  0.35340  Biso   1.000  H
  O285     1.0000 0.28060  0.24660  0.38200  Biso   1.000  O
  H1805    1.0000 0.26940  0.24640  0.40380  Biso   1.000  H
  C1426    1.0000 0.82510  0.46770  0.76910  Biso   1.000  C
  C1427    1.0000 0.85610  0.52910  0.80040  Biso   1.000  C
  C1428    1.0000 0.79680  0.65300  0.85640  Biso   1.000  C
  H1806    1.0000 0.77660  0.64670  0.87260  Biso   1.000  H
  C1429    1.0000 0.79830  0.69050  0.84140  Biso   1.000  C
  C1430    1.0000 0.82740  0.69890  0.81730  Biso   1.000  C
  H1807    1.0000 0.82940  0.72330  0.80680  Biso   1.000  H
  C1431    1.0000 0.85410  0.67120  0.80830  Biso   1.000  C
  H1808    1.0000 0.87370  0.67640  0.79110  Biso   1.000  H
  C1432    1.0000 0.85120  0.63530  0.82540  Biso   1.000  C
  H1809    1.0000 0.87000  0.61710  0.82030  Biso   1.000  H
  C1433    1.0000 0.80180  0.47940  0.87930  Biso   1.000  C
  H1810    1.0000 0.80430  0.48130  0.85280  Biso   1.000  H
  C1434    1.0000 0.79050  0.44560  0.89550  Biso   1.000  C
  C1435    1.0000 0.78850  0.44230  0.93420  Biso   1.000  C
  H1811    1.0000 0.78120  0.41910  0.94520  Biso   1.000  H
  C1436    1.0000 0.79670  0.47120  0.95600  Biso   1.000  C
  H1812    1.0000 0.79500  0.46900  0.98250  Biso   1.000  H
  C1437    1.0000 0.80800  0.50570  0.93910  Biso   1.000  C
  H1813    1.0000 0.81460  0.52610  0.95490  Biso   1.000  H
  C1438    1.0000 0.76790  0.72020  0.85330  Biso   1.000  C
  H1814    1.0000 0.77010  0.72490  0.88060  Biso   1.000  H
  H1815    1.0000 0.74250  0.71010  0.84840  Biso   1.000  H
  C1439    1.0000 0.77110  0.40880  0.88080  Biso   1.000  C
  H1816    1.0000 0.75040  0.40080  0.89760  Biso   1.000  H
  H1817    1.0000 0.78930  0.38800  0.87820  Biso   1.000  H
  N381     1.0000 0.79910  0.45060  0.77970  Biso   1.000  N
  N382     1.0000 0.84382  0.54419  0.82660  Biso   1.000  N
  N383     1.0000 0.82240  0.62620  0.84859  Biso   1.000  N
  N384     1.0000 0.80950  0.51040  0.90170  Biso   1.000  N
  O286     1.0000 0.75690  0.42130  0.84430  Biso   1.000  O
  H1818    1.0000 0.74400  0.42900  0.82630  Biso   1.000  H
  O287     1.0000 0.77070  0.75140  0.83110  Biso   1.000  O
  H1819    1.0000 0.77900  0.76400  0.81200  Biso   1.000  H
  H1820    1.0000 0.74550  0.70670  0.86280  Biso   1.000  H
  H1821    1.0000 0.76010  0.73450  0.83070  Biso   1.000  H
  C1440    1.0000 0.79060  0.41230  0.86840  Biso   1.000  C
  H1822    1.0000 0.78730  0.38820  0.88190  Biso   1.000  H
  H1823    1.0000 0.81390  0.41140  0.85340  Biso   1.000  H
  O288     1.0000 0.78060  0.74660  0.88200  Biso   1.000  O
  H1824    1.0000 0.76940  0.74640  0.90380  Biso   1.000  H
  Fe1      1.0000 0.12500  0.81796  0.06796  Biso   1.000  Fe
  Fe2      1.0000 0.62500  0.31796  0.56796  Biso   1.000  Fe
  Fe3      1.0000 0.37500  0.18204  0.56796  Biso   1.000  Fe
  Fe4      1.0000 0.87500  0.68204  0.06796  Biso   1.000  Fe
  Fe5      1.0000 0.87500  0.31796  0.43204  Biso   1.000  Fe
  Fe6      1.0000 0.37500  0.81796  0.93204  Biso   1.000  Fe
  Fe7      1.0000 0.62500  0.68204  0.93204  Biso   1.000  Fe
  Fe8      1.0000 0.12500  0.18204  0.43204  Biso   1.000  Fe
  Fe9      1.0000 0.06796  0.12500  0.81796  Biso   1.000  Fe
  Fe10     1.0000 0.56796  0.62500  0.31796  Biso   1.000  Fe
  Fe11     1.0000 0.56796  0.37500  0.18204  Biso   1.000  Fe
  Fe12     1.0000 0.06796  0.87500  0.68204  Biso   1.000  Fe
  Fe13     1.0000 0.43204  0.87500  0.31796  Biso   1.000  Fe
  Fe14     1.0000 0.93204  0.37500  0.81796  Biso   1.000  Fe
  Fe15     1.0000 0.93204  0.62500  0.68204  Biso   1.000  Fe
  Fe16     1.0000 0.43204  0.12500  0.18204  Biso   1.000  Fe
  Fe17     1.0000 0.81796  0.06796  0.12500  Biso   1.000  Fe
  Fe18     1.0000 0.31796  0.56796  0.62500  Biso   1.000  Fe
  Fe19     1.0000 0.18204  0.56796  0.37500  Biso   1.000  Fe
  Fe20     1.0000 0.68204  0.06796  0.87500  Biso   1.000  Fe
  Fe21     1.0000 0.31796  0.43204  0.87500  Biso   1.000  Fe
  Fe22     1.0000 0.81796  0.93204  0.37500  Biso   1.000  Fe
  Fe23     1.0000 0.68204  0.93204  0.62500  Biso   1.000  Fe
  Fe24     1.0000 0.18204  0.43204  0.12500  Biso   1.000  Fe
  Fe25     1.0000 0.87500  0.18204  0.93204  Biso   1.000  Fe
  Fe26     1.0000 0.37500  0.68204  0.43204  Biso   1.000  Fe
  Fe27     1.0000 0.62500  0.81796  0.43204  Biso   1.000  Fe
  Fe28     1.0000 0.12500  0.31796  0.93204  Biso   1.000  Fe
  Fe29     1.0000 0.12500  0.68204  0.56796  Biso   1.000  Fe
  Fe30     1.0000 0.62500  0.18204  0.06796  Biso   1.000  Fe
  Fe31     1.0000 0.37500  0.31796  0.06796  Biso   1.000  Fe
  Fe32     1.0000 0.87500  0.81796  0.56796  Biso   1.000  Fe
  Fe33     1.0000 0.93204  0.87500  0.18204  Biso   1.000  Fe
  Fe34     1.0000 0.43204  0.37500  0.68204  Biso   1.000  Fe
  Fe35     1.0000 0.43204  0.62500  0.81796  Biso   1.000  Fe
  Fe36     1.0000 0.93204  0.12500  0.31796  Biso   1.000  Fe
  Fe37     1.0000 0.56796  0.12500  0.68204  Biso   1.000  Fe
  Fe38     1.0000 0.06796  0.62500  0.18204  Biso   1.000  Fe
  Fe39     1.0000 0.06796  0.37500  0.31796  Biso   1.000  Fe
  Fe40     1.0000 0.56796  0.87500  0.81796  Biso   1.000  Fe
  Fe41     1.0000 0.18204  0.93204  0.87500  Biso   1.000  Fe
  Fe42     1.0000 0.68204  0.43204  0.37500  Biso   1.000  Fe
  Fe43     1.0000 0.81796  0.43204  0.62500  Biso   1.000  Fe
  Fe44     1.0000 0.31796  0.93204  0.12500  Biso   1.000  Fe
  Fe45     1.0000 0.68204  0.56796  0.12500  Biso   1.000  Fe
  Fe46     1.0000 0.18204  0.06796  0.62500  Biso   1.000  Fe
  Fe47     1.0000 0.31796  0.06796  0.37500  Biso   1.000  Fe
  Fe48     1.0000 0.81796  0.56796  0.87500  Biso   1.000  Fe
  W1       1.0000 0.00000  0.75000  0.12500  Biso   1.000  W
  W2       1.0000 0.50000  0.25000  0.62500  Biso   1.000  W
  W3       1.0000 0.00000  0.25000  0.37500  Biso   1.000  W
  W4       1.0000 0.50000  0.75000  0.87500  Biso   1.000  W
  W5       1.0000 0.12500  0.00000  0.75000  Biso   1.000  W
  W6       1.0000 0.62500  0.50000  0.25000  Biso   1.000  W
  W7       1.0000 0.37500  0.00000  0.25000  Biso   1.000  W
  W8       1.0000 0.87500  0.50000  0.75000  Biso   1.000  W
  W9       1.0000 0.75000  0.12500  0.00000  Biso   1.000  W
  W10      1.0000 0.25000  0.62500  0.50000  Biso   1.000  W
  W11      1.0000 0.25000  0.37500  0.00000  Biso   1.000  W
  W12      1.0000 0.75000  0.87500  0.50000  Biso   1.000  W
  W13      1.0000 0.50000  0.25000  0.12500  Biso   1.000  W
  W14      1.0000 0.00000  0.75000  0.62500  Biso   1.000  W
  W15      1.0000 0.00000  0.25000  0.87500  Biso   1.000  W
  W16      1.0000 0.50000  0.75000  0.37500  Biso   1.000  W
  W17      1.0000 0.75000  0.37500  0.50000  Biso   1.000  W
  W18      1.0000 0.25000  0.87500  0.00000  Biso   1.000  W
  W19      1.0000 0.75000  0.62500  0.00000  Biso   1.000  W
  W20      1.0000 0.25000  0.12500  0.50000  Biso   1.000  W
  W21      1.0000 0.87500  0.00000  0.25000  Biso   1.000  W
  W22      1.0000 0.37500  0.50000  0.75000  Biso   1.000  W
  W23      1.0000 0.12500  0.50000  0.25000  Biso   1.000  W
  W24      1.0000 0.62500  0.00000  0.75000  Biso   1.000  W
