data_image0
_cell_length_a       27.5447
_cell_length_b       32.731
_cell_length_c       44.208
_cell_angle_alpha    90
_cell_angle_beta     90
_cell_angle_gamma    90

_symmetry_space_group_name_H-M    "P 1"
_symmetry_int_tables_number       1

loop_
  _symmetry_equiv_pos_as_xyz
  'x, y, z'

loop_
  _atom_site_label
  _atom_site_occupancy
  _atom_site_fract_x
  _atom_site_fract_y
  _atom_site_fract_z
  _atom_site_thermal_displace_type
  _atom_site_B_iso_or_equiv
  _atom_site_type_symbol
  Zn1      1.0000 0.03068  0.19288  0.10933  Biso   1.000  Zn
  N1       1.0000 0.02104  0.19666  0.06311  Biso   1.000  N
  N2       1.0000 0.97556  0.15070  0.11082  Biso   1.000  N
  N3       1.0000 0.02586  0.19898  0.15586  Biso   1.000  N
  N4       1.0000 0.07063  0.24599  0.10826  Biso   1.000  N
  C1       1.0000 0.04727  0.22098  0.04382  Biso   1.000  C
  C2       1.0000 0.03587  0.20985  0.01309  Biso   1.000  C
  H1       1.0000 0.04860  0.22230  0.99540  Biso   1.000  H
  C3       1.0000 0.00465  0.17930  0.01386  Biso   1.000  C
  H2       1.0000 0.99120  0.16540  0.99690  Biso   1.000  H
  C4       1.0000 0.99490  0.17099  0.04531  Biso   1.000  C
  C5       1.0000 0.96369  0.13997  0.05610  Biso   1.000  C
  C6       1.0000 0.95429  0.13070  0.08660  Biso   1.000  C
  C7       1.0000 0.92274  0.09932  0.09696  Biso   1.000  C
  H3       1.0000 0.90370  0.08140  0.08490  Biso   1.000  H
  C8       1.0000 0.92530  0.10020  0.12775  Biso   1.000  C
  H4       1.0000 0.90820  0.08280  0.14130  Biso   1.000  H
  C9       1.0000 0.95785  0.13154  0.13589  Biso   1.000  C
  C10      1.0000 0.97090  0.14168  0.16571  Biso   1.000  C
  C11      1.0000 0.00179  0.17384  0.17483  Biso   1.000  C
  C12      1.0000 0.01261  0.18451  0.20548  Biso   1.000  C
  H5       1.0000 0.00030  0.17150  0.22310  Biso   1.000  H
  C13      1.0000 0.04331  0.21626  0.20483  Biso   1.000  C
  H6       1.0000 0.05630  0.23010  0.22190  Biso   1.000  H
  C14      1.0000 0.05294  0.22550  0.17347  Biso   1.000  C
  C15      1.0000 0.08372  0.25585  0.16266  Biso   1.000  C
  C16      1.0000 0.09288  0.26556  0.13199  Biso   1.000  C
  C17      1.0000 0.12543  0.29550  0.12134  Biso   1.000  C
  H7       1.0000 0.14470  0.31320  0.13350  Biso   1.000  H
  C18      1.0000 0.12444  0.29465  0.09097  Biso   1.000  C
  H8       1.0000 0.14270  0.31150  0.07770  Biso   1.000  H
  C19      1.0000 0.09097  0.26394  0.08255  Biso   1.000  C
  C20      1.0000 0.07935  0.25181  0.05281  Biso   1.000  C
  C21      1.0000 0.94054  0.11496  0.03385  Biso   1.000  C
  C22      1.0000 0.92214  0.09518  0.01470  Biso   1.000  C
  C23      1.0000 0.89962  0.07253  0.99060  Biso   1.000  C
  C24      1.0000 0.91038  0.08157  0.96033  Biso   1.000  C
  H9       1.0000 0.93390  0.10180  0.95550  Biso   1.000  H
  C25      1.0000 0.88659  0.06090  0.93764  Biso   1.000  C
  H10      1.0000 0.89290  0.06800  0.91720  Biso   1.000  H
  C26      1.0000 0.85426  0.03065  0.94374  Biso   1.000  C
  C27      1.0000 0.84442  0.02047  0.97367  Biso   1.000  C
  H11      1.0000 0.82220  0.99900  0.97790  Biso   1.000  H
  C28      1.0000 0.86587  0.04060  0.99693  Biso   1.000  C
  H12      1.0000 0.85850  0.03350  0.01730  Biso   1.000  H
  C29      1.0000 0.82814  0.00820  0.91877  Biso   1.000  C
  O1       1.0000 0.83458  0.02217  0.89229  Biso   1.000  O
  O2       1.0000 0.80177  0.97880  0.92563  Biso   1.000  O
  C30      1.0000 0.95098  0.11689  0.18935  Biso   1.000  C
  C31      1.0000 0.93564  0.09604  0.20901  Biso   1.000  C
  C32      1.0000 0.91479  0.07179  0.23261  Biso   1.000  C
  C33      1.0000 0.87980  0.04435  0.22682  Biso   1.000  C
  H13      1.0000 0.87040  0.03950  0.20650  Biso   1.000  H
  C34      1.0000 0.85730  0.02292  0.24991  Biso   1.000  C
  H14      1.0000 0.83200  0.00410  0.24550  Biso   1.000  H
  C35      1.0000 0.87220  0.02930  0.27978  Biso   1.000  C
  C36      1.0000 0.90950  0.05583  0.28534  Biso   1.000  C
  H15      1.0000 0.92050  0.05940  0.30550  Biso   1.000  H
  C37      1.0000 0.93132  0.07727  0.26257  Biso   1.000  C
  H16      1.0000 0.95720  0.09560  0.26680  Biso   1.000  H
  C38      1.0000 0.84597  0.00908  0.30565  Biso   1.000  C
  O3       1.0000 0.80585  0.99057  0.30083  Biso   1.000  O
  O4       1.0000 0.86343  0.01194  0.33142  Biso   1.000  O
  C39      1.0000 0.10994  0.28040  0.18490  Biso   1.000  C
  C40      1.0000 0.13205  0.30070  0.20245  Biso   1.000  C
  C41      1.0000 0.15714  0.32681  0.22249  Biso   1.000  C
  C42      1.0000 0.14620  0.32883  0.25219  Biso   1.000  C
  H17      1.0000 0.12150  0.31160  0.26010  Biso   1.000  H
  C43      1.0000 0.17030  0.35565  0.27156  Biso   1.000  C
  H18      1.0000 0.16210  0.35630  0.29240  Biso   1.000  H
  C44      1.0000 0.20520  0.38060  0.26086  Biso   1.000  C
  C45      1.0000 0.21530  0.37966  0.22963  Biso   1.000  C
  H19      1.0000 0.23830  0.39820  0.22130  Biso   1.000  H
  C46      1.0000 0.19270  0.35270  0.21142  Biso   1.000  C
  H20      1.0000 0.20130  0.35140  0.19060  Biso   1.000  H
  C47      1.0000 0.23020  0.41041  0.28157  Biso   1.000  C
  O5       1.0000 0.21954  0.41101  0.30845  Biso   1.000  O
  O6       1.0000 0.25816  0.43822  0.26712  Biso   1.000  O
  H21      1.0000 0.27620  0.45000  0.27970  Biso   1.000  H
  C48      1.0000 0.10347  0.27327  0.02913  Biso   1.000  C
  C49      1.0000 0.12319  0.29095  0.00873  Biso   1.000  C
  C50      1.0000 0.14509  0.31267  0.98443  Biso   1.000  C
  C51      1.0000 0.17732  0.34287  0.99013  Biso   1.000  C
  H22      1.0000 0.18590  0.34910  0.01040  Biso   1.000  H
  C52      1.0000 0.19781  0.36470  0.96678  Biso   1.000  C
  H23      1.0000 0.22000  0.38620  0.97100  Biso   1.000  H
  C53      1.0000 0.18607  0.35535  0.93747  Biso   1.000  C
  C54      1.0000 0.15420  0.32482  0.93144  Biso   1.000  C
  H24      1.0000 0.14620  0.31850  0.91110  Biso   1.000  H
  C55      1.0000 0.13352  0.30317  0.95451  Biso   1.000  C
  H25      1.0000 0.11130  0.28170  0.95020  Biso   1.000  H
  C56      1.0000 0.20836  0.38018  0.91217  Biso   1.000  C
  O7       1.0000 0.23386  0.41015  0.92075  Biso   1.000  O
  O8       1.0000 0.20072  0.37012  0.88545  Biso   1.000  O
  N5       1.0000 0.09138  0.15003  0.10887  Biso   1.000  N
  N6       1.0000 0.16353  0.09977  0.10708  Biso   1.000  N
  Zn2      1.0000 0.77891  0.93928  0.89590  Biso   1.000  Zn
  Zn3      1.0000 0.80411  0.01821  0.85104  Biso   1.000  Zn
  O9       1.0000 0.76523  0.96140  0.85657  Biso   1.000  O
  C57      1.0000 0.11160  0.14688  0.07781  Biso   1.000  C
  C58      1.0000 0.07970  0.11160  0.12660  Biso   1.000  C
  C59      1.0000 0.13030  0.16336  0.12885  Biso   1.000  C
  C60      1.0000 0.14840  0.10910  0.07646  Biso   1.000  C
  C61      1.0000 0.17990  0.13810  0.12419  Biso   1.000  C
  C62      1.0000 0.12260  0.08280  0.12560  Biso   1.000  C
  C63      1.0000 0.11690  0.07590  0.10320  Biso   1.000  C
  C64      1.0000 0.16990  0.12900  0.08000  Biso   1.000  C
  C65      1.0000 0.16230  0.11980  0.13570  Biso   1.000  C
  C66      1.0000 0.07270  0.10570  0.11100  Biso   1.000  C
  Zn4      1.0000 0.53068  0.69288  0.10933  Biso   1.000  Zn
  N7       1.0000 0.52104  0.69666  0.06311  Biso   1.000  N
  N8       1.0000 0.47556  0.65070  0.11082  Biso   1.000  N
  N9       1.0000 0.52586  0.69898  0.15586  Biso   1.000  N
  N10      1.0000 0.57063  0.74599  0.10826  Biso   1.000  N
  C67      1.0000 0.54727  0.72098  0.04382  Biso   1.000  C
  C68      1.0000 0.53587  0.70985  0.01309  Biso   1.000  C
  H26      1.0000 0.54860  0.72230  0.99540  Biso   1.000  H
  C69      1.0000 0.50465  0.67930  0.01386  Biso   1.000  C
  H27      1.0000 0.49120  0.66540  0.99690  Biso   1.000  H
  C70      1.0000 0.49490  0.67099  0.04531  Biso   1.000  C
  C71      1.0000 0.46369  0.63997  0.05610  Biso   1.000  C
  C72      1.0000 0.45429  0.63070  0.08660  Biso   1.000  C
  C73      1.0000 0.42274  0.59932  0.09696  Biso   1.000  C
  H28      1.0000 0.40370  0.58140  0.08490  Biso   1.000  H
  C74      1.0000 0.42530  0.60020  0.12775  Biso   1.000  C
  H29      1.0000 0.40820  0.58280  0.14130  Biso   1.000  H
  C75      1.0000 0.45785  0.63154  0.13589  Biso   1.000  C
  C76      1.0000 0.47090  0.64168  0.16571  Biso   1.000  C
  C77      1.0000 0.50179  0.67384  0.17483  Biso   1.000  C
  C78      1.0000 0.51261  0.68451  0.20548  Biso   1.000  C
  H30      1.0000 0.50030  0.67150  0.22310  Biso   1.000  H
  C79      1.0000 0.54331  0.71626  0.20483  Biso   1.000  C
  H31      1.0000 0.55630  0.73010  0.22190  Biso   1.000  H
  C80      1.0000 0.55294  0.72550  0.17347  Biso   1.000  C
  C81      1.0000 0.58372  0.75585  0.16266  Biso   1.000  C
  C82      1.0000 0.59288  0.76556  0.13199  Biso   1.000  C
  C83      1.0000 0.62543  0.79550  0.12134  Biso   1.000  C
  H32      1.0000 0.64470  0.81320  0.13350  Biso   1.000  H
  C84      1.0000 0.62444  0.79465  0.09097  Biso   1.000  C
  H33      1.0000 0.64270  0.81150  0.07770  Biso   1.000  H
  C85      1.0000 0.59097  0.76394  0.08255  Biso   1.000  C
  C86      1.0000 0.57935  0.75181  0.05281  Biso   1.000  C
  C87      1.0000 0.44054  0.61496  0.03385  Biso   1.000  C
  C88      1.0000 0.42214  0.59518  0.01470  Biso   1.000  C
  C89      1.0000 0.39962  0.57253  0.99060  Biso   1.000  C
  C90      1.0000 0.41038  0.58157  0.96033  Biso   1.000  C
  H34      1.0000 0.43390  0.60180  0.95550  Biso   1.000  H
  C91      1.0000 0.38659  0.56090  0.93764  Biso   1.000  C
  H35      1.0000 0.39290  0.56800  0.91720  Biso   1.000  H
  C92      1.0000 0.35426  0.53065  0.94374  Biso   1.000  C
  C93      1.0000 0.34442  0.52047  0.97367  Biso   1.000  C
  H36      1.0000 0.32220  0.49900  0.97790  Biso   1.000  H
  C94      1.0000 0.36587  0.54060  0.99693  Biso   1.000  C
  H37      1.0000 0.35850  0.53350  0.01730  Biso   1.000  H
  C95      1.0000 0.32814  0.50820  0.91877  Biso   1.000  C
  O10      1.0000 0.33458  0.52217  0.89229  Biso   1.000  O
  O11      1.0000 0.30177  0.47880  0.92563  Biso   1.000  O
  C96      1.0000 0.45098  0.61689  0.18935  Biso   1.000  C
  C97      1.0000 0.43564  0.59604  0.20901  Biso   1.000  C
  C98      1.0000 0.41479  0.57179  0.23261  Biso   1.000  C
  C99      1.0000 0.37980  0.54435  0.22682  Biso   1.000  C
  H38      1.0000 0.37040  0.53950  0.20650  Biso   1.000  H
  C100     1.0000 0.35730  0.52292  0.24991  Biso   1.000  C
  H39      1.0000 0.33200  0.50410  0.24550  Biso   1.000  H
  C101     1.0000 0.37220  0.52930  0.27978  Biso   1.000  C
  C102     1.0000 0.40950  0.55583  0.28534  Biso   1.000  C
  H40      1.0000 0.42050  0.55940  0.30550  Biso   1.000  H
  C103     1.0000 0.43132  0.57727  0.26257  Biso   1.000  C
  H41      1.0000 0.45720  0.59560  0.26680  Biso   1.000  H
  C104     1.0000 0.34597  0.50908  0.30565  Biso   1.000  C
  O12      1.0000 0.30585  0.49057  0.30083  Biso   1.000  O
  O13      1.0000 0.36343  0.51194  0.33142  Biso   1.000  O
  C105     1.0000 0.60994  0.78040  0.18490  Biso   1.000  C
  C106     1.0000 0.63205  0.80070  0.20245  Biso   1.000  C
  C107     1.0000 0.65714  0.82681  0.22249  Biso   1.000  C
  C108     1.0000 0.64620  0.82883  0.25219  Biso   1.000  C
  H42      1.0000 0.62150  0.81160  0.26010  Biso   1.000  H
  C109     1.0000 0.67030  0.85565  0.27156  Biso   1.000  C
  H43      1.0000 0.66210  0.85630  0.29240  Biso   1.000  H
  C110     1.0000 0.70520  0.88060  0.26086  Biso   1.000  C
  C111     1.0000 0.71530  0.87966  0.22963  Biso   1.000  C
  H44      1.0000 0.73830  0.89820  0.22130  Biso   1.000  H
  C112     1.0000 0.69270  0.85270  0.21142  Biso   1.000  C
  H45      1.0000 0.70130  0.85140  0.19060  Biso   1.000  H
  C113     1.0000 0.73020  0.91041  0.28157  Biso   1.000  C
  O14      1.0000 0.71954  0.91101  0.30845  Biso   1.000  O
  O15      1.0000 0.75816  0.93822  0.26712  Biso   1.000  O
  H46      1.0000 0.77620  0.95000  0.27970  Biso   1.000  H
  C114     1.0000 0.60347  0.77327  0.02913  Biso   1.000  C
  C115     1.0000 0.62319  0.79095  0.00873  Biso   1.000  C
  C116     1.0000 0.64509  0.81267  0.98443  Biso   1.000  C
  C117     1.0000 0.67732  0.84287  0.99013  Biso   1.000  C
  H47      1.0000 0.68590  0.84910  0.01040  Biso   1.000  H
  C118     1.0000 0.69781  0.86470  0.96678  Biso   1.000  C
  H48      1.0000 0.72000  0.88620  0.97100  Biso   1.000  H
  C119     1.0000 0.68607  0.85535  0.93747  Biso   1.000  C
  C120     1.0000 0.65420  0.82482  0.93144  Biso   1.000  C
  H49      1.0000 0.64620  0.81850  0.91110  Biso   1.000  H
  C121     1.0000 0.63352  0.80317  0.95451  Biso   1.000  C
  H50      1.0000 0.61130  0.78170  0.95020  Biso   1.000  H
  C122     1.0000 0.70836  0.88018  0.91217  Biso   1.000  C
  O16      1.0000 0.73386  0.91015  0.92075  Biso   1.000  O
  O17      1.0000 0.70072  0.87012  0.88545  Biso   1.000  O
  N11      1.0000 0.59138  0.65003  0.10887  Biso   1.000  N
  N12      1.0000 0.66353  0.59977  0.10708  Biso   1.000  N
  Zn5      1.0000 0.27891  0.43928  0.89590  Biso   1.000  Zn
  Zn6      1.0000 0.30411  0.51821  0.85104  Biso   1.000  Zn
  O18      1.0000 0.26523  0.46140  0.85657  Biso   1.000  O
  C123     1.0000 0.61160  0.64688  0.07781  Biso   1.000  C
  C124     1.0000 0.57970  0.61160  0.12660  Biso   1.000  C
  C125     1.0000 0.63030  0.66336  0.12885  Biso   1.000  C
  C126     1.0000 0.64840  0.60910  0.07646  Biso   1.000  C
  C127     1.0000 0.67990  0.63810  0.12419  Biso   1.000  C
  C128     1.0000 0.62260  0.58280  0.12560  Biso   1.000  C
  C129     1.0000 0.61690  0.57590  0.10320  Biso   1.000  C
  C130     1.0000 0.66990  0.62900  0.08000  Biso   1.000  C
  C131     1.0000 0.66230  0.61980  0.13570  Biso   1.000  C
  C132     1.0000 0.57270  0.60570  0.11100  Biso   1.000  C
  Zn7      1.0000 0.46932  0.80712  0.10933  Biso   1.000  Zn
  N13      1.0000 0.47896  0.80334  0.06311  Biso   1.000  N
  N14      1.0000 0.52444  0.84930  0.11082  Biso   1.000  N
  N15      1.0000 0.47414  0.80102  0.15586  Biso   1.000  N
  N16      1.0000 0.42937  0.75401  0.10826  Biso   1.000  N
  C133     1.0000 0.45273  0.77902  0.04382  Biso   1.000  C
  C134     1.0000 0.46413  0.79015  0.01309  Biso   1.000  C
  H51      1.0000 0.45140  0.77770  0.99540  Biso   1.000  H
  C135     1.0000 0.49535  0.82070  0.01386  Biso   1.000  C
  H52      1.0000 0.50880  0.83460  0.99690  Biso   1.000  H
  C136     1.0000 0.50510  0.82901  0.04531  Biso   1.000  C
  C137     1.0000 0.53631  0.86003  0.05610  Biso   1.000  C
  C138     1.0000 0.54571  0.86930  0.08660  Biso   1.000  C
  C139     1.0000 0.57726  0.90068  0.09696  Biso   1.000  C
  H53      1.0000 0.59630  0.91860  0.08490  Biso   1.000  H
  C140     1.0000 0.57470  0.89980  0.12775  Biso   1.000  C
  H54      1.0000 0.59180  0.91720  0.14130  Biso   1.000  H
  C141     1.0000 0.54215  0.86846  0.13589  Biso   1.000  C
  C142     1.0000 0.52910  0.85832  0.16571  Biso   1.000  C
  C143     1.0000 0.49821  0.82616  0.17483  Biso   1.000  C
  C144     1.0000 0.48739  0.81549  0.20548  Biso   1.000  C
  H55      1.0000 0.49970  0.82850  0.22310  Biso   1.000  H
  C145     1.0000 0.45669  0.78374  0.20483  Biso   1.000  C
  H56      1.0000 0.44370  0.76990  0.22190  Biso   1.000  H
  C146     1.0000 0.44706  0.77450  0.17347  Biso   1.000  C
  C147     1.0000 0.41628  0.74415  0.16266  Biso   1.000  C
  C148     1.0000 0.40712  0.73444  0.13199  Biso   1.000  C
  C149     1.0000 0.37457  0.70450  0.12134  Biso   1.000  C
  H57      1.0000 0.35530  0.68680  0.13350  Biso   1.000  H
  C150     1.0000 0.37556  0.70535  0.09097  Biso   1.000  C
  H58      1.0000 0.35730  0.68850  0.07770  Biso   1.000  H
  C151     1.0000 0.40903  0.73606  0.08255  Biso   1.000  C
  C152     1.0000 0.42065  0.74819  0.05281  Biso   1.000  C
  C153     1.0000 0.55946  0.88504  0.03385  Biso   1.000  C
  C154     1.0000 0.57786  0.90482  0.01470  Biso   1.000  C
  C155     1.0000 0.60038  0.92747  0.99060  Biso   1.000  C
  C156     1.0000 0.58962  0.91843  0.96033  Biso   1.000  C
  H59      1.0000 0.56610  0.89820  0.95550  Biso   1.000  H
  C157     1.0000 0.61341  0.93910  0.93764  Biso   1.000  C
  H60      1.0000 0.60710  0.93200  0.91720  Biso   1.000  H
  C158     1.0000 0.64574  0.96935  0.94374  Biso   1.000  C
  C159     1.0000 0.65558  0.97953  0.97367  Biso   1.000  C
  H61      1.0000 0.67780  0.00100  0.97790  Biso   1.000  H
  C160     1.0000 0.63413  0.95940  0.99693  Biso   1.000  C
  H62      1.0000 0.64150  0.96650  0.01730  Biso   1.000  H
  C161     1.0000 0.67186  0.99180  0.91877  Biso   1.000  C
  O19      1.0000 0.66542  0.97783  0.89229  Biso   1.000  O
  O20      1.0000 0.69823  0.02120  0.92563  Biso   1.000  O
  C162     1.0000 0.54902  0.88311  0.18935  Biso   1.000  C
  C163     1.0000 0.56436  0.90396  0.20901  Biso   1.000  C
  C164     1.0000 0.58521  0.92821  0.23261  Biso   1.000  C
  C165     1.0000 0.62020  0.95565  0.22682  Biso   1.000  C
  H63      1.0000 0.62960  0.96050  0.20650  Biso   1.000  H
  C166     1.0000 0.64270  0.97708  0.24991  Biso   1.000  C
  H64      1.0000 0.66800  0.99590  0.24550  Biso   1.000  H
  C167     1.0000 0.62780  0.97070  0.27978  Biso   1.000  C
  C168     1.0000 0.59050  0.94417  0.28534  Biso   1.000  C
  H65      1.0000 0.57950  0.94060  0.30550  Biso   1.000  H
  C169     1.0000 0.56868  0.92273  0.26257  Biso   1.000  C
  H66      1.0000 0.54280  0.90440  0.26680  Biso   1.000  H
  C170     1.0000 0.65403  0.99092  0.30565  Biso   1.000  C
  O21      1.0000 0.69415  0.00943  0.30083  Biso   1.000  O
  O22      1.0000 0.63657  0.98806  0.33142  Biso   1.000  O
  C171     1.0000 0.39006  0.71960  0.18490  Biso   1.000  C
  C172     1.0000 0.36795  0.69930  0.20245  Biso   1.000  C
  C173     1.0000 0.34286  0.67319  0.22249  Biso   1.000  C
  C174     1.0000 0.35380  0.67117  0.25219  Biso   1.000  C
  H67      1.0000 0.37850  0.68840  0.26010  Biso   1.000  H
  C175     1.0000 0.32970  0.64435  0.27156  Biso   1.000  C
  H68      1.0000 0.33790  0.64370  0.29240  Biso   1.000  H
  C176     1.0000 0.29480  0.61940  0.26086  Biso   1.000  C
  C177     1.0000 0.28470  0.62034  0.22963  Biso   1.000  C
  H69      1.0000 0.26170  0.60180  0.22130  Biso   1.000  H
  C178     1.0000 0.30730  0.64730  0.21142  Biso   1.000  C
  H70      1.0000 0.29870  0.64860  0.19060  Biso   1.000  H
  C179     1.0000 0.26980  0.58959  0.28157  Biso   1.000  C
  O23      1.0000 0.28046  0.58899  0.30845  Biso   1.000  O
  O24      1.0000 0.24184  0.56178  0.26712  Biso   1.000  O
  H71      1.0000 0.22380  0.55000  0.27970  Biso   1.000  H
  C180     1.0000 0.39653  0.72673  0.02913  Biso   1.000  C
  C181     1.0000 0.37681  0.70905  0.00873  Biso   1.000  C
  C182     1.0000 0.35491  0.68733  0.98443  Biso   1.000  C
  C183     1.0000 0.32268  0.65713  0.99013  Biso   1.000  C
  H72      1.0000 0.31410  0.65090  0.01040  Biso   1.000  H
  C184     1.0000 0.30219  0.63530  0.96678  Biso   1.000  C
  H73      1.0000 0.28000  0.61380  0.97100  Biso   1.000  H
  C185     1.0000 0.31393  0.64465  0.93747  Biso   1.000  C
  C186     1.0000 0.34580  0.67518  0.93144  Biso   1.000  C
  H74      1.0000 0.35380  0.68150  0.91110  Biso   1.000  H
  C187     1.0000 0.36648  0.69683  0.95451  Biso   1.000  C
  H75      1.0000 0.38870  0.71830  0.95020  Biso   1.000  H
  C188     1.0000 0.29164  0.61982  0.91217  Biso   1.000  C
  O25      1.0000 0.26614  0.58985  0.92075  Biso   1.000  O
  O26      1.0000 0.29928  0.62988  0.88545  Biso   1.000  O
  N17      1.0000 0.40862  0.84997  0.10887  Biso   1.000  N
  N18      1.0000 0.33647  0.90023  0.10708  Biso   1.000  N
  Zn8      1.0000 0.72109  0.06072  0.89590  Biso   1.000  Zn
  Zn9      1.0000 0.69589  0.98179  0.85104  Biso   1.000  Zn
  O27      1.0000 0.73477  0.03860  0.85657  Biso   1.000  O
  C189     1.0000 0.38840  0.85312  0.07781  Biso   1.000  C
  C190     1.0000 0.42030  0.88840  0.12660  Biso   1.000  C
  C191     1.0000 0.36970  0.83664  0.12885  Biso   1.000  C
  C192     1.0000 0.35160  0.89090  0.07646  Biso   1.000  C
  C193     1.0000 0.32010  0.86190  0.12419  Biso   1.000  C
  C194     1.0000 0.37740  0.91720  0.12560  Biso   1.000  C
  C195     1.0000 0.38310  0.92410  0.10320  Biso   1.000  C
  C196     1.0000 0.33010  0.87100  0.08000  Biso   1.000  C
  C197     1.0000 0.33770  0.88020  0.13570  Biso   1.000  C
  C198     1.0000 0.42730  0.89430  0.11100  Biso   1.000  C
  Zn10     1.0000 0.96932  0.30712  0.10933  Biso   1.000  Zn
  N19      1.0000 0.97896  0.30334  0.06311  Biso   1.000  N
  N20      1.0000 0.02444  0.34930  0.11082  Biso   1.000  N
  N21      1.0000 0.97414  0.30102  0.15586  Biso   1.000  N
  N22      1.0000 0.92937  0.25401  0.10826  Biso   1.000  N
  C199     1.0000 0.95273  0.27902  0.04382  Biso   1.000  C
  C200     1.0000 0.96413  0.29015  0.01309  Biso   1.000  C
  H76      1.0000 0.95140  0.27770  0.99540  Biso   1.000  H
  C201     1.0000 0.99535  0.32070  0.01386  Biso   1.000  C
  H77      1.0000 0.00880  0.33460  0.99690  Biso   1.000  H
  C202     1.0000 0.00510  0.32901  0.04531  Biso   1.000  C
  C203     1.0000 0.03631  0.36003  0.05610  Biso   1.000  C
  C204     1.0000 0.04571  0.36930  0.08660  Biso   1.000  C
  C205     1.0000 0.07726  0.40068  0.09696  Biso   1.000  C
  H78      1.0000 0.09630  0.41860  0.08490  Biso   1.000  H
  C206     1.0000 0.07470  0.39980  0.12775  Biso   1.000  C
  H79      1.0000 0.09180  0.41720  0.14130  Biso   1.000  H
  C207     1.0000 0.04215  0.36846  0.13589  Biso   1.000  C
  C208     1.0000 0.02910  0.35832  0.16571  Biso   1.000  C
  C209     1.0000 0.99821  0.32616  0.17483  Biso   1.000  C
  C210     1.0000 0.98739  0.31549  0.20548  Biso   1.000  C
  H80      1.0000 0.99970  0.32850  0.22310  Biso   1.000  H
  C211     1.0000 0.95669  0.28374  0.20483  Biso   1.000  C
  H81      1.0000 0.94370  0.26990  0.22190  Biso   1.000  H
  C212     1.0000 0.94706  0.27450  0.17347  Biso   1.000  C
  C213     1.0000 0.91628  0.24415  0.16266  Biso   1.000  C
  C214     1.0000 0.90712  0.23444  0.13199  Biso   1.000  C
  C215     1.0000 0.87457  0.20450  0.12134  Biso   1.000  C
  H82      1.0000 0.85530  0.18680  0.13350  Biso   1.000  H
  C216     1.0000 0.87556  0.20535  0.09097  Biso   1.000  C
  H83      1.0000 0.85730  0.18850  0.07770  Biso   1.000  H
  C217     1.0000 0.90903  0.23606  0.08255  Biso   1.000  C
  C218     1.0000 0.92065  0.24819  0.05281  Biso   1.000  C
  C219     1.0000 0.05946  0.38504  0.03385  Biso   1.000  C
  C220     1.0000 0.07786  0.40482  0.01470  Biso   1.000  C
  C221     1.0000 0.10038  0.42747  0.99060  Biso   1.000  C
  C222     1.0000 0.08962  0.41843  0.96033  Biso   1.000  C
  H84      1.0000 0.06610  0.39820  0.95550  Biso   1.000  H
  C223     1.0000 0.11341  0.43910  0.93764  Biso   1.000  C
  H85      1.0000 0.10710  0.43200  0.91720  Biso   1.000  H
  C224     1.0000 0.14574  0.46935  0.94374  Biso   1.000  C
  C225     1.0000 0.15558  0.47953  0.97367  Biso   1.000  C
  H86      1.0000 0.17780  0.50100  0.97790  Biso   1.000  H
  C226     1.0000 0.13413  0.45940  0.99693  Biso   1.000  C
  H87      1.0000 0.14150  0.46650  0.01730  Biso   1.000  H
  C227     1.0000 0.17186  0.49180  0.91877  Biso   1.000  C
  O28      1.0000 0.16542  0.47783  0.89229  Biso   1.000  O
  O29      1.0000 0.19823  0.52120  0.92563  Biso   1.000  O
  C228     1.0000 0.04902  0.38311  0.18935  Biso   1.000  C
  C229     1.0000 0.06436  0.40396  0.20901  Biso   1.000  C
  C230     1.0000 0.08521  0.42821  0.23261  Biso   1.000  C
  C231     1.0000 0.12020  0.45565  0.22682  Biso   1.000  C
  H88      1.0000 0.12960  0.46050  0.20650  Biso   1.000  H
  C232     1.0000 0.14270  0.47708  0.24991  Biso   1.000  C
  H89      1.0000 0.16800  0.49590  0.24550  Biso   1.000  H
  C233     1.0000 0.12780  0.47070  0.27978  Biso   1.000  C
  C234     1.0000 0.09050  0.44417  0.28534  Biso   1.000  C
  H90      1.0000 0.07950  0.44060  0.30550  Biso   1.000  H
  C235     1.0000 0.06868  0.42273  0.26257  Biso   1.000  C
  H91      1.0000 0.04280  0.40440  0.26680  Biso   1.000  H
  C236     1.0000 0.15403  0.49092  0.30565  Biso   1.000  C
  O30      1.0000 0.19415  0.50943  0.30083  Biso   1.000  O
  O31      1.0000 0.13657  0.48806  0.33142  Biso   1.000  O
  C237     1.0000 0.89006  0.21960  0.18490  Biso   1.000  C
  C238     1.0000 0.86795  0.19930  0.20245  Biso   1.000  C
  C239     1.0000 0.84286  0.17319  0.22249  Biso   1.000  C
  C240     1.0000 0.85380  0.17117  0.25219  Biso   1.000  C
  H92      1.0000 0.87850  0.18840  0.26010  Biso   1.000  H
  C241     1.0000 0.82970  0.14435  0.27156  Biso   1.000  C
  H93      1.0000 0.83790  0.14370  0.29240  Biso   1.000  H
  C242     1.0000 0.79480  0.11940  0.26086  Biso   1.000  C
  C243     1.0000 0.78470  0.12034  0.22963  Biso   1.000  C
  H94      1.0000 0.76170  0.10180  0.22130  Biso   1.000  H
  C244     1.0000 0.80730  0.14730  0.21142  Biso   1.000  C
  H95      1.0000 0.79870  0.14860  0.19060  Biso   1.000  H
  C245     1.0000 0.76980  0.08959  0.28157  Biso   1.000  C
  O32      1.0000 0.78046  0.08899  0.30845  Biso   1.000  O
  O33      1.0000 0.74184  0.06178  0.26712  Biso   1.000  O
  H96      1.0000 0.72380  0.05000  0.27970  Biso   1.000  H
  C246     1.0000 0.89653  0.22673  0.02913  Biso   1.000  C
  C247     1.0000 0.87681  0.20905  0.00873  Biso   1.000  C
  C248     1.0000 0.85491  0.18733  0.98443  Biso   1.000  C
  C249     1.0000 0.82268  0.15713  0.99013  Biso   1.000  C
  H97      1.0000 0.81410  0.15090  0.01040  Biso   1.000  H
  C250     1.0000 0.80219  0.13530  0.96678  Biso   1.000  C
  H98      1.0000 0.78000  0.11380  0.97100  Biso   1.000  H
  C251     1.0000 0.81393  0.14465  0.93747  Biso   1.000  C
  C252     1.0000 0.84580  0.17518  0.93144  Biso   1.000  C
  H99      1.0000 0.85380  0.18150  0.91110  Biso   1.000  H
  C253     1.0000 0.86648  0.19683  0.95451  Biso   1.000  C
  H100     1.0000 0.88870  0.21830  0.95020  Biso   1.000  H
  C254     1.0000 0.79164  0.11982  0.91217  Biso   1.000  C
  O34      1.0000 0.76614  0.08985  0.92075  Biso   1.000  O
  O35      1.0000 0.79928  0.12988  0.88545  Biso   1.000  O
  N23      1.0000 0.90862  0.34997  0.10887  Biso   1.000  N
  N24      1.0000 0.83647  0.40023  0.10708  Biso   1.000  N
  Zn11     1.0000 0.22109  0.56072  0.89590  Biso   1.000  Zn
  Zn12     1.0000 0.19589  0.48179  0.85104  Biso   1.000  Zn
  O36      1.0000 0.23477  0.53860  0.85657  Biso   1.000  O
  C255     1.0000 0.88840  0.35312  0.07781  Biso   1.000  C
  C256     1.0000 0.92030  0.38840  0.12660  Biso   1.000  C
  C257     1.0000 0.86970  0.33664  0.12885  Biso   1.000  C
  C258     1.0000 0.85160  0.39090  0.07646  Biso   1.000  C
  C259     1.0000 0.82010  0.36190  0.12419  Biso   1.000  C
  C260     1.0000 0.87740  0.41720  0.12560  Biso   1.000  C
  C261     1.0000 0.88310  0.42410  0.10320  Biso   1.000  C
  C262     1.0000 0.83010  0.37100  0.08000  Biso   1.000  C
  C263     1.0000 0.83770  0.38020  0.13570  Biso   1.000  C
  C264     1.0000 0.92730  0.39430  0.11100  Biso   1.000  C
  Zn13     1.0000 0.96932  0.19288  0.39067  Biso   1.000  Zn
  N25      1.0000 0.97896  0.19666  0.43689  Biso   1.000  N
  N26      1.0000 0.02444  0.15070  0.38918  Biso   1.000  N
  N27      1.0000 0.97414  0.19898  0.34414  Biso   1.000  N
  N28      1.0000 0.92937  0.24599  0.39174  Biso   1.000  N
  C265     1.0000 0.95273  0.22098  0.45618  Biso   1.000  C
  C266     1.0000 0.96413  0.20985  0.48691  Biso   1.000  C
  H101     1.0000 0.95140  0.22230  0.50460  Biso   1.000  H
  C267     1.0000 0.99535  0.17930  0.48614  Biso   1.000  C
  H102     1.0000 0.00880  0.16540  0.50310  Biso   1.000  H
  C268     1.0000 0.00510  0.17099  0.45469  Biso   1.000  C
  C269     1.0000 0.03631  0.13997  0.44390  Biso   1.000  C
  C270     1.0000 0.04571  0.13070  0.41340  Biso   1.000  C
  C271     1.0000 0.07726  0.09932  0.40304  Biso   1.000  C
  H103     1.0000 0.09630  0.08140  0.41510  Biso   1.000  H
  C272     1.0000 0.07470  0.10020  0.37225  Biso   1.000  C
  H104     1.0000 0.09180  0.08280  0.35870  Biso   1.000  H
  C273     1.0000 0.04215  0.13154  0.36411  Biso   1.000  C
  C274     1.0000 0.02910  0.14168  0.33429  Biso   1.000  C
  C275     1.0000 0.99821  0.17384  0.32517  Biso   1.000  C
  C276     1.0000 0.98739  0.18451  0.29452  Biso   1.000  C
  H105     1.0000 0.99970  0.17150  0.27690  Biso   1.000  H
  C277     1.0000 0.95669  0.21626  0.29517  Biso   1.000  C
  H106     1.0000 0.94370  0.23010  0.27810  Biso   1.000  H
  C278     1.0000 0.94706  0.22550  0.32653  Biso   1.000  C
  C279     1.0000 0.91628  0.25585  0.33734  Biso   1.000  C
  C280     1.0000 0.90712  0.26556  0.36801  Biso   1.000  C
  C281     1.0000 0.87457  0.29550  0.37866  Biso   1.000  C
  H107     1.0000 0.85530  0.31320  0.36650  Biso   1.000  H
  C282     1.0000 0.87556  0.29465  0.40903  Biso   1.000  C
  H108     1.0000 0.85730  0.31150  0.42230  Biso   1.000  H
  C283     1.0000 0.90903  0.26394  0.41745  Biso   1.000  C
  C284     1.0000 0.92065  0.25181  0.44719  Biso   1.000  C
  C285     1.0000 0.05946  0.11496  0.46615  Biso   1.000  C
  C286     1.0000 0.07786  0.09518  0.48530  Biso   1.000  C
  C287     1.0000 0.10038  0.07253  0.50940  Biso   1.000  C
  C288     1.0000 0.08962  0.08157  0.53967  Biso   1.000  C
  H109     1.0000 0.06610  0.10180  0.54450  Biso   1.000  H
  C289     1.0000 0.11341  0.06090  0.56236  Biso   1.000  C
  H110     1.0000 0.10710  0.06800  0.58280  Biso   1.000  H
  C290     1.0000 0.14574  0.03065  0.55626  Biso   1.000  C
  C291     1.0000 0.15558  0.02047  0.52633  Biso   1.000  C
  H111     1.0000 0.17780  0.99900  0.52210  Biso   1.000  H
  C292     1.0000 0.13413  0.04060  0.50307  Biso   1.000  C
  H112     1.0000 0.14150  0.03350  0.48270  Biso   1.000  H
  C293     1.0000 0.17186  0.00820  0.58123  Biso   1.000  C
  O37      1.0000 0.16542  0.02217  0.60771  Biso   1.000  O
  O38      1.0000 0.19823  0.97880  0.57437  Biso   1.000  O
  C294     1.0000 0.04902  0.11689  0.31065  Biso   1.000  C
  C295     1.0000 0.06436  0.09604  0.29099  Biso   1.000  C
  C296     1.0000 0.08521  0.07179  0.26739  Biso   1.000  C
  C297     1.0000 0.12020  0.04435  0.27318  Biso   1.000  C
  H113     1.0000 0.12960  0.03950  0.29350  Biso   1.000  H
  C298     1.0000 0.14270  0.02292  0.25009  Biso   1.000  C
  H114     1.0000 0.16800  0.00410  0.25450  Biso   1.000  H
  C299     1.0000 0.12780  0.02930  0.22022  Biso   1.000  C
  C300     1.0000 0.09050  0.05583  0.21466  Biso   1.000  C
  H115     1.0000 0.07950  0.05940  0.19450  Biso   1.000  H
  C301     1.0000 0.06868  0.07727  0.23743  Biso   1.000  C
  H116     1.0000 0.04280  0.09560  0.23320  Biso   1.000  H
  C302     1.0000 0.15403  0.00908  0.19435  Biso   1.000  C
  O39      1.0000 0.19415  0.99057  0.19917  Biso   1.000  O
  O40      1.0000 0.13657  0.01194  0.16858  Biso   1.000  O
  C303     1.0000 0.89006  0.28040  0.31510  Biso   1.000  C
  C304     1.0000 0.86795  0.30070  0.29755  Biso   1.000  C
  C305     1.0000 0.84286  0.32681  0.27751  Biso   1.000  C
  C306     1.0000 0.85380  0.32883  0.24781  Biso   1.000  C
  H117     1.0000 0.87850  0.31160  0.23990  Biso   1.000  H
  C307     1.0000 0.82970  0.35565  0.22844  Biso   1.000  C
  H118     1.0000 0.83790  0.35630  0.20760  Biso   1.000  H
  C308     1.0000 0.79480  0.38060  0.23914  Biso   1.000  C
  C309     1.0000 0.78470  0.37966  0.27037  Biso   1.000  C
  H119     1.0000 0.76170  0.39820  0.27870  Biso   1.000  H
  C310     1.0000 0.80730  0.35270  0.28858  Biso   1.000  C
  H120     1.0000 0.79870  0.35140  0.30940  Biso   1.000  H
  C311     1.0000 0.76980  0.41041  0.21843  Biso   1.000  C
  O41      1.0000 0.78046  0.41101  0.19155  Biso   1.000  O
  O42      1.0000 0.74184  0.43822  0.23288  Biso   1.000  O
  H121     1.0000 0.72380  0.45000  0.22030  Biso   1.000  H
  C312     1.0000 0.89653  0.27327  0.47087  Biso   1.000  C
  C313     1.0000 0.87681  0.29095  0.49127  Biso   1.000  C
  C314     1.0000 0.85491  0.31267  0.51557  Biso   1.000  C
  C315     1.0000 0.82268  0.34287  0.50987  Biso   1.000  C
  H122     1.0000 0.81410  0.34910  0.48960  Biso   1.000  H
  C316     1.0000 0.80219  0.36470  0.53322  Biso   1.000  C
  H123     1.0000 0.78000  0.38620  0.52900  Biso   1.000  H
  C317     1.0000 0.81393  0.35535  0.56253  Biso   1.000  C
  C318     1.0000 0.84580  0.32482  0.56856  Biso   1.000  C
  H124     1.0000 0.85380  0.31850  0.58890  Biso   1.000  H
  C319     1.0000 0.86648  0.30317  0.54549  Biso   1.000  C
  H125     1.0000 0.88870  0.28170  0.54980  Biso   1.000  H
  C320     1.0000 0.79164  0.38018  0.58783  Biso   1.000  C
  O43      1.0000 0.76614  0.41015  0.57925  Biso   1.000  O
  O44      1.0000 0.79928  0.37012  0.61455  Biso   1.000  O
  N29      1.0000 0.90862  0.15003  0.39113  Biso   1.000  N
  N30      1.0000 0.83647  0.09977  0.39292  Biso   1.000  N
  Zn14     1.0000 0.22109  0.93928  0.60410  Biso   1.000  Zn
  Zn15     1.0000 0.19589  0.01821  0.64896  Biso   1.000  Zn
  O45      1.0000 0.23477  0.96140  0.64343  Biso   1.000  O
  C321     1.0000 0.88840  0.14688  0.42219  Biso   1.000  C
  C322     1.0000 0.92030  0.11160  0.37340  Biso   1.000  C
  C323     1.0000 0.86970  0.16336  0.37115  Biso   1.000  C
  C324     1.0000 0.85160  0.10910  0.42354  Biso   1.000  C
  C325     1.0000 0.82010  0.13810  0.37581  Biso   1.000  C
  C326     1.0000 0.87740  0.08280  0.37440  Biso   1.000  C
  C327     1.0000 0.88310  0.07590  0.39680  Biso   1.000  C
  C328     1.0000 0.83010  0.12900  0.42000  Biso   1.000  C
  C329     1.0000 0.83770  0.11980  0.36430  Biso   1.000  C
  C330     1.0000 0.92730  0.10570  0.38900  Biso   1.000  C
  Zn16     1.0000 0.46932  0.69288  0.39067  Biso   1.000  Zn
  N31      1.0000 0.47896  0.69666  0.43689  Biso   1.000  N
  N32      1.0000 0.52444  0.65070  0.38918  Biso   1.000  N
  N33      1.0000 0.47414  0.69898  0.34414  Biso   1.000  N
  N34      1.0000 0.42937  0.74599  0.39174  Biso   1.000  N
  C331     1.0000 0.45273  0.72098  0.45618  Biso   1.000  C
  C332     1.0000 0.46413  0.70985  0.48691  Biso   1.000  C
  H126     1.0000 0.45140  0.72230  0.50460  Biso   1.000  H
  C333     1.0000 0.49535  0.67930  0.48614  Biso   1.000  C
  H127     1.0000 0.50880  0.66540  0.50310  Biso   1.000  H
  C334     1.0000 0.50510  0.67099  0.45469  Biso   1.000  C
  C335     1.0000 0.53631  0.63997  0.44390  Biso   1.000  C
  C336     1.0000 0.54571  0.63070  0.41340  Biso   1.000  C
  C337     1.0000 0.57726  0.59932  0.40304  Biso   1.000  C
  H128     1.0000 0.59630  0.58140  0.41510  Biso   1.000  H
  C338     1.0000 0.57470  0.60020  0.37225  Biso   1.000  C
  H129     1.0000 0.59180  0.58280  0.35870  Biso   1.000  H
  C339     1.0000 0.54215  0.63154  0.36411  Biso   1.000  C
  C340     1.0000 0.52910  0.64168  0.33429  Biso   1.000  C
  C341     1.0000 0.49821  0.67384  0.32517  Biso   1.000  C
  C342     1.0000 0.48739  0.68451  0.29452  Biso   1.000  C
  H130     1.0000 0.49970  0.67150  0.27690  Biso   1.000  H
  C343     1.0000 0.45669  0.71626  0.29517  Biso   1.000  C
  H131     1.0000 0.44370  0.73010  0.27810  Biso   1.000  H
  C344     1.0000 0.44706  0.72550  0.32653  Biso   1.000  C
  C345     1.0000 0.41628  0.75585  0.33734  Biso   1.000  C
  C346     1.0000 0.40712  0.76556  0.36801  Biso   1.000  C
  C347     1.0000 0.37457  0.79550  0.37866  Biso   1.000  C
  H132     1.0000 0.35530  0.81320  0.36650  Biso   1.000  H
  C348     1.0000 0.37556  0.79465  0.40903  Biso   1.000  C
  H133     1.0000 0.35730  0.81150  0.42230  Biso   1.000  H
  C349     1.0000 0.40903  0.76394  0.41745  Biso   1.000  C
  C350     1.0000 0.42065  0.75181  0.44719  Biso   1.000  C
  C351     1.0000 0.55946  0.61496  0.46615  Biso   1.000  C
  C352     1.0000 0.57786  0.59518  0.48530  Biso   1.000  C
  C353     1.0000 0.60038  0.57253  0.50940  Biso   1.000  C
  C354     1.0000 0.58962  0.58157  0.53967  Biso   1.000  C
  H134     1.0000 0.56610  0.60180  0.54450  Biso   1.000  H
  C355     1.0000 0.61341  0.56090  0.56236  Biso   1.000  C
  H135     1.0000 0.60710  0.56800  0.58280  Biso   1.000  H
  C356     1.0000 0.64574  0.53065  0.55626  Biso   1.000  C
  C357     1.0000 0.65558  0.52047  0.52633  Biso   1.000  C
  H136     1.0000 0.67780  0.49900  0.52210  Biso   1.000  H
  C358     1.0000 0.63413  0.54060  0.50307  Biso   1.000  C
  H137     1.0000 0.64150  0.53350  0.48270  Biso   1.000  H
  C359     1.0000 0.67186  0.50820  0.58123  Biso   1.000  C
  O46      1.0000 0.66542  0.52217  0.60771  Biso   1.000  O
  O47      1.0000 0.69823  0.47880  0.57437  Biso   1.000  O
  C360     1.0000 0.54902  0.61689  0.31065  Biso   1.000  C
  C361     1.0000 0.56436  0.59604  0.29099  Biso   1.000  C
  C362     1.0000 0.58521  0.57179  0.26739  Biso   1.000  C
  C363     1.0000 0.62020  0.54435  0.27318  Biso   1.000  C
  H138     1.0000 0.62960  0.53950  0.29350  Biso   1.000  H
  C364     1.0000 0.64270  0.52292  0.25009  Biso   1.000  C
  H139     1.0000 0.66800  0.50410  0.25450  Biso   1.000  H
  C365     1.0000 0.62780  0.52930  0.22022  Biso   1.000  C
  C366     1.0000 0.59050  0.55583  0.21466  Biso   1.000  C
  H140     1.0000 0.57950  0.55940  0.19450  Biso   1.000  H
  C367     1.0000 0.56868  0.57727  0.23743  Biso   1.000  C
  H141     1.0000 0.54280  0.59560  0.23320  Biso   1.000  H
  C368     1.0000 0.65403  0.50908  0.19435  Biso   1.000  C
  O48      1.0000 0.69415  0.49057  0.19917  Biso   1.000  O
  O49      1.0000 0.63657  0.51194  0.16858  Biso   1.000  O
  C369     1.0000 0.39006  0.78040  0.31510  Biso   1.000  C
  C370     1.0000 0.36795  0.80070  0.29755  Biso   1.000  C
  C371     1.0000 0.34286  0.82681  0.27751  Biso   1.000  C
  C372     1.0000 0.35380  0.82883  0.24781  Biso   1.000  C
  H142     1.0000 0.37850  0.81160  0.23990  Biso   1.000  H
  C373     1.0000 0.32970  0.85565  0.22844  Biso   1.000  C
  H143     1.0000 0.33790  0.85630  0.20760  Biso   1.000  H
  C374     1.0000 0.29480  0.88060  0.23914  Biso   1.000  C
  C375     1.0000 0.28470  0.87966  0.27037  Biso   1.000  C
  H144     1.0000 0.26170  0.89820  0.27870  Biso   1.000  H
  C376     1.0000 0.30730  0.85270  0.28858  Biso   1.000  C
  H145     1.0000 0.29870  0.85140  0.30940  Biso   1.000  H
  C377     1.0000 0.26980  0.91041  0.21843  Biso   1.000  C
  O50      1.0000 0.28046  0.91101  0.19155  Biso   1.000  O
  O51      1.0000 0.24184  0.93822  0.23288  Biso   1.000  O
  H146     1.0000 0.22380  0.95000  0.22030  Biso   1.000  H
  C378     1.0000 0.39653  0.77327  0.47087  Biso   1.000  C
  C379     1.0000 0.37681  0.79095  0.49127  Biso   1.000  C
  C380     1.0000 0.35491  0.81267  0.51557  Biso   1.000  C
  C381     1.0000 0.32268  0.84287  0.50987  Biso   1.000  C
  H147     1.0000 0.31410  0.84910  0.48960  Biso   1.000  H
  C382     1.0000 0.30219  0.86470  0.53322  Biso   1.000  C
  H148     1.0000 0.28000  0.88620  0.52900  Biso   1.000  H
  C383     1.0000 0.31393  0.85535  0.56253  Biso   1.000  C
  C384     1.0000 0.34580  0.82482  0.56856  Biso   1.000  C
  H149     1.0000 0.35380  0.81850  0.58890  Biso   1.000  H
  C385     1.0000 0.36648  0.80317  0.54549  Biso   1.000  C
  H150     1.0000 0.38870  0.78170  0.54980  Biso   1.000  H
  C386     1.0000 0.29164  0.88018  0.58783  Biso   1.000  C
  O52      1.0000 0.26614  0.91015  0.57925  Biso   1.000  O
  O53      1.0000 0.29928  0.87012  0.61455  Biso   1.000  O
  N35      1.0000 0.40862  0.65003  0.39113  Biso   1.000  N
  N36      1.0000 0.33647  0.59977  0.39292  Biso   1.000  N
  Zn17     1.0000 0.72109  0.43928  0.60410  Biso   1.000  Zn
  Zn18     1.0000 0.69589  0.51821  0.64896  Biso   1.000  Zn
  O54      1.0000 0.73477  0.46140  0.64343  Biso   1.000  O
  C387     1.0000 0.38840  0.64688  0.42219  Biso   1.000  C
  C388     1.0000 0.42030  0.61160  0.37340  Biso   1.000  C
  C389     1.0000 0.36970  0.66336  0.37115  Biso   1.000  C
  C390     1.0000 0.35160  0.60910  0.42354  Biso   1.000  C
  C391     1.0000 0.32010  0.63810  0.37581  Biso   1.000  C
  C392     1.0000 0.37740  0.58280  0.37440  Biso   1.000  C
  C393     1.0000 0.38310  0.57590  0.39680  Biso   1.000  C
  C394     1.0000 0.33010  0.62900  0.42000  Biso   1.000  C
  C395     1.0000 0.33770  0.61980  0.36430  Biso   1.000  C
  C396     1.0000 0.42730  0.60570  0.38900  Biso   1.000  C
  Zn19     1.0000 0.53068  0.80712  0.39067  Biso   1.000  Zn
  N37      1.0000 0.52104  0.80334  0.43689  Biso   1.000  N
  N38      1.0000 0.47556  0.84930  0.38918  Biso   1.000  N
  N39      1.0000 0.52586  0.80102  0.34414  Biso   1.000  N
  N40      1.0000 0.57063  0.75401  0.39174  Biso   1.000  N
  C397     1.0000 0.54727  0.77902  0.45618  Biso   1.000  C
  C398     1.0000 0.53587  0.79015  0.48691  Biso   1.000  C
  H151     1.0000 0.54860  0.77770  0.50460  Biso   1.000  H
  C399     1.0000 0.50465  0.82070  0.48614  Biso   1.000  C
  H152     1.0000 0.49120  0.83460  0.50310  Biso   1.000  H
  C400     1.0000 0.49490  0.82901  0.45469  Biso   1.000  C
  C401     1.0000 0.46369  0.86003  0.44390  Biso   1.000  C
  C402     1.0000 0.45429  0.86930  0.41340  Biso   1.000  C
  C403     1.0000 0.42274  0.90068  0.40304  Biso   1.000  C
  H153     1.0000 0.40370  0.91860  0.41510  Biso   1.000  H
  C404     1.0000 0.42530  0.89980  0.37225  Biso   1.000  C
  H154     1.0000 0.40820  0.91720  0.35870  Biso   1.000  H
  C405     1.0000 0.45785  0.86846  0.36411  Biso   1.000  C
  C406     1.0000 0.47090  0.85832  0.33429  Biso   1.000  C
  C407     1.0000 0.50179  0.82616  0.32517  Biso   1.000  C
  C408     1.0000 0.51261  0.81549  0.29452  Biso   1.000  C
  H155     1.0000 0.50030  0.82850  0.27690  Biso   1.000  H
  C409     1.0000 0.54331  0.78374  0.29517  Biso   1.000  C
  H156     1.0000 0.55630  0.76990  0.27810  Biso   1.000  H
  C410     1.0000 0.55294  0.77450  0.32653  Biso   1.000  C
  C411     1.0000 0.58372  0.74415  0.33734  Biso   1.000  C
  C412     1.0000 0.59288  0.73444  0.36801  Biso   1.000  C
  C413     1.0000 0.62543  0.70450  0.37866  Biso   1.000  C
  H157     1.0000 0.64470  0.68680  0.36650  Biso   1.000  H
  C414     1.0000 0.62444  0.70535  0.40903  Biso   1.000  C
  H158     1.0000 0.64270  0.68850  0.42230  Biso   1.000  H
  C415     1.0000 0.59097  0.73606  0.41745  Biso   1.000  C
  C416     1.0000 0.57935  0.74819  0.44719  Biso   1.000  C
  C417     1.0000 0.44054  0.88504  0.46615  Biso   1.000  C
  C418     1.0000 0.42214  0.90482  0.48530  Biso   1.000  C
  C419     1.0000 0.39962  0.92747  0.50940  Biso   1.000  C
  C420     1.0000 0.41038  0.91843  0.53967  Biso   1.000  C
  H159     1.0000 0.43390  0.89820  0.54450  Biso   1.000  H
  C421     1.0000 0.38659  0.93910  0.56236  Biso   1.000  C
  H160     1.0000 0.39290  0.93200  0.58280  Biso   1.000  H
  C422     1.0000 0.35426  0.96935  0.55626  Biso   1.000  C
  C423     1.0000 0.34442  0.97953  0.52633  Biso   1.000  C
  H161     1.0000 0.32220  0.00100  0.52210  Biso   1.000  H
  C424     1.0000 0.36587  0.95940  0.50307  Biso   1.000  C
  H162     1.0000 0.35850  0.96650  0.48270  Biso   1.000  H
  C425     1.0000 0.32814  0.99180  0.58123  Biso   1.000  C
  O55      1.0000 0.33458  0.97783  0.60771  Biso   1.000  O
  O56      1.0000 0.30177  0.02120  0.57437  Biso   1.000  O
  C426     1.0000 0.45098  0.88311  0.31065  Biso   1.000  C
  C427     1.0000 0.43564  0.90396  0.29099  Biso   1.000  C
  C428     1.0000 0.41479  0.92821  0.26739  Biso   1.000  C
  C429     1.0000 0.37980  0.95565  0.27318  Biso   1.000  C
  H163     1.0000 0.37040  0.96050  0.29350  Biso   1.000  H
  C430     1.0000 0.35730  0.97708  0.25009  Biso   1.000  C
  H164     1.0000 0.33200  0.99590  0.25450  Biso   1.000  H
  C431     1.0000 0.37220  0.97070  0.22022  Biso   1.000  C
  C432     1.0000 0.40950  0.94417  0.21466  Biso   1.000  C
  H165     1.0000 0.42050  0.94060  0.19450  Biso   1.000  H
  C433     1.0000 0.43132  0.92273  0.23743  Biso   1.000  C
  H166     1.0000 0.45720  0.90440  0.23320  Biso   1.000  H
  C434     1.0000 0.34597  0.99092  0.19435  Biso   1.000  C
  O57      1.0000 0.30585  0.00943  0.19917  Biso   1.000  O
  O58      1.0000 0.36343  0.98806  0.16858  Biso   1.000  O
  C435     1.0000 0.60994  0.71960  0.31510  Biso   1.000  C
  C436     1.0000 0.63205  0.69930  0.29755  Biso   1.000  C
  C437     1.0000 0.65714  0.67319  0.27751  Biso   1.000  C
  C438     1.0000 0.64620  0.67117  0.24781  Biso   1.000  C
  H167     1.0000 0.62150  0.68840  0.23990  Biso   1.000  H
  C439     1.0000 0.67030  0.64435  0.22844  Biso   1.000  C
  H168     1.0000 0.66210  0.64370  0.20760  Biso   1.000  H
  C440     1.0000 0.70520  0.61940  0.23914  Biso   1.000  C
  C441     1.0000 0.71530  0.62034  0.27037  Biso   1.000  C
  H169     1.0000 0.73830  0.60180  0.27870  Biso   1.000  H
  C442     1.0000 0.69270  0.64730  0.28858  Biso   1.000  C
  H170     1.0000 0.70130  0.64860  0.30940  Biso   1.000  H
  C443     1.0000 0.73020  0.58959  0.21843  Biso   1.000  C
  O59      1.0000 0.71954  0.58899  0.19155  Biso   1.000  O
  O60      1.0000 0.75816  0.56178  0.23288  Biso   1.000  O
  H171     1.0000 0.77620  0.55000  0.22030  Biso   1.000  H
  C444     1.0000 0.60347  0.72673  0.47087  Biso   1.000  C
  C445     1.0000 0.62319  0.70905  0.49127  Biso   1.000  C
  C446     1.0000 0.64509  0.68733  0.51557  Biso   1.000  C
  C447     1.0000 0.67732  0.65713  0.50987  Biso   1.000  C
  H172     1.0000 0.68590  0.65090  0.48960  Biso   1.000  H
  C448     1.0000 0.69781  0.63530  0.53322  Biso   1.000  C
  H173     1.0000 0.72000  0.61380  0.52900  Biso   1.000  H
  C449     1.0000 0.68607  0.64465  0.56253  Biso   1.000  C
  C450     1.0000 0.65420  0.67518  0.56856  Biso   1.000  C
  H174     1.0000 0.64620  0.68150  0.58890  Biso   1.000  H
  C451     1.0000 0.63352  0.69683  0.54549  Biso   1.000  C
  H175     1.0000 0.61130  0.71830  0.54980  Biso   1.000  H
  C452     1.0000 0.70836  0.61982  0.58783  Biso   1.000  C
  O61      1.0000 0.73386  0.58985  0.57925  Biso   1.000  O
  O62      1.0000 0.70072  0.62988  0.61455  Biso   1.000  O
  N41      1.0000 0.59138  0.84997  0.39113  Biso   1.000  N
  N42      1.0000 0.66353  0.90023  0.39292  Biso   1.000  N
  Zn20     1.0000 0.27891  0.06072  0.60410  Biso   1.000  Zn
  Zn21     1.0000 0.30411  0.98179  0.64896  Biso   1.000  Zn
  O63      1.0000 0.26523  0.03860  0.64343  Biso   1.000  O
  C453     1.0000 0.61160  0.85312  0.42219  Biso   1.000  C
  C454     1.0000 0.57970  0.88840  0.37340  Biso   1.000  C
  C455     1.0000 0.63030  0.83664  0.37115  Biso   1.000  C
  C456     1.0000 0.64840  0.89090  0.42354  Biso   1.000  C
  C457     1.0000 0.67990  0.86190  0.37581  Biso   1.000  C
  C458     1.0000 0.62260  0.91720  0.37440  Biso   1.000  C
  C459     1.0000 0.61690  0.92410  0.39680  Biso   1.000  C
  C460     1.0000 0.66990  0.87100  0.42000  Biso   1.000  C
  C461     1.0000 0.66230  0.88020  0.36430  Biso   1.000  C
  C462     1.0000 0.57270  0.89430  0.38900  Biso   1.000  C
  Zn22     1.0000 0.03068  0.30712  0.39067  Biso   1.000  Zn
  N43      1.0000 0.02104  0.30334  0.43689  Biso   1.000  N
  N44      1.0000 0.97556  0.34930  0.38918  Biso   1.000  N
  N45      1.0000 0.02586  0.30102  0.34414  Biso   1.000  N
  N46      1.0000 0.07063  0.25401  0.39174  Biso   1.000  N
  C463     1.0000 0.04727  0.27902  0.45618  Biso   1.000  C
  C464     1.0000 0.03587  0.29015  0.48691  Biso   1.000  C
  H176     1.0000 0.04860  0.27770  0.50460  Biso   1.000  H
  C465     1.0000 0.00465  0.32070  0.48614  Biso   1.000  C
  H177     1.0000 0.99120  0.33460  0.50310  Biso   1.000  H
  C466     1.0000 0.99490  0.32901  0.45469  Biso   1.000  C
  C467     1.0000 0.96369  0.36003  0.44390  Biso   1.000  C
  C468     1.0000 0.95429  0.36930  0.41340  Biso   1.000  C
  C469     1.0000 0.92274  0.40068  0.40304  Biso   1.000  C
  H178     1.0000 0.90370  0.41860  0.41510  Biso   1.000  H
  C470     1.0000 0.92530  0.39980  0.37225  Biso   1.000  C
  H179     1.0000 0.90820  0.41720  0.35870  Biso   1.000  H
  C471     1.0000 0.95785  0.36846  0.36411  Biso   1.000  C
  C472     1.0000 0.97090  0.35832  0.33429  Biso   1.000  C
  C473     1.0000 0.00179  0.32616  0.32517  Biso   1.000  C
  C474     1.0000 0.01261  0.31549  0.29452  Biso   1.000  C
  H180     1.0000 0.00030  0.32850  0.27690  Biso   1.000  H
  C475     1.0000 0.04331  0.28374  0.29517  Biso   1.000  C
  H181     1.0000 0.05630  0.26990  0.27810  Biso   1.000  H
  C476     1.0000 0.05294  0.27450  0.32653  Biso   1.000  C
  C477     1.0000 0.08372  0.24415  0.33734  Biso   1.000  C
  C478     1.0000 0.09288  0.23444  0.36801  Biso   1.000  C
  C479     1.0000 0.12543  0.20450  0.37866  Biso   1.000  C
  H182     1.0000 0.14470  0.18680  0.36650  Biso   1.000  H
  C480     1.0000 0.12444  0.20535  0.40903  Biso   1.000  C
  H183     1.0000 0.14270  0.18850  0.42230  Biso   1.000  H
  C481     1.0000 0.09097  0.23606  0.41745  Biso   1.000  C
  C482     1.0000 0.07935  0.24819  0.44719  Biso   1.000  C
  C483     1.0000 0.94054  0.38504  0.46615  Biso   1.000  C
  C484     1.0000 0.92214  0.40482  0.48530  Biso   1.000  C
  C485     1.0000 0.89962  0.42747  0.50940  Biso   1.000  C
  C486     1.0000 0.91038  0.41843  0.53967  Biso   1.000  C
  H184     1.0000 0.93390  0.39820  0.54450  Biso   1.000  H
  C487     1.0000 0.88659  0.43910  0.56236  Biso   1.000  C
  H185     1.0000 0.89290  0.43200  0.58280  Biso   1.000  H
  C488     1.0000 0.85426  0.46935  0.55626  Biso   1.000  C
  C489     1.0000 0.84442  0.47953  0.52633  Biso   1.000  C
  H186     1.0000 0.82220  0.50100  0.52210  Biso   1.000  H
  C490     1.0000 0.86587  0.45940  0.50307  Biso   1.000  C
  H187     1.0000 0.85850  0.46650  0.48270  Biso   1.000  H
  C491     1.0000 0.82814  0.49180  0.58123  Biso   1.000  C
  O64      1.0000 0.83458  0.47783  0.60771  Biso   1.000  O
  O65      1.0000 0.80177  0.52120  0.57437  Biso   1.000  O
  C492     1.0000 0.95098  0.38311  0.31065  Biso   1.000  C
  C493     1.0000 0.93564  0.40396  0.29099  Biso   1.000  C
  C494     1.0000 0.91479  0.42821  0.26739  Biso   1.000  C
  C495     1.0000 0.87980  0.45565  0.27318  Biso   1.000  C
  H188     1.0000 0.87040  0.46050  0.29350  Biso   1.000  H
  C496     1.0000 0.85730  0.47708  0.25009  Biso   1.000  C
  H189     1.0000 0.83200  0.49590  0.25450  Biso   1.000  H
  C497     1.0000 0.87220  0.47070  0.22022  Biso   1.000  C
  C498     1.0000 0.90950  0.44417  0.21466  Biso   1.000  C
  H190     1.0000 0.92050  0.44060  0.19450  Biso   1.000  H
  C499     1.0000 0.93132  0.42273  0.23743  Biso   1.000  C
  H191     1.0000 0.95720  0.40440  0.23320  Biso   1.000  H
  C500     1.0000 0.84597  0.49092  0.19435  Biso   1.000  C
  O66      1.0000 0.80585  0.50943  0.19917  Biso   1.000  O
  O67      1.0000 0.86343  0.48806  0.16858  Biso   1.000  O
  C501     1.0000 0.10994  0.21960  0.31510  Biso   1.000  C
  C502     1.0000 0.13205  0.19930  0.29755  Biso   1.000  C
  C503     1.0000 0.15714  0.17319  0.27751  Biso   1.000  C
  C504     1.0000 0.14620  0.17117  0.24781  Biso   1.000  C
  H192     1.0000 0.12150  0.18840  0.23990  Biso   1.000  H
  C505     1.0000 0.17030  0.14435  0.22844  Biso   1.000  C
  H193     1.0000 0.16210  0.14370  0.20760  Biso   1.000  H
  C506     1.0000 0.20520  0.11940  0.23914  Biso   1.000  C
  C507     1.0000 0.21530  0.12034  0.27037  Biso   1.000  C
  H194     1.0000 0.23830  0.10180  0.27870  Biso   1.000  H
  C508     1.0000 0.19270  0.14730  0.28858  Biso   1.000  C
  H195     1.0000 0.20130  0.14860  0.30940  Biso   1.000  H
  C509     1.0000 0.23020  0.08959  0.21843  Biso   1.000  C
  O68      1.0000 0.21954  0.08899  0.19155  Biso   1.000  O
  O69      1.0000 0.25816  0.06178  0.23288  Biso   1.000  O
  H196     1.0000 0.27620  0.05000  0.22030  Biso   1.000  H
  C510     1.0000 0.10347  0.22673  0.47087  Biso   1.000  C
  C511     1.0000 0.12319  0.20905  0.49127  Biso   1.000  C
  C512     1.0000 0.14509  0.18733  0.51557  Biso   1.000  C
  C513     1.0000 0.17732  0.15713  0.50987  Biso   1.000  C
  H197     1.0000 0.18590  0.15090  0.48960  Biso   1.000  H
  C514     1.0000 0.19781  0.13530  0.53322  Biso   1.000  C
  H198     1.0000 0.22000  0.11380  0.52900  Biso   1.000  H
  C515     1.0000 0.18607  0.14465  0.56253  Biso   1.000  C
  C516     1.0000 0.15420  0.17518  0.56856  Biso   1.000  C
  H199     1.0000 0.14620  0.18150  0.58890  Biso   1.000  H
  C517     1.0000 0.13352  0.19683  0.54549  Biso   1.000  C
  H200     1.0000 0.11130  0.21830  0.54980  Biso   1.000  H
  C518     1.0000 0.20836  0.11982  0.58783  Biso   1.000  C
  O70      1.0000 0.23386  0.08985  0.57925  Biso   1.000  O
  O71      1.0000 0.20072  0.12988  0.61455  Biso   1.000  O
  N47      1.0000 0.09138  0.34997  0.39113  Biso   1.000  N
  N48      1.0000 0.16353  0.40023  0.39292  Biso   1.000  N
  Zn23     1.0000 0.77891  0.56072  0.60410  Biso   1.000  Zn
  Zn24     1.0000 0.80411  0.48179  0.64896  Biso   1.000  Zn
  O72      1.0000 0.76523  0.53860  0.64343  Biso   1.000  O
  C519     1.0000 0.11160  0.35312  0.42219  Biso   1.000  C
  C520     1.0000 0.07970  0.38840  0.37340  Biso   1.000  C
  C521     1.0000 0.13030  0.33664  0.37115  Biso   1.000  C
  C522     1.0000 0.14840  0.39090  0.42354  Biso   1.000  C
  C523     1.0000 0.17990  0.36190  0.37581  Biso   1.000  C
  C524     1.0000 0.12260  0.41720  0.37440  Biso   1.000  C
  C525     1.0000 0.11690  0.42410  0.39680  Biso   1.000  C
  C526     1.0000 0.16990  0.37100  0.42000  Biso   1.000  C
  C527     1.0000 0.16230  0.38020  0.36430  Biso   1.000  C
  C528     1.0000 0.07270  0.39430  0.38900  Biso   1.000  C
  Zn25     1.0000 0.96932  0.80712  0.89067  Biso   1.000  Zn
  N49      1.0000 0.97896  0.80334  0.93689  Biso   1.000  N
  N50      1.0000 0.02444  0.84930  0.88918  Biso   1.000  N
  N51      1.0000 0.97414  0.80102  0.84414  Biso   1.000  N
  N52      1.0000 0.92937  0.75401  0.89174  Biso   1.000  N
  C529     1.0000 0.95273  0.77902  0.95618  Biso   1.000  C
  C530     1.0000 0.96413  0.79015  0.98691  Biso   1.000  C
  H201     1.0000 0.95140  0.77770  0.00460  Biso   1.000  H
  C531     1.0000 0.99535  0.82070  0.98614  Biso   1.000  C
  H202     1.0000 0.00880  0.83460  0.00310  Biso   1.000  H
  C532     1.0000 0.00510  0.82901  0.95469  Biso   1.000  C
  C533     1.0000 0.03631  0.86003  0.94390  Biso   1.000  C
  C534     1.0000 0.04571  0.86930  0.91340  Biso   1.000  C
  C535     1.0000 0.07726  0.90068  0.90304  Biso   1.000  C
  H203     1.0000 0.09630  0.91860  0.91510  Biso   1.000  H
  C536     1.0000 0.07470  0.89980  0.87225  Biso   1.000  C
  H204     1.0000 0.09180  0.91720  0.85870  Biso   1.000  H
  C537     1.0000 0.04215  0.86846  0.86411  Biso   1.000  C
  C538     1.0000 0.02910  0.85832  0.83429  Biso   1.000  C
  C539     1.0000 0.99821  0.82616  0.82517  Biso   1.000  C
  C540     1.0000 0.98739  0.81549  0.79452  Biso   1.000  C
  H205     1.0000 0.99970  0.82850  0.77690  Biso   1.000  H
  C541     1.0000 0.95669  0.78374  0.79517  Biso   1.000  C
  H206     1.0000 0.94370  0.76990  0.77810  Biso   1.000  H
  C542     1.0000 0.94706  0.77450  0.82653  Biso   1.000  C
  C543     1.0000 0.91628  0.74415  0.83734  Biso   1.000  C
  C544     1.0000 0.90712  0.73444  0.86801  Biso   1.000  C
  C545     1.0000 0.87457  0.70450  0.87866  Biso   1.000  C
  H207     1.0000 0.85530  0.68680  0.86650  Biso   1.000  H
  C546     1.0000 0.87556  0.70535  0.90903  Biso   1.000  C
  H208     1.0000 0.85730  0.68850  0.92230  Biso   1.000  H
  C547     1.0000 0.90903  0.73606  0.91745  Biso   1.000  C
  C548     1.0000 0.92065  0.74819  0.94719  Biso   1.000  C
  C549     1.0000 0.05946  0.88504  0.96615  Biso   1.000  C
  C550     1.0000 0.07786  0.90482  0.98530  Biso   1.000  C
  C551     1.0000 0.10038  0.92747  0.00940  Biso   1.000  C
  C552     1.0000 0.08962  0.91843  0.03967  Biso   1.000  C
  H209     1.0000 0.06610  0.89820  0.04450  Biso   1.000  H
  C553     1.0000 0.11341  0.93910  0.06236  Biso   1.000  C
  H210     1.0000 0.10710  0.93200  0.08280  Biso   1.000  H
  C554     1.0000 0.14574  0.96935  0.05626  Biso   1.000  C
  C555     1.0000 0.15558  0.97953  0.02633  Biso   1.000  C
  H211     1.0000 0.17780  0.00100  0.02210  Biso   1.000  H
  C556     1.0000 0.13413  0.95940  0.00307  Biso   1.000  C
  H212     1.0000 0.14150  0.96650  0.98270  Biso   1.000  H
  C557     1.0000 0.17186  0.99180  0.08123  Biso   1.000  C
  O73      1.0000 0.16542  0.97783  0.10771  Biso   1.000  O
  O74      1.0000 0.19823  0.02120  0.07437  Biso   1.000  O
  C558     1.0000 0.04902  0.88311  0.81065  Biso   1.000  C
  C559     1.0000 0.06436  0.90396  0.79099  Biso   1.000  C
  C560     1.0000 0.08521  0.92821  0.76739  Biso   1.000  C
  C561     1.0000 0.12020  0.95565  0.77318  Biso   1.000  C
  H213     1.0000 0.12960  0.96050  0.79350  Biso   1.000  H
  C562     1.0000 0.14270  0.97708  0.75009  Biso   1.000  C
  H214     1.0000 0.16800  0.99590  0.75450  Biso   1.000  H
  C563     1.0000 0.12780  0.97070  0.72022  Biso   1.000  C
  C564     1.0000 0.09050  0.94417  0.71466  Biso   1.000  C
  H215     1.0000 0.07950  0.94060  0.69450  Biso   1.000  H
  C565     1.0000 0.06868  0.92273  0.73743  Biso   1.000  C
  H216     1.0000 0.04280  0.90440  0.73320  Biso   1.000  H
  C566     1.0000 0.15403  0.99092  0.69435  Biso   1.000  C
  O75      1.0000 0.19415  0.00943  0.69917  Biso   1.000  O
  O76      1.0000 0.13657  0.98806  0.66858  Biso   1.000  O
  C567     1.0000 0.89006  0.71960  0.81510  Biso   1.000  C
  C568     1.0000 0.86795  0.69930  0.79755  Biso   1.000  C
  C569     1.0000 0.84286  0.67319  0.77751  Biso   1.000  C
  C570     1.0000 0.85380  0.67117  0.74781  Biso   1.000  C
  H217     1.0000 0.87850  0.68840  0.73990  Biso   1.000  H
  C571     1.0000 0.82970  0.64435  0.72844  Biso   1.000  C
  H218     1.0000 0.83790  0.64370  0.70760  Biso   1.000  H
  C572     1.0000 0.79480  0.61940  0.73914  Biso   1.000  C
  C573     1.0000 0.78470  0.62034  0.77037  Biso   1.000  C
  H219     1.0000 0.76170  0.60180  0.77870  Biso   1.000  H
  C574     1.0000 0.80730  0.64730  0.78858  Biso   1.000  C
  H220     1.0000 0.79870  0.64860  0.80940  Biso   1.000  H
  C575     1.0000 0.76980  0.58959  0.71843  Biso   1.000  C
  O77      1.0000 0.78046  0.58899  0.69155  Biso   1.000  O
  O78      1.0000 0.74184  0.56178  0.73288  Biso   1.000  O
  H221     1.0000 0.72380  0.55000  0.72030  Biso   1.000  H
  C576     1.0000 0.89653  0.72673  0.97087  Biso   1.000  C
  C577     1.0000 0.87681  0.70905  0.99127  Biso   1.000  C
  C578     1.0000 0.85491  0.68733  0.01557  Biso   1.000  C
  C579     1.0000 0.82268  0.65713  0.00987  Biso   1.000  C
  H222     1.0000 0.81410  0.65090  0.98960  Biso   1.000  H
  C580     1.0000 0.80219  0.63530  0.03322  Biso   1.000  C
  H223     1.0000 0.78000  0.61380  0.02900  Biso   1.000  H
  C581     1.0000 0.81393  0.64465  0.06253  Biso   1.000  C
  C582     1.0000 0.84580  0.67518  0.06856  Biso   1.000  C
  H224     1.0000 0.85380  0.68150  0.08890  Biso   1.000  H
  C583     1.0000 0.86648  0.69683  0.04549  Biso   1.000  C
  H225     1.0000 0.88870  0.71830  0.04980  Biso   1.000  H
  C584     1.0000 0.79164  0.61982  0.08783  Biso   1.000  C
  O79      1.0000 0.76614  0.58985  0.07925  Biso   1.000  O
  O80      1.0000 0.79928  0.62988  0.11455  Biso   1.000  O
  N53      1.0000 0.90862  0.84997  0.89113  Biso   1.000  N
  N54      1.0000 0.83647  0.90023  0.89292  Biso   1.000  N
  Zn26     1.0000 0.22109  0.06072  0.10410  Biso   1.000  Zn
  Zn27     1.0000 0.19589  0.98179  0.14896  Biso   1.000  Zn
  O81      1.0000 0.23477  0.03860  0.14343  Biso   1.000  O
  C585     1.0000 0.88840  0.85312  0.92219  Biso   1.000  C
  C586     1.0000 0.92030  0.88840  0.87340  Biso   1.000  C
  C587     1.0000 0.86970  0.83664  0.87115  Biso   1.000  C
  C588     1.0000 0.85160  0.89090  0.92354  Biso   1.000  C
  C589     1.0000 0.82010  0.86190  0.87581  Biso   1.000  C
  C590     1.0000 0.87740  0.91720  0.87440  Biso   1.000  C
  C591     1.0000 0.88310  0.92410  0.89680  Biso   1.000  C
  C592     1.0000 0.83010  0.87100  0.92000  Biso   1.000  C
  C593     1.0000 0.83770  0.88020  0.86430  Biso   1.000  C
  C594     1.0000 0.92730  0.89430  0.88900  Biso   1.000  C
  Zn28     1.0000 0.46932  0.30712  0.89067  Biso   1.000  Zn
  N55      1.0000 0.47896  0.30334  0.93689  Biso   1.000  N
  N56      1.0000 0.52444  0.34930  0.88918  Biso   1.000  N
  N57      1.0000 0.47414  0.30102  0.84414  Biso   1.000  N
  N58      1.0000 0.42937  0.25401  0.89174  Biso   1.000  N
  C595     1.0000 0.45273  0.27902  0.95618  Biso   1.000  C
  C596     1.0000 0.46413  0.29015  0.98691  Biso   1.000  C
  H226     1.0000 0.45140  0.27770  0.00460  Biso   1.000  H
  C597     1.0000 0.49535  0.32070  0.98614  Biso   1.000  C
  H227     1.0000 0.50880  0.33460  0.00310  Biso   1.000  H
  C598     1.0000 0.50510  0.32901  0.95469  Biso   1.000  C
  C599     1.0000 0.53631  0.36003  0.94390  Biso   1.000  C
  C600     1.0000 0.54571  0.36930  0.91340  Biso   1.000  C
  C601     1.0000 0.57726  0.40068  0.90304  Biso   1.000  C
  H228     1.0000 0.59630  0.41860  0.91510  Biso   1.000  H
  C602     1.0000 0.57470  0.39980  0.87225  Biso   1.000  C
  H229     1.0000 0.59180  0.41720  0.85870  Biso   1.000  H
  C603     1.0000 0.54215  0.36846  0.86411  Biso   1.000  C
  C604     1.0000 0.52910  0.35832  0.83429  Biso   1.000  C
  C605     1.0000 0.49821  0.32616  0.82517  Biso   1.000  C
  C606     1.0000 0.48739  0.31549  0.79452  Biso   1.000  C
  H230     1.0000 0.49970  0.32850  0.77690  Biso   1.000  H
  C607     1.0000 0.45669  0.28374  0.79517  Biso   1.000  C
  H231     1.0000 0.44370  0.26990  0.77810  Biso   1.000  H
  C608     1.0000 0.44706  0.27450  0.82653  Biso   1.000  C
  C609     1.0000 0.41628  0.24415  0.83734  Biso   1.000  C
  C610     1.0000 0.40712  0.23444  0.86801  Biso   1.000  C
  C611     1.0000 0.37457  0.20450  0.87866  Biso   1.000  C
  H232     1.0000 0.35530  0.18680  0.86650  Biso   1.000  H
  C612     1.0000 0.37556  0.20535  0.90903  Biso   1.000  C
  H233     1.0000 0.35730  0.18850  0.92230  Biso   1.000  H
  C613     1.0000 0.40903  0.23606  0.91745  Biso   1.000  C
  C614     1.0000 0.42065  0.24819  0.94719  Biso   1.000  C
  C615     1.0000 0.55946  0.38504  0.96615  Biso   1.000  C
  C616     1.0000 0.57786  0.40482  0.98530  Biso   1.000  C
  C617     1.0000 0.60038  0.42747  0.00940  Biso   1.000  C
  C618     1.0000 0.58962  0.41843  0.03967  Biso   1.000  C
  H234     1.0000 0.56610  0.39820  0.04450  Biso   1.000  H
  C619     1.0000 0.61341  0.43910  0.06236  Biso   1.000  C
  H235     1.0000 0.60710  0.43200  0.08280  Biso   1.000  H
  C620     1.0000 0.64574  0.46935  0.05626  Biso   1.000  C
  C621     1.0000 0.65558  0.47953  0.02633  Biso   1.000  C
  H236     1.0000 0.67780  0.50100  0.02210  Biso   1.000  H
  C622     1.0000 0.63413  0.45940  0.00307  Biso   1.000  C
  H237     1.0000 0.64150  0.46650  0.98270  Biso   1.000  H
  C623     1.0000 0.67186  0.49180  0.08123  Biso   1.000  C
  O82      1.0000 0.66542  0.47783  0.10771  Biso   1.000  O
  O83      1.0000 0.69823  0.52120  0.07437  Biso   1.000  O
  C624     1.0000 0.54902  0.38311  0.81065  Biso   1.000  C
  C625     1.0000 0.56436  0.40396  0.79099  Biso   1.000  C
  C626     1.0000 0.58521  0.42821  0.76739  Biso   1.000  C
  C627     1.0000 0.62020  0.45565  0.77318  Biso   1.000  C
  H238     1.0000 0.62960  0.46050  0.79350  Biso   1.000  H
  C628     1.0000 0.64270  0.47708  0.75009  Biso   1.000  C
  H239     1.0000 0.66800  0.49590  0.75450  Biso   1.000  H
  C629     1.0000 0.62780  0.47070  0.72022  Biso   1.000  C
  C630     1.0000 0.59050  0.44417  0.71466  Biso   1.000  C
  H240     1.0000 0.57950  0.44060  0.69450  Biso   1.000  H
  C631     1.0000 0.56868  0.42273  0.73743  Biso   1.000  C
  H241     1.0000 0.54280  0.40440  0.73320  Biso   1.000  H
  C632     1.0000 0.65403  0.49092  0.69435  Biso   1.000  C
  O84      1.0000 0.69415  0.50943  0.69917  Biso   1.000  O
  O85      1.0000 0.63657  0.48806  0.66858  Biso   1.000  O
  C633     1.0000 0.39006  0.21960  0.81510  Biso   1.000  C
  C634     1.0000 0.36795  0.19930  0.79755  Biso   1.000  C
  C635     1.0000 0.34286  0.17319  0.77751  Biso   1.000  C
  C636     1.0000 0.35380  0.17117  0.74781  Biso   1.000  C
  H242     1.0000 0.37850  0.18840  0.73990  Biso   1.000  H
  C637     1.0000 0.32970  0.14435  0.72844  Biso   1.000  C
  H243     1.0000 0.33790  0.14370  0.70760  Biso   1.000  H
  C638     1.0000 0.29480  0.11940  0.73914  Biso   1.000  C
  C639     1.0000 0.28470  0.12034  0.77037  Biso   1.000  C
  H244     1.0000 0.26170  0.10180  0.77870  Biso   1.000  H
  C640     1.0000 0.30730  0.14730  0.78858  Biso   1.000  C
  H245     1.0000 0.29870  0.14860  0.80940  Biso   1.000  H
  C641     1.0000 0.26980  0.08959  0.71843  Biso   1.000  C
  O86      1.0000 0.28046  0.08899  0.69155  Biso   1.000  O
  O87      1.0000 0.24184  0.06178  0.73288  Biso   1.000  O
  H246     1.0000 0.22380  0.05000  0.72030  Biso   1.000  H
  C642     1.0000 0.39653  0.22673  0.97087  Biso   1.000  C
  C643     1.0000 0.37681  0.20905  0.99127  Biso   1.000  C
  C644     1.0000 0.35491  0.18733  0.01557  Biso   1.000  C
  C645     1.0000 0.32268  0.15713  0.00987  Biso   1.000  C
  H247     1.0000 0.31410  0.15090  0.98960  Biso   1.000  H
  C646     1.0000 0.30219  0.13530  0.03322  Biso   1.000  C
  H248     1.0000 0.28000  0.11380  0.02900  Biso   1.000  H
  C647     1.0000 0.31393  0.14465  0.06253  Biso   1.000  C
  C648     1.0000 0.34580  0.17518  0.06856  Biso   1.000  C
  H249     1.0000 0.35380  0.18150  0.08890  Biso   1.000  H
  C649     1.0000 0.36648  0.19683  0.04549  Biso   1.000  C
  H250     1.0000 0.38870  0.21830  0.04980  Biso   1.000  H
  C650     1.0000 0.29164  0.11982  0.08783  Biso   1.000  C
  O88      1.0000 0.26614  0.08985  0.07925  Biso   1.000  O
  O89      1.0000 0.29928  0.12988  0.11455  Biso   1.000  O
  N59      1.0000 0.40862  0.34997  0.89113  Biso   1.000  N
  N60      1.0000 0.33647  0.40023  0.89292  Biso   1.000  N
  Zn29     1.0000 0.72109  0.56072  0.10410  Biso   1.000  Zn
  Zn30     1.0000 0.69589  0.48179  0.14896  Biso   1.000  Zn
  O90      1.0000 0.73477  0.53860  0.14343  Biso   1.000  O
  C651     1.0000 0.38840  0.35312  0.92219  Biso   1.000  C
  C652     1.0000 0.42030  0.38840  0.87340  Biso   1.000  C
  C653     1.0000 0.36970  0.33664  0.87115  Biso   1.000  C
  C654     1.0000 0.35160  0.39090  0.92354  Biso   1.000  C
  C655     1.0000 0.32010  0.36190  0.87581  Biso   1.000  C
  C656     1.0000 0.37740  0.41720  0.87440  Biso   1.000  C
  C657     1.0000 0.38310  0.42410  0.89680  Biso   1.000  C
  C658     1.0000 0.33010  0.37100  0.92000  Biso   1.000  C
  C659     1.0000 0.33770  0.38020  0.86430  Biso   1.000  C
  C660     1.0000 0.42730  0.39430  0.88900  Biso   1.000  C
  Zn31     1.0000 0.53068  0.19288  0.89067  Biso   1.000  Zn
  N61      1.0000 0.52104  0.19666  0.93689  Biso   1.000  N
  N62      1.0000 0.47556  0.15070  0.88918  Biso   1.000  N
  N63      1.0000 0.52586  0.19898  0.84414  Biso   1.000  N
  N64      1.0000 0.57063  0.24599  0.89174  Biso   1.000  N
  C661     1.0000 0.54727  0.22098  0.95618  Biso   1.000  C
  C662     1.0000 0.53587  0.20985  0.98691  Biso   1.000  C
  H251     1.0000 0.54860  0.22230  0.00460  Biso   1.000  H
  C663     1.0000 0.50465  0.17930  0.98614  Biso   1.000  C
  H252     1.0000 0.49120  0.16540  0.00310  Biso   1.000  H
  C664     1.0000 0.49490  0.17099  0.95469  Biso   1.000  C
  C665     1.0000 0.46369  0.13997  0.94390  Biso   1.000  C
  C666     1.0000 0.45429  0.13070  0.91340  Biso   1.000  C
  C667     1.0000 0.42274  0.09932  0.90304  Biso   1.000  C
  H253     1.0000 0.40370  0.08140  0.91510  Biso   1.000  H
  C668     1.0000 0.42530  0.10020  0.87225  Biso   1.000  C
  H254     1.0000 0.40820  0.08280  0.85870  Biso   1.000  H
  C669     1.0000 0.45785  0.13154  0.86411  Biso   1.000  C
  C670     1.0000 0.47090  0.14168  0.83429  Biso   1.000  C
  C671     1.0000 0.50179  0.17384  0.82517  Biso   1.000  C
  C672     1.0000 0.51261  0.18451  0.79452  Biso   1.000  C
  H255     1.0000 0.50030  0.17150  0.77690  Biso   1.000  H
  C673     1.0000 0.54331  0.21626  0.79517  Biso   1.000  C
  H256     1.0000 0.55630  0.23010  0.77810  Biso   1.000  H
  C674     1.0000 0.55294  0.22550  0.82653  Biso   1.000  C
  C675     1.0000 0.58372  0.25585  0.83734  Biso   1.000  C
  C676     1.0000 0.59288  0.26556  0.86801  Biso   1.000  C
  C677     1.0000 0.62543  0.29550  0.87866  Biso   1.000  C
  H257     1.0000 0.64470  0.31320  0.86650  Biso   1.000  H
  C678     1.0000 0.62444  0.29465  0.90903  Biso   1.000  C
  H258     1.0000 0.64270  0.31150  0.92230  Biso   1.000  H
  C679     1.0000 0.59097  0.26394  0.91745  Biso   1.000  C
  C680     1.0000 0.57935  0.25181  0.94719  Biso   1.000  C
  C681     1.0000 0.44054  0.11496  0.96615  Biso   1.000  C
  C682     1.0000 0.42214  0.09518  0.98530  Biso   1.000  C
  C683     1.0000 0.39962  0.07253  0.00940  Biso   1.000  C
  C684     1.0000 0.41038  0.08157  0.03967  Biso   1.000  C
  H259     1.0000 0.43390  0.10180  0.04450  Biso   1.000  H
  C685     1.0000 0.38659  0.06090  0.06236  Biso   1.000  C
  H260     1.0000 0.39290  0.06800  0.08280  Biso   1.000  H
  C686     1.0000 0.35426  0.03065  0.05626  Biso   1.000  C
  C687     1.0000 0.34442  0.02047  0.02633  Biso   1.000  C
  H261     1.0000 0.32220  0.99900  0.02210  Biso   1.000  H
  C688     1.0000 0.36587  0.04060  0.00307  Biso   1.000  C
  H262     1.0000 0.35850  0.03350  0.98270  Biso   1.000  H
  C689     1.0000 0.32814  0.00820  0.08123  Biso   1.000  C
  O91      1.0000 0.33458  0.02217  0.10771  Biso   1.000  O
  O92      1.0000 0.30177  0.97880  0.07437  Biso   1.000  O
  C690     1.0000 0.45098  0.11689  0.81065  Biso   1.000  C
  C691     1.0000 0.43564  0.09604  0.79099  Biso   1.000  C
  C692     1.0000 0.41479  0.07179  0.76739  Biso   1.000  C
  C693     1.0000 0.37980  0.04435  0.77318  Biso   1.000  C
  H263     1.0000 0.37040  0.03950  0.79350  Biso   1.000  H
  C694     1.0000 0.35730  0.02292  0.75009  Biso   1.000  C
  H264     1.0000 0.33200  0.00410  0.75450  Biso   1.000  H
  C695     1.0000 0.37220  0.02930  0.72022  Biso   1.000  C
  C696     1.0000 0.40950  0.05583  0.71466  Biso   1.000  C
  H265     1.0000 0.42050  0.05940  0.69450  Biso   1.000  H
  C697     1.0000 0.43132  0.07727  0.73743  Biso   1.000  C
  H266     1.0000 0.45720  0.09560  0.73320  Biso   1.000  H
  C698     1.0000 0.34597  0.00908  0.69435  Biso   1.000  C
  O93      1.0000 0.30585  0.99057  0.69917  Biso   1.000  O
  O94      1.0000 0.36343  0.01194  0.66858  Biso   1.000  O
  C699     1.0000 0.60994  0.28040  0.81510  Biso   1.000  C
  C700     1.0000 0.63205  0.30070  0.79755  Biso   1.000  C
  C701     1.0000 0.65714  0.32681  0.77751  Biso   1.000  C
  C702     1.0000 0.64620  0.32883  0.74781  Biso   1.000  C
  H267     1.0000 0.62150  0.31160  0.73990  Biso   1.000  H
  C703     1.0000 0.67030  0.35565  0.72844  Biso   1.000  C
  H268     1.0000 0.66210  0.35630  0.70760  Biso   1.000  H
  C704     1.0000 0.70520  0.38060  0.73914  Biso   1.000  C
  C705     1.0000 0.71530  0.37966  0.77037  Biso   1.000  C
  H269     1.0000 0.73830  0.39820  0.77870  Biso   1.000  H
  C706     1.0000 0.69270  0.35270  0.78858  Biso   1.000  C
  H270     1.0000 0.70130  0.35140  0.80940  Biso   1.000  H
  C707     1.0000 0.73020  0.41041  0.71843  Biso   1.000  C
  O95      1.0000 0.71954  0.41101  0.69155  Biso   1.000  O
  O96      1.0000 0.75816  0.43822  0.73288  Biso   1.000  O
  H271     1.0000 0.77620  0.45000  0.72030  Biso   1.000  H
  C708     1.0000 0.60347  0.27327  0.97087  Biso   1.000  C
  C709     1.0000 0.62319  0.29095  0.99127  Biso   1.000  C
  C710     1.0000 0.64509  0.31267  0.01557  Biso   1.000  C
  C711     1.0000 0.67732  0.34287  0.00987  Biso   1.000  C
  H272     1.0000 0.68590  0.34910  0.98960  Biso   1.000  H
  C712     1.0000 0.69781  0.36470  0.03322  Biso   1.000  C
  H273     1.0000 0.72000  0.38620  0.02900  Biso   1.000  H
  C713     1.0000 0.68607  0.35535  0.06253  Biso   1.000  C
  C714     1.0000 0.65420  0.32482  0.06856  Biso   1.000  C
  H274     1.0000 0.64620  0.31850  0.08890  Biso   1.000  H
  C715     1.0000 0.63352  0.30317  0.04549  Biso   1.000  C
  H275     1.0000 0.61130  0.28170  0.04980  Biso   1.000  H
  C716     1.0000 0.70836  0.38018  0.08783  Biso   1.000  C
  O97      1.0000 0.73386  0.41015  0.07925  Biso   1.000  O
  O98      1.0000 0.70072  0.37012  0.11455  Biso   1.000  O
  N65      1.0000 0.59138  0.15003  0.89113  Biso   1.000  N
  N66      1.0000 0.66353  0.09977  0.89292  Biso   1.000  N
  Zn32     1.0000 0.27891  0.93928  0.10410  Biso   1.000  Zn
  Zn33     1.0000 0.30411  0.01821  0.14896  Biso   1.000  Zn
  O99      1.0000 0.26523  0.96140  0.14343  Biso   1.000  O
  C717     1.0000 0.61160  0.14688  0.92219  Biso   1.000  C
  C718     1.0000 0.57970  0.11160  0.87340  Biso   1.000  C
  C719     1.0000 0.63030  0.16336  0.87115  Biso   1.000  C
  C720     1.0000 0.64840  0.10910  0.92354  Biso   1.000  C
  C721     1.0000 0.67990  0.13810  0.87581  Biso   1.000  C
  C722     1.0000 0.62260  0.08280  0.87440  Biso   1.000  C
  C723     1.0000 0.61690  0.07590  0.89680  Biso   1.000  C
  C724     1.0000 0.66990  0.12900  0.92000  Biso   1.000  C
  C725     1.0000 0.66230  0.11980  0.86430  Biso   1.000  C
  C726     1.0000 0.57270  0.10570  0.88900  Biso   1.000  C
  Zn34     1.0000 0.03068  0.69288  0.89067  Biso   1.000  Zn
  N67      1.0000 0.02104  0.69666  0.93689  Biso   1.000  N
  N68      1.0000 0.97556  0.65070  0.88918  Biso   1.000  N
  N69      1.0000 0.02586  0.69898  0.84414  Biso   1.000  N
  N70      1.0000 0.07063  0.74599  0.89174  Biso   1.000  N
  C727     1.0000 0.04727  0.72098  0.95618  Biso   1.000  C
  C728     1.0000 0.03587  0.70985  0.98691  Biso   1.000  C
  H276     1.0000 0.04860  0.72230  0.00460  Biso   1.000  H
  C729     1.0000 0.00465  0.67930  0.98614  Biso   1.000  C
  H277     1.0000 0.99120  0.66540  0.00310  Biso   1.000  H
  C730     1.0000 0.99490  0.67099  0.95469  Biso   1.000  C
  C731     1.0000 0.96369  0.63997  0.94390  Biso   1.000  C
  C732     1.0000 0.95429  0.63070  0.91340  Biso   1.000  C
  C733     1.0000 0.92274  0.59932  0.90304  Biso   1.000  C
  H278     1.0000 0.90370  0.58140  0.91510  Biso   1.000  H
  C734     1.0000 0.92530  0.60020  0.87225  Biso   1.000  C
  H279     1.0000 0.90820  0.58280  0.85870  Biso   1.000  H
  C735     1.0000 0.95785  0.63154  0.86411  Biso   1.000  C
  C736     1.0000 0.97090  0.64168  0.83429  Biso   1.000  C
  C737     1.0000 0.00179  0.67384  0.82517  Biso   1.000  C
  C738     1.0000 0.01261  0.68451  0.79452  Biso   1.000  C
  H280     1.0000 0.00030  0.67150  0.77690  Biso   1.000  H
  C739     1.0000 0.04331  0.71626  0.79517  Biso   1.000  C
  H281     1.0000 0.05630  0.73010  0.77810  Biso   1.000  H
  C740     1.0000 0.05294  0.72550  0.82653  Biso   1.000  C
  C741     1.0000 0.08372  0.75585  0.83734  Biso   1.000  C
  C742     1.0000 0.09288  0.76556  0.86801  Biso   1.000  C
  C743     1.0000 0.12543  0.79550  0.87866  Biso   1.000  C
  H282     1.0000 0.14470  0.81320  0.86650  Biso   1.000  H
  C744     1.0000 0.12444  0.79465  0.90903  Biso   1.000  C
  H283     1.0000 0.14270  0.81150  0.92230  Biso   1.000  H
  C745     1.0000 0.09097  0.76394  0.91745  Biso   1.000  C
  C746     1.0000 0.07935  0.75181  0.94719  Biso   1.000  C
  C747     1.0000 0.94054  0.61496  0.96615  Biso   1.000  C
  C748     1.0000 0.92214  0.59518  0.98530  Biso   1.000  C
  C749     1.0000 0.89962  0.57253  0.00940  Biso   1.000  C
  C750     1.0000 0.91038  0.58157  0.03967  Biso   1.000  C
  H284     1.0000 0.93390  0.60180  0.04450  Biso   1.000  H
  C751     1.0000 0.88659  0.56090  0.06236  Biso   1.000  C
  H285     1.0000 0.89290  0.56800  0.08280  Biso   1.000  H
  C752     1.0000 0.85426  0.53065  0.05626  Biso   1.000  C
  C753     1.0000 0.84442  0.52047  0.02633  Biso   1.000  C
  H286     1.0000 0.82220  0.49900  0.02210  Biso   1.000  H
  C754     1.0000 0.86587  0.54060  0.00307  Biso   1.000  C
  H287     1.0000 0.85850  0.53350  0.98270  Biso   1.000  H
  C755     1.0000 0.82814  0.50820  0.08123  Biso   1.000  C
  O100     1.0000 0.83458  0.52217  0.10771  Biso   1.000  O
  O101     1.0000 0.80177  0.47880  0.07437  Biso   1.000  O
  C756     1.0000 0.95098  0.61689  0.81065  Biso   1.000  C
  C757     1.0000 0.93564  0.59604  0.79099  Biso   1.000  C
  C758     1.0000 0.91479  0.57179  0.76739  Biso   1.000  C
  C759     1.0000 0.87980  0.54435  0.77318  Biso   1.000  C
  H288     1.0000 0.87040  0.53950  0.79350  Biso   1.000  H
  C760     1.0000 0.85730  0.52292  0.75009  Biso   1.000  C
  H289     1.0000 0.83200  0.50410  0.75450  Biso   1.000  H
  C761     1.0000 0.87220  0.52930  0.72022  Biso   1.000  C
  C762     1.0000 0.90950  0.55583  0.71466  Biso   1.000  C
  H290     1.0000 0.92050  0.55940  0.69450  Biso   1.000  H
  C763     1.0000 0.93132  0.57727  0.73743  Biso   1.000  C
  H291     1.0000 0.95720  0.59560  0.73320  Biso   1.000  H
  C764     1.0000 0.84597  0.50908  0.69435  Biso   1.000  C
  O102     1.0000 0.80585  0.49057  0.69917  Biso   1.000  O
  O103     1.0000 0.86343  0.51194  0.66858  Biso   1.000  O
  C765     1.0000 0.10994  0.78040  0.81510  Biso   1.000  C
  C766     1.0000 0.13205  0.80070  0.79755  Biso   1.000  C
  C767     1.0000 0.15714  0.82681  0.77751  Biso   1.000  C
  C768     1.0000 0.14620  0.82883  0.74781  Biso   1.000  C
  H292     1.0000 0.12150  0.81160  0.73990  Biso   1.000  H
  C769     1.0000 0.17030  0.85565  0.72844  Biso   1.000  C
  H293     1.0000 0.16210  0.85630  0.70760  Biso   1.000  H
  C770     1.0000 0.20520  0.88060  0.73914  Biso   1.000  C
  C771     1.0000 0.21530  0.87966  0.77037  Biso   1.000  C
  H294     1.0000 0.23830  0.89820  0.77870  Biso   1.000  H
  C772     1.0000 0.19270  0.85270  0.78858  Biso   1.000  C
  H295     1.0000 0.20130  0.85140  0.80940  Biso   1.000  H
  C773     1.0000 0.23020  0.91041  0.71843  Biso   1.000  C
  O104     1.0000 0.21954  0.91101  0.69155  Biso   1.000  O
  O105     1.0000 0.25816  0.93822  0.73288  Biso   1.000  O
  H296     1.0000 0.27620  0.95000  0.72030  Biso   1.000  H
  C774     1.0000 0.10347  0.77327  0.97087  Biso   1.000  C
  C775     1.0000 0.12319  0.79095  0.99127  Biso   1.000  C
  C776     1.0000 0.14509  0.81267  0.01557  Biso   1.000  C
  C777     1.0000 0.17732  0.84287  0.00987  Biso   1.000  C
  H297     1.0000 0.18590  0.84910  0.98960  Biso   1.000  H
  C778     1.0000 0.19781  0.86470  0.03322  Biso   1.000  C
  H298     1.0000 0.22000  0.88620  0.02900  Biso   1.000  H
  C779     1.0000 0.18607  0.85535  0.06253  Biso   1.000  C
  C780     1.0000 0.15420  0.82482  0.06856  Biso   1.000  C
  H299     1.0000 0.14620  0.81850  0.08890  Biso   1.000  H
  C781     1.0000 0.13352  0.80317  0.04549  Biso   1.000  C
  H300     1.0000 0.11130  0.78170  0.04980  Biso   1.000  H
  C782     1.0000 0.20836  0.88018  0.08783  Biso   1.000  C
  O106     1.0000 0.23386  0.91015  0.07925  Biso   1.000  O
  O107     1.0000 0.20072  0.87012  0.11455  Biso   1.000  O
  N71      1.0000 0.09138  0.65003  0.89113  Biso   1.000  N
  N72      1.0000 0.16353  0.59977  0.89292  Biso   1.000  N
  Zn35     1.0000 0.77891  0.43928  0.10410  Biso   1.000  Zn
  Zn36     1.0000 0.80411  0.51821  0.14896  Biso   1.000  Zn
  O108     1.0000 0.76523  0.46140  0.14343  Biso   1.000  O
  C783     1.0000 0.11160  0.64688  0.92219  Biso   1.000  C
  C784     1.0000 0.07970  0.61160  0.87340  Biso   1.000  C
  C785     1.0000 0.13030  0.66336  0.87115  Biso   1.000  C
  C786     1.0000 0.14840  0.60910  0.92354  Biso   1.000  C
  C787     1.0000 0.17990  0.63810  0.87581  Biso   1.000  C
  C788     1.0000 0.12260  0.58280  0.87440  Biso   1.000  C
  C789     1.0000 0.11690  0.57590  0.89680  Biso   1.000  C
  C790     1.0000 0.16990  0.62900  0.92000  Biso   1.000  C
  C791     1.0000 0.16230  0.61980  0.86430  Biso   1.000  C
  C792     1.0000 0.07270  0.60570  0.88900  Biso   1.000  C
  Zn37     1.0000 0.03068  0.80712  0.60933  Biso   1.000  Zn
  N73      1.0000 0.02104  0.80334  0.56311  Biso   1.000  N
  N74      1.0000 0.97556  0.84930  0.61082  Biso   1.000  N
  N75      1.0000 0.02586  0.80102  0.65586  Biso   1.000  N
  N76      1.0000 0.07063  0.75401  0.60826  Biso   1.000  N
  C793     1.0000 0.04727  0.77902  0.54382  Biso   1.000  C
  C794     1.0000 0.03587  0.79015  0.51309  Biso   1.000  C
  H301     1.0000 0.04860  0.77770  0.49540  Biso   1.000  H
  C795     1.0000 0.00465  0.82070  0.51386  Biso   1.000  C
  H302     1.0000 0.99120  0.83460  0.49690  Biso   1.000  H
  C796     1.0000 0.99490  0.82901  0.54531  Biso   1.000  C
  C797     1.0000 0.96369  0.86003  0.55610  Biso   1.000  C
  C798     1.0000 0.95429  0.86930  0.58660  Biso   1.000  C
  C799     1.0000 0.92274  0.90068  0.59696  Biso   1.000  C
  H303     1.0000 0.90370  0.91860  0.58490  Biso   1.000  H
  C800     1.0000 0.92530  0.89980  0.62775  Biso   1.000  C
  H304     1.0000 0.90820  0.91720  0.64130  Biso   1.000  H
  C801     1.0000 0.95785  0.86846  0.63589  Biso   1.000  C
  C802     1.0000 0.97090  0.85832  0.66571  Biso   1.000  C
  C803     1.0000 0.00179  0.82616  0.67483  Biso   1.000  C
  C804     1.0000 0.01261  0.81549  0.70548  Biso   1.000  C
  H305     1.0000 0.00030  0.82850  0.72310  Biso   1.000  H
  C805     1.0000 0.04331  0.78374  0.70483  Biso   1.000  C
  H306     1.0000 0.05630  0.76990  0.72190  Biso   1.000  H
  C806     1.0000 0.05294  0.77450  0.67347  Biso   1.000  C
  C807     1.0000 0.08372  0.74415  0.66266  Biso   1.000  C
  C808     1.0000 0.09288  0.73444  0.63199  Biso   1.000  C
  C809     1.0000 0.12543  0.70450  0.62134  Biso   1.000  C
  H307     1.0000 0.14470  0.68680  0.63350  Biso   1.000  H
  C810     1.0000 0.12444  0.70535  0.59097  Biso   1.000  C
  H308     1.0000 0.14270  0.68850  0.57770  Biso   1.000  H
  C811     1.0000 0.09097  0.73606  0.58255  Biso   1.000  C
  C812     1.0000 0.07935  0.74819  0.55281  Biso   1.000  C
  C813     1.0000 0.94054  0.88504  0.53385  Biso   1.000  C
  C814     1.0000 0.92214  0.90482  0.51470  Biso   1.000  C
  C815     1.0000 0.89962  0.92747  0.49060  Biso   1.000  C
  C816     1.0000 0.91038  0.91843  0.46033  Biso   1.000  C
  H309     1.0000 0.93390  0.89820  0.45550  Biso   1.000  H
  C817     1.0000 0.88659  0.93910  0.43764  Biso   1.000  C
  H310     1.0000 0.89290  0.93200  0.41720  Biso   1.000  H
  C818     1.0000 0.85426  0.96935  0.44374  Biso   1.000  C
  C819     1.0000 0.84442  0.97953  0.47367  Biso   1.000  C
  H311     1.0000 0.82220  0.00100  0.47790  Biso   1.000  H
  C820     1.0000 0.86587  0.95940  0.49693  Biso   1.000  C
  H312     1.0000 0.85850  0.96650  0.51730  Biso   1.000  H
  C821     1.0000 0.82814  0.99180  0.41877  Biso   1.000  C
  O109     1.0000 0.83458  0.97783  0.39229  Biso   1.000  O
  O110     1.0000 0.80177  0.02120  0.42563  Biso   1.000  O
  C822     1.0000 0.95098  0.88311  0.68935  Biso   1.000  C
  C823     1.0000 0.93564  0.90396  0.70901  Biso   1.000  C
  C824     1.0000 0.91479  0.92821  0.73261  Biso   1.000  C
  C825     1.0000 0.87980  0.95565  0.72682  Biso   1.000  C
  H313     1.0000 0.87040  0.96050  0.70650  Biso   1.000  H
  C826     1.0000 0.85730  0.97708  0.74991  Biso   1.000  C
  H314     1.0000 0.83200  0.99590  0.74550  Biso   1.000  H
  C827     1.0000 0.87220  0.97070  0.77978  Biso   1.000  C
  C828     1.0000 0.90950  0.94417  0.78534  Biso   1.000  C
  H315     1.0000 0.92050  0.94060  0.80550  Biso   1.000  H
  C829     1.0000 0.93132  0.92273  0.76257  Biso   1.000  C
  H316     1.0000 0.95720  0.90440  0.76680  Biso   1.000  H
  C830     1.0000 0.84597  0.99092  0.80565  Biso   1.000  C
  O111     1.0000 0.80585  0.00943  0.80083  Biso   1.000  O
  O112     1.0000 0.86343  0.98806  0.83142  Biso   1.000  O
  C831     1.0000 0.10994  0.71960  0.68490  Biso   1.000  C
  C832     1.0000 0.13205  0.69930  0.70245  Biso   1.000  C
  C833     1.0000 0.15714  0.67319  0.72249  Biso   1.000  C
  C834     1.0000 0.14620  0.67117  0.75219  Biso   1.000  C
  H317     1.0000 0.12150  0.68840  0.76010  Biso   1.000  H
  C835     1.0000 0.17030  0.64435  0.77156  Biso   1.000  C
  H318     1.0000 0.16210  0.64370  0.79240  Biso   1.000  H
  C836     1.0000 0.20520  0.61940  0.76086  Biso   1.000  C
  C837     1.0000 0.21530  0.62034  0.72963  Biso   1.000  C
  H319     1.0000 0.23830  0.60180  0.72130  Biso   1.000  H
  C838     1.0000 0.19270  0.64730  0.71142  Biso   1.000  C
  H320     1.0000 0.20130  0.64860  0.69060  Biso   1.000  H
  C839     1.0000 0.23020  0.58959  0.78157  Biso   1.000  C
  O113     1.0000 0.21954  0.58899  0.80845  Biso   1.000  O
  O114     1.0000 0.25816  0.56178  0.76712  Biso   1.000  O
  H321     1.0000 0.27620  0.55000  0.77970  Biso   1.000  H
  C840     1.0000 0.10347  0.72673  0.52913  Biso   1.000  C
  C841     1.0000 0.12319  0.70905  0.50873  Biso   1.000  C
  C842     1.0000 0.14509  0.68733  0.48443  Biso   1.000  C
  C843     1.0000 0.17732  0.65713  0.49013  Biso   1.000  C
  H322     1.0000 0.18590  0.65090  0.51040  Biso   1.000  H
  C844     1.0000 0.19781  0.63530  0.46678  Biso   1.000  C
  H323     1.0000 0.22000  0.61380  0.47100  Biso   1.000  H
  C845     1.0000 0.18607  0.64465  0.43747  Biso   1.000  C
  C846     1.0000 0.15420  0.67518  0.43144  Biso   1.000  C
  H324     1.0000 0.14620  0.68150  0.41110  Biso   1.000  H
  C847     1.0000 0.13352  0.69683  0.45451  Biso   1.000  C
  H325     1.0000 0.11130  0.71830  0.45020  Biso   1.000  H
  C848     1.0000 0.20836  0.61982  0.41217  Biso   1.000  C
  O115     1.0000 0.23386  0.58985  0.42075  Biso   1.000  O
  O116     1.0000 0.20072  0.62988  0.38545  Biso   1.000  O
  N77      1.0000 0.09138  0.84997  0.60887  Biso   1.000  N
  N78      1.0000 0.16353  0.90023  0.60708  Biso   1.000  N
  Zn38     1.0000 0.77891  0.06072  0.39590  Biso   1.000  Zn
  Zn39     1.0000 0.80411  0.98179  0.35104  Biso   1.000  Zn
  O117     1.0000 0.76523  0.03860  0.35657  Biso   1.000  O
  C849     1.0000 0.11160  0.85312  0.57781  Biso   1.000  C
  C850     1.0000 0.07970  0.88840  0.62660  Biso   1.000  C
  C851     1.0000 0.13030  0.83664  0.62885  Biso   1.000  C
  C852     1.0000 0.14840  0.89090  0.57646  Biso   1.000  C
  C853     1.0000 0.17990  0.86190  0.62419  Biso   1.000  C
  C854     1.0000 0.12260  0.91720  0.62560  Biso   1.000  C
  C855     1.0000 0.11690  0.92410  0.60320  Biso   1.000  C
  C856     1.0000 0.16990  0.87100  0.58000  Biso   1.000  C
  C857     1.0000 0.16230  0.88020  0.63570  Biso   1.000  C
  C858     1.0000 0.07270  0.89430  0.61100  Biso   1.000  C
  Zn40     1.0000 0.53068  0.30712  0.60933  Biso   1.000  Zn
  N79      1.0000 0.52104  0.30334  0.56311  Biso   1.000  N
  N80      1.0000 0.47556  0.34930  0.61082  Biso   1.000  N
  N81      1.0000 0.52586  0.30102  0.65586  Biso   1.000  N
  N82      1.0000 0.57063  0.25401  0.60826  Biso   1.000  N
  C859     1.0000 0.54727  0.27902  0.54382  Biso   1.000  C
  C860     1.0000 0.53587  0.29015  0.51309  Biso   1.000  C
  H326     1.0000 0.54860  0.27770  0.49540  Biso   1.000  H
  C861     1.0000 0.50465  0.32070  0.51386  Biso   1.000  C
  H327     1.0000 0.49120  0.33460  0.49690  Biso   1.000  H
  C862     1.0000 0.49490  0.32901  0.54531  Biso   1.000  C
  C863     1.0000 0.46369  0.36003  0.55610  Biso   1.000  C
  C864     1.0000 0.45429  0.36930  0.58660  Biso   1.000  C
  C865     1.0000 0.42274  0.40068  0.59696  Biso   1.000  C
  H328     1.0000 0.40370  0.41860  0.58490  Biso   1.000  H
  C866     1.0000 0.42530  0.39980  0.62775  Biso   1.000  C
  H329     1.0000 0.40820  0.41720  0.64130  Biso   1.000  H
  C867     1.0000 0.45785  0.36846  0.63589  Biso   1.000  C
  C868     1.0000 0.47090  0.35832  0.66571  Biso   1.000  C
  C869     1.0000 0.50179  0.32616  0.67483  Biso   1.000  C
  C870     1.0000 0.51261  0.31549  0.70548  Biso   1.000  C
  H330     1.0000 0.50030  0.32850  0.72310  Biso   1.000  H
  C871     1.0000 0.54331  0.28374  0.70483  Biso   1.000  C
  H331     1.0000 0.55630  0.26990  0.72190  Biso   1.000  H
  C872     1.0000 0.55294  0.27450  0.67347  Biso   1.000  C
  C873     1.0000 0.58372  0.24415  0.66266  Biso   1.000  C
  C874     1.0000 0.59288  0.23444  0.63199  Biso   1.000  C
  C875     1.0000 0.62543  0.20450  0.62134  Biso   1.000  C
  H332     1.0000 0.64470  0.18680  0.63350  Biso   1.000  H
  C876     1.0000 0.62444  0.20535  0.59097  Biso   1.000  C
  H333     1.0000 0.64270  0.18850  0.57770  Biso   1.000  H
  C877     1.0000 0.59097  0.23606  0.58255  Biso   1.000  C
  C878     1.0000 0.57935  0.24819  0.55281  Biso   1.000  C
  C879     1.0000 0.44054  0.38504  0.53385  Biso   1.000  C
  C880     1.0000 0.42214  0.40482  0.51470  Biso   1.000  C
  C881     1.0000 0.39962  0.42747  0.49060  Biso   1.000  C
  C882     1.0000 0.41038  0.41843  0.46033  Biso   1.000  C
  H334     1.0000 0.43390  0.39820  0.45550  Biso   1.000  H
  C883     1.0000 0.38659  0.43910  0.43764  Biso   1.000  C
  H335     1.0000 0.39290  0.43200  0.41720  Biso   1.000  H
  C884     1.0000 0.35426  0.46935  0.44374  Biso   1.000  C
  C885     1.0000 0.34442  0.47953  0.47367  Biso   1.000  C
  H336     1.0000 0.32220  0.50100  0.47790  Biso   1.000  H
  C886     1.0000 0.36587  0.45940  0.49693  Biso   1.000  C
  H337     1.0000 0.35850  0.46650  0.51730  Biso   1.000  H
  C887     1.0000 0.32814  0.49180  0.41877  Biso   1.000  C
  O118     1.0000 0.33458  0.47783  0.39229  Biso   1.000  O
  O119     1.0000 0.30177  0.52120  0.42563  Biso   1.000  O
  C888     1.0000 0.45098  0.38311  0.68935  Biso   1.000  C
  C889     1.0000 0.43564  0.40396  0.70901  Biso   1.000  C
  C890     1.0000 0.41479  0.42821  0.73261  Biso   1.000  C
  C891     1.0000 0.37980  0.45565  0.72682  Biso   1.000  C
  H338     1.0000 0.37040  0.46050  0.70650  Biso   1.000  H
  C892     1.0000 0.35730  0.47708  0.74991  Biso   1.000  C
  H339     1.0000 0.33200  0.49590  0.74550  Biso   1.000  H
  C893     1.0000 0.37220  0.47070  0.77978  Biso   1.000  C
  C894     1.0000 0.40950  0.44417  0.78534  Biso   1.000  C
  H340     1.0000 0.42050  0.44060  0.80550  Biso   1.000  H
  C895     1.0000 0.43132  0.42273  0.76257  Biso   1.000  C
  H341     1.0000 0.45720  0.40440  0.76680  Biso   1.000  H
  C896     1.0000 0.34597  0.49092  0.80565  Biso   1.000  C
  O120     1.0000 0.30585  0.50943  0.80083  Biso   1.000  O
  O121     1.0000 0.36343  0.48806  0.83142  Biso   1.000  O
  C897     1.0000 0.60994  0.21960  0.68490  Biso   1.000  C
  C898     1.0000 0.63205  0.19930  0.70245  Biso   1.000  C
  C899     1.0000 0.65714  0.17319  0.72249  Biso   1.000  C
  C900     1.0000 0.64620  0.17117  0.75219  Biso   1.000  C
  H342     1.0000 0.62150  0.18840  0.76010  Biso   1.000  H
  C901     1.0000 0.67030  0.14435  0.77156  Biso   1.000  C
  H343     1.0000 0.66210  0.14370  0.79240  Biso   1.000  H
  C902     1.0000 0.70520  0.11940  0.76086  Biso   1.000  C
  C903     1.0000 0.71530  0.12034  0.72963  Biso   1.000  C
  H344     1.0000 0.73830  0.10180  0.72130  Biso   1.000  H
  C904     1.0000 0.69270  0.14730  0.71142  Biso   1.000  C
  H345     1.0000 0.70130  0.14860  0.69060  Biso   1.000  H
  C905     1.0000 0.73020  0.08959  0.78157  Biso   1.000  C
  O122     1.0000 0.71954  0.08899  0.80845  Biso   1.000  O
  O123     1.0000 0.75816  0.06178  0.76712  Biso   1.000  O
  H346     1.0000 0.77620  0.05000  0.77970  Biso   1.000  H
  C906     1.0000 0.60347  0.22673  0.52913  Biso   1.000  C
  C907     1.0000 0.62319  0.20905  0.50873  Biso   1.000  C
  C908     1.0000 0.64509  0.18733  0.48443  Biso   1.000  C
  C909     1.0000 0.67732  0.15713  0.49013  Biso   1.000  C
  H347     1.0000 0.68590  0.15090  0.51040  Biso   1.000  H
  C910     1.0000 0.69781  0.13530  0.46678  Biso   1.000  C
  H348     1.0000 0.72000  0.11380  0.47100  Biso   1.000  H
  C911     1.0000 0.68607  0.14465  0.43747  Biso   1.000  C
  C912     1.0000 0.65420  0.17518  0.43144  Biso   1.000  C
  H349     1.0000 0.64620  0.18150  0.41110  Biso   1.000  H
  C913     1.0000 0.63352  0.19683  0.45451  Biso   1.000  C
  H350     1.0000 0.61130  0.21830  0.45020  Biso   1.000  H
  C914     1.0000 0.70836  0.11982  0.41217  Biso   1.000  C
  O124     1.0000 0.73386  0.08985  0.42075  Biso   1.000  O
  O125     1.0000 0.70072  0.12988  0.38545  Biso   1.000  O
  N83      1.0000 0.59138  0.34997  0.60887  Biso   1.000  N
  N84      1.0000 0.66353  0.40023  0.60708  Biso   1.000  N
  Zn41     1.0000 0.27891  0.56072  0.39590  Biso   1.000  Zn
  Zn42     1.0000 0.30411  0.48179  0.35104  Biso   1.000  Zn
  O126     1.0000 0.26523  0.53860  0.35657  Biso   1.000  O
  C915     1.0000 0.61160  0.35312  0.57781  Biso   1.000  C
  C916     1.0000 0.57970  0.38840  0.62660  Biso   1.000  C
  C917     1.0000 0.63030  0.33664  0.62885  Biso   1.000  C
  C918     1.0000 0.64840  0.39090  0.57646  Biso   1.000  C
  C919     1.0000 0.67990  0.36190  0.62419  Biso   1.000  C
  C920     1.0000 0.62260  0.41720  0.62560  Biso   1.000  C
  C921     1.0000 0.61690  0.42410  0.60320  Biso   1.000  C
  C922     1.0000 0.66990  0.37100  0.58000  Biso   1.000  C
  C923     1.0000 0.66230  0.38020  0.63570  Biso   1.000  C
  C924     1.0000 0.57270  0.39430  0.61100  Biso   1.000  C
  Zn43     1.0000 0.46932  0.19288  0.60933  Biso   1.000  Zn
  N85      1.0000 0.47896  0.19666  0.56311  Biso   1.000  N
  N86      1.0000 0.52444  0.15070  0.61082  Biso   1.000  N
  N87      1.0000 0.47414  0.19898  0.65586  Biso   1.000  N
  N88      1.0000 0.42937  0.24599  0.60826  Biso   1.000  N
  C925     1.0000 0.45273  0.22098  0.54382  Biso   1.000  C
  C926     1.0000 0.46413  0.20985  0.51309  Biso   1.000  C
  H351     1.0000 0.45140  0.22230  0.49540  Biso   1.000  H
  C927     1.0000 0.49535  0.17930  0.51386  Biso   1.000  C
  H352     1.0000 0.50880  0.16540  0.49690  Biso   1.000  H
  C928     1.0000 0.50510  0.17099  0.54531  Biso   1.000  C
  C929     1.0000 0.53631  0.13997  0.55610  Biso   1.000  C
  C930     1.0000 0.54571  0.13070  0.58660  Biso   1.000  C
  C931     1.0000 0.57726  0.09932  0.59696  Biso   1.000  C
  H353     1.0000 0.59630  0.08140  0.58490  Biso   1.000  H
  C932     1.0000 0.57470  0.10020  0.62775  Biso   1.000  C
  H354     1.0000 0.59180  0.08280  0.64130  Biso   1.000  H
  C933     1.0000 0.54215  0.13154  0.63589  Biso   1.000  C
  C934     1.0000 0.52910  0.14168  0.66571  Biso   1.000  C
  C935     1.0000 0.49821  0.17384  0.67483  Biso   1.000  C
  C936     1.0000 0.48739  0.18451  0.70548  Biso   1.000  C
  H355     1.0000 0.49970  0.17150  0.72310  Biso   1.000  H
  C937     1.0000 0.45669  0.21626  0.70483  Biso   1.000  C
  H356     1.0000 0.44370  0.23010  0.72190  Biso   1.000  H
  C938     1.0000 0.44706  0.22550  0.67347  Biso   1.000  C
  C939     1.0000 0.41628  0.25585  0.66266  Biso   1.000  C
  C940     1.0000 0.40712  0.26556  0.63199  Biso   1.000  C
  C941     1.0000 0.37457  0.29550  0.62134  Biso   1.000  C
  H357     1.0000 0.35530  0.31320  0.63350  Biso   1.000  H
  C942     1.0000 0.37556  0.29465  0.59097  Biso   1.000  C
  H358     1.0000 0.35730  0.31150  0.57770  Biso   1.000  H
  C943     1.0000 0.40903  0.26394  0.58255  Biso   1.000  C
  C944     1.0000 0.42065  0.25181  0.55281  Biso   1.000  C
  C945     1.0000 0.55946  0.11496  0.53385  Biso   1.000  C
  C946     1.0000 0.57786  0.09518  0.51470  Biso   1.000  C
  C947     1.0000 0.60038  0.07253  0.49060  Biso   1.000  C
  C948     1.0000 0.58962  0.08157  0.46033  Biso   1.000  C
  H359     1.0000 0.56610  0.10180  0.45550  Biso   1.000  H
  C949     1.0000 0.61341  0.06090  0.43764  Biso   1.000  C
  H360     1.0000 0.60710  0.06800  0.41720  Biso   1.000  H
  C950     1.0000 0.64574  0.03065  0.44374  Biso   1.000  C
  C951     1.0000 0.65558  0.02047  0.47367  Biso   1.000  C
  H361     1.0000 0.67780  0.99900  0.47790  Biso   1.000  H
  C952     1.0000 0.63413  0.04060  0.49693  Biso   1.000  C
  H362     1.0000 0.64150  0.03350  0.51730  Biso   1.000  H
  C953     1.0000 0.67186  0.00820  0.41877  Biso   1.000  C
  O127     1.0000 0.66542  0.02217  0.39229  Biso   1.000  O
  O128     1.0000 0.69823  0.97880  0.42563  Biso   1.000  O
  C954     1.0000 0.54902  0.11689  0.68935  Biso   1.000  C
  C955     1.0000 0.56436  0.09604  0.70901  Biso   1.000  C
  C956     1.0000 0.58521  0.07179  0.73261  Biso   1.000  C
  C957     1.0000 0.62020  0.04435  0.72682  Biso   1.000  C
  H363     1.0000 0.62960  0.03950  0.70650  Biso   1.000  H
  C958     1.0000 0.64270  0.02292  0.74991  Biso   1.000  C
  H364     1.0000 0.66800  0.00410  0.74550  Biso   1.000  H
  C959     1.0000 0.62780  0.02930  0.77978  Biso   1.000  C
  C960     1.0000 0.59050  0.05583  0.78534  Biso   1.000  C
  H365     1.0000 0.57950  0.05940  0.80550  Biso   1.000  H
  C961     1.0000 0.56868  0.07727  0.76257  Biso   1.000  C
  H366     1.0000 0.54280  0.09560  0.76680  Biso   1.000  H
  C962     1.0000 0.65403  0.00908  0.80565  Biso   1.000  C
  O129     1.0000 0.69415  0.99057  0.80083  Biso   1.000  O
  O130     1.0000 0.63657  0.01194  0.83142  Biso   1.000  O
  C963     1.0000 0.39006  0.28040  0.68490  Biso   1.000  C
  C964     1.0000 0.36795  0.30070  0.70245  Biso   1.000  C
  C965     1.0000 0.34286  0.32681  0.72249  Biso   1.000  C
  C966     1.0000 0.35380  0.32883  0.75219  Biso   1.000  C
  H367     1.0000 0.37850  0.31160  0.76010  Biso   1.000  H
  C967     1.0000 0.32970  0.35565  0.77156  Biso   1.000  C
  H368     1.0000 0.33790  0.35630  0.79240  Biso   1.000  H
  C968     1.0000 0.29480  0.38060  0.76086  Biso   1.000  C
  C969     1.0000 0.28470  0.37966  0.72963  Biso   1.000  C
  H369     1.0000 0.26170  0.39820  0.72130  Biso   1.000  H
  C970     1.0000 0.30730  0.35270  0.71142  Biso   1.000  C
  H370     1.0000 0.29870  0.35140  0.69060  Biso   1.000  H
  C971     1.0000 0.26980  0.41041  0.78157  Biso   1.000  C
  O131     1.0000 0.28046  0.41101  0.80845  Biso   1.000  O
  O132     1.0000 0.24184  0.43822  0.76712  Biso   1.000  O
  H371     1.0000 0.22380  0.45000  0.77970  Biso   1.000  H
  C972     1.0000 0.39653  0.27327  0.52913  Biso   1.000  C
  C973     1.0000 0.37681  0.29095  0.50873  Biso   1.000  C
  C974     1.0000 0.35491  0.31267  0.48443  Biso   1.000  C
  C975     1.0000 0.32268  0.34287  0.49013  Biso   1.000  C
  H372     1.0000 0.31410  0.34910  0.51040  Biso   1.000  H
  C976     1.0000 0.30219  0.36470  0.46678  Biso   1.000  C
  H373     1.0000 0.28000  0.38620  0.47100  Biso   1.000  H
  C977     1.0000 0.31393  0.35535  0.43747  Biso   1.000  C
  C978     1.0000 0.34580  0.32482  0.43144  Biso   1.000  C
  H374     1.0000 0.35380  0.31850  0.41110  Biso   1.000  H
  C979     1.0000 0.36648  0.30317  0.45451  Biso   1.000  C
  H375     1.0000 0.38870  0.28170  0.45020  Biso   1.000  H
  C980     1.0000 0.29164  0.38018  0.41217  Biso   1.000  C
  O133     1.0000 0.26614  0.41015  0.42075  Biso   1.000  O
  O134     1.0000 0.29928  0.37012  0.38545  Biso   1.000  O
  N89      1.0000 0.40862  0.15003  0.60887  Biso   1.000  N
  N90      1.0000 0.33647  0.09977  0.60708  Biso   1.000  N
  Zn44     1.0000 0.72109  0.93928  0.39590  Biso   1.000  Zn
  Zn45     1.0000 0.69589  0.01821  0.35104  Biso   1.000  Zn
  O135     1.0000 0.73477  0.96140  0.35657  Biso   1.000  O
  C981     1.0000 0.38840  0.14688  0.57781  Biso   1.000  C
  C982     1.0000 0.42030  0.11160  0.62660  Biso   1.000  C
  C983     1.0000 0.36970  0.16336  0.62885  Biso   1.000  C
  C984     1.0000 0.35160  0.10910  0.57646  Biso   1.000  C
  C985     1.0000 0.32010  0.13810  0.62419  Biso   1.000  C
  C986     1.0000 0.37740  0.08280  0.62560  Biso   1.000  C
  C987     1.0000 0.38310  0.07590  0.60320  Biso   1.000  C
  C988     1.0000 0.33010  0.12900  0.58000  Biso   1.000  C
  C989     1.0000 0.33770  0.11980  0.63570  Biso   1.000  C
  C990     1.0000 0.42730  0.10570  0.61100  Biso   1.000  C
  Zn46     1.0000 0.96932  0.69288  0.60933  Biso   1.000  Zn
  N91      1.0000 0.97896  0.69666  0.56311  Biso   1.000  N
  N92      1.0000 0.02444  0.65070  0.61082  Biso   1.000  N
  N93      1.0000 0.97414  0.69898  0.65586  Biso   1.000  N
  N94      1.0000 0.92937  0.74599  0.60826  Biso   1.000  N
  C991     1.0000 0.95273  0.72098  0.54382  Biso   1.000  C
  C992     1.0000 0.96413  0.70985  0.51309  Biso   1.000  C
  H376     1.0000 0.95140  0.72230  0.49540  Biso   1.000  H
  C993     1.0000 0.99535  0.67930  0.51386  Biso   1.000  C
  H377     1.0000 0.00880  0.66540  0.49690  Biso   1.000  H
  C994     1.0000 0.00510  0.67099  0.54531  Biso   1.000  C
  C995     1.0000 0.03631  0.63997  0.55610  Biso   1.000  C
  C996     1.0000 0.04571  0.63070  0.58660  Biso   1.000  C
  C997     1.0000 0.07726  0.59932  0.59696  Biso   1.000  C
  H378     1.0000 0.09630  0.58140  0.58490  Biso   1.000  H
  C998     1.0000 0.07470  0.60020  0.62775  Biso   1.000  C
  H379     1.0000 0.09180  0.58280  0.64130  Biso   1.000  H
  C999     1.0000 0.04215  0.63154  0.63589  Biso   1.000  C
  C1000    1.0000 0.02910  0.64168  0.66571  Biso   1.000  C
  C1001    1.0000 0.99821  0.67384  0.67483  Biso   1.000  C
  C1002    1.0000 0.98739  0.68451  0.70548  Biso   1.000  C
  H380     1.0000 0.99970  0.67150  0.72310  Biso   1.000  H
  C1003    1.0000 0.95669  0.71626  0.70483  Biso   1.000  C
  H381     1.0000 0.94370  0.73010  0.72190  Biso   1.000  H
  C1004    1.0000 0.94706  0.72550  0.67347  Biso   1.000  C
  C1005    1.0000 0.91628  0.75585  0.66266  Biso   1.000  C
  C1006    1.0000 0.90712  0.76556  0.63199  Biso   1.000  C
  C1007    1.0000 0.87457  0.79550  0.62134  Biso   1.000  C
  H382     1.0000 0.85530  0.81320  0.63350  Biso   1.000  H
  C1008    1.0000 0.87556  0.79465  0.59097  Biso   1.000  C
  H383     1.0000 0.85730  0.81150  0.57770  Biso   1.000  H
  C1009    1.0000 0.90903  0.76394  0.58255  Biso   1.000  C
  C1010    1.0000 0.92065  0.75181  0.55281  Biso   1.000  C
  C1011    1.0000 0.05946  0.61496  0.53385  Biso   1.000  C
  C1012    1.0000 0.07786  0.59518  0.51470  Biso   1.000  C
  C1013    1.0000 0.10038  0.57253  0.49060  Biso   1.000  C
  C1014    1.0000 0.08962  0.58157  0.46033  Biso   1.000  C
  H384     1.0000 0.06610  0.60180  0.45550  Biso   1.000  H
  C1015    1.0000 0.11341  0.56090  0.43764  Biso   1.000  C
  H385     1.0000 0.10710  0.56800  0.41720  Biso   1.000  H
  C1016    1.0000 0.14574  0.53065  0.44374  Biso   1.000  C
  C1017    1.0000 0.15558  0.52047  0.47367  Biso   1.000  C
  H386     1.0000 0.17780  0.49900  0.47790  Biso   1.000  H
  C1018    1.0000 0.13413  0.54060  0.49693  Biso   1.000  C
  H387     1.0000 0.14150  0.53350  0.51730  Biso   1.000  H
  C1019    1.0000 0.17186  0.50820  0.41877  Biso   1.000  C
  O136     1.0000 0.16542  0.52217  0.39229  Biso   1.000  O
  O137     1.0000 0.19823  0.47880  0.42563  Biso   1.000  O
  C1020    1.0000 0.04902  0.61689  0.68935  Biso   1.000  C
  C1021    1.0000 0.06436  0.59604  0.70901  Biso   1.000  C
  C1022    1.0000 0.08521  0.57179  0.73261  Biso   1.000  C
  C1023    1.0000 0.12020  0.54435  0.72682  Biso   1.000  C
  H388     1.0000 0.12960  0.53950  0.70650  Biso   1.000  H
  C1024    1.0000 0.14270  0.52292  0.74991  Biso   1.000  C
  H389     1.0000 0.16800  0.50410  0.74550  Biso   1.000  H
  C1025    1.0000 0.12780  0.52930  0.77978  Biso   1.000  C
  C1026    1.0000 0.09050  0.55583  0.78534  Biso   1.000  C
  H390     1.0000 0.07950  0.55940  0.80550  Biso   1.000  H
  C1027    1.0000 0.06868  0.57727  0.76257  Biso   1.000  C
  H391     1.0000 0.04280  0.59560  0.76680  Biso   1.000  H
  C1028    1.0000 0.15403  0.50908  0.80565  Biso   1.000  C
  O138     1.0000 0.19415  0.49057  0.80083  Biso   1.000  O
  O139     1.0000 0.13657  0.51194  0.83142  Biso   1.000  O
  C1029    1.0000 0.89006  0.78040  0.68490  Biso   1.000  C
  C1030    1.0000 0.86795  0.80070  0.70245  Biso   1.000  C
  C1031    1.0000 0.84286  0.82681  0.72249  Biso   1.000  C
  C1032    1.0000 0.85380  0.82883  0.75219  Biso   1.000  C
  H392     1.0000 0.87850  0.81160  0.76010  Biso   1.000  H
  C1033    1.0000 0.82970  0.85565  0.77156  Biso   1.000  C
  H393     1.0000 0.83790  0.85630  0.79240  Biso   1.000  H
  C1034    1.0000 0.79480  0.88060  0.76086  Biso   1.000  C
  C1035    1.0000 0.78470  0.87966  0.72963  Biso   1.000  C
  H394     1.0000 0.76170  0.89820  0.72130  Biso   1.000  H
  C1036    1.0000 0.80730  0.85270  0.71142  Biso   1.000  C
  H395     1.0000 0.79870  0.85140  0.69060  Biso   1.000  H
  C1037    1.0000 0.76980  0.91041  0.78157  Biso   1.000  C
  O140     1.0000 0.78046  0.91101  0.80845  Biso   1.000  O
  O141     1.0000 0.74184  0.93822  0.76712  Biso   1.000  O
  H396     1.0000 0.72380  0.95000  0.77970  Biso   1.000  H
  C1038    1.0000 0.89653  0.77327  0.52913  Biso   1.000  C
  C1039    1.0000 0.87681  0.79095  0.50873  Biso   1.000  C
  C1040    1.0000 0.85491  0.81267  0.48443  Biso   1.000  C
  C1041    1.0000 0.82268  0.84287  0.49013  Biso   1.000  C
  H397     1.0000 0.81410  0.84910  0.51040  Biso   1.000  H
  C1042    1.0000 0.80219  0.86470  0.46678  Biso   1.000  C
  H398     1.0000 0.78000  0.88620  0.47100  Biso   1.000  H
  C1043    1.0000 0.81393  0.85535  0.43747  Biso   1.000  C
  C1044    1.0000 0.84580  0.82482  0.43144  Biso   1.000  C
  H399     1.0000 0.85380  0.81850  0.41110  Biso   1.000  H
  C1045    1.0000 0.86648  0.80317  0.45451  Biso   1.000  C
  H400     1.0000 0.88870  0.78170  0.45020  Biso   1.000  H
  C1046    1.0000 0.79164  0.88018  0.41217  Biso   1.000  C
  O142     1.0000 0.76614  0.91015  0.42075  Biso   1.000  O
  O143     1.0000 0.79928  0.87012  0.38545  Biso   1.000  O
  N95      1.0000 0.90862  0.65003  0.60887  Biso   1.000  N
  N96      1.0000 0.83647  0.59977  0.60708  Biso   1.000  N
  Zn47     1.0000 0.22109  0.43928  0.39590  Biso   1.000  Zn
  Zn48     1.0000 0.19589  0.51821  0.35104  Biso   1.000  Zn
  O144     1.0000 0.23477  0.46140  0.35657  Biso   1.000  O
  C1047    1.0000 0.88840  0.64688  0.57781  Biso   1.000  C
  C1048    1.0000 0.92030  0.61160  0.62660  Biso   1.000  C
  C1049    1.0000 0.86970  0.66336  0.62885  Biso   1.000  C
  C1050    1.0000 0.85160  0.60910  0.57646  Biso   1.000  C
  C1051    1.0000 0.82010  0.63810  0.62419  Biso   1.000  C
  C1052    1.0000 0.87740  0.58280  0.62560  Biso   1.000  C
  C1053    1.0000 0.88310  0.57590  0.60320  Biso   1.000  C
  C1054    1.0000 0.83010  0.62900  0.58000  Biso   1.000  C
  C1055    1.0000 0.83770  0.61980  0.63570  Biso   1.000  C
  C1056    1.0000 0.92730  0.60570  0.61100  Biso   1.000  C
