data_image0
_cell_length_a       35.8613
_cell_length_b       14.8954
_cell_length_c       30.8845
_cell_angle_alpha    90
_cell_angle_beta     101.99
_cell_angle_gamma    90

_symmetry_space_group_name_H-M    "P 1"
_symmetry_int_tables_number       1

loop_
  _symmetry_equiv_pos_as_xyz
  'x, y, z'

loop_
  _atom_site_label
  _atom_site_occupancy
  _atom_site_fract_x
  _atom_site_fract_y
  _atom_site_fract_z
  _atom_site_thermal_displace_type
  _atom_site_B_iso_or_equiv
  _atom_site_type_symbol
  C1       1.0000 0.55863  0.86550  0.49583  Biso   1.000  C
  C2       1.0000 0.27400  0.56000  0.33437  Biso   1.000  C
  C3       1.0000 0.51749  0.66500  0.43970  Biso   1.000  C
  C4       1.0000 0.16757  0.54070  0.21090  Biso   1.000  C
  C5       1.0000 0.55214  0.78590  0.46650  Biso   1.000  C
  C6       1.0000 0.20632  0.72630  0.28038  Biso   1.000  C
  C7       1.0000 0.56693  0.70710  0.41019  Biso   1.000  C
  C8       1.0000 0.17665  0.45310  0.20153  Biso   1.000  C
  H1       1.0000 0.19800  0.42500  0.21820  Biso   1.000  H
  C9       1.0000 0.48407  0.60660  0.43928  Biso   1.000  C
  C10      1.0000 0.24207  0.60450  0.30350  Biso   1.000  C
  C11      1.0000 0.19178  0.59390  0.24662  Biso   1.000  C
  C12      1.0000 0.59236  0.69080  0.37889  Biso   1.000  C
  C13      1.0000 0.53192  0.89110  0.51996  Biso   1.000  C
  H2       1.0000 0.50990  0.85760  0.51870  Biso   1.000  H
  C14      1.0000 0.15328  0.40860  0.16697  Biso   1.000  C
  H3       1.0000 0.15970  0.35040  0.16040  Biso   1.000  H
  C15      1.0000 0.21582  0.97380  0.30590  Biso   1.000  C
  H4       1.0000 0.23230  0.01230  0.32450  Biso   1.000  H
  C16      1.0000 0.16170  0.95240  0.25260  Biso   1.000  C
  H5       1.0000 0.14030  0.97570  0.23390  Biso   1.000  H
  C17      1.0000 0.59188  0.91530  0.49990  Biso   1.000  C
  H6       1.0000 0.61050  0.89930  0.48440  Biso   1.000  H
  C18      1.0000 0.13440  0.57830  0.18630  Biso   1.000  C
  H7       1.0000 0.12700  0.63610  0.19230  Biso   1.000  H
  C19      1.0000 0.60630  0.62450  0.31390  Biso   1.000  C
  H8       1.0000 0.59850  0.58940  0.28870  Biso   1.000  H
  C20      1.0000 0.32560  0.55700  0.39660  Biso   1.000  C
  H9       1.0000 0.34060  0.58740  0.42030  Biso   1.000  H
  C21      1.0000 0.16760  0.86040  0.25270  Biso   1.000  C
  H10      1.0000 0.15060  0.82330  0.23400  Biso   1.000  H
  C22      1.0000 0.29610  0.60350  0.36940  Biso   1.000  C
  H11      1.0000 0.29150  0.66340  0.37490  Biso   1.000  H
  C23      1.0000 0.59670  0.98910  0.52770  Biso   1.000  C
  H12      1.0000 0.61910  0.02220  0.53070  Biso   1.000  H
  C24      1.0000 0.11290  0.52860  0.15300  Biso   1.000  C
  H13      1.0000 0.09070  0.55400  0.13670  Biso   1.000  H
  C25      1.0000 0.43490  0.51290  0.40080  Biso   1.000  C
  H14      1.0000 0.42250  0.48710  0.37430  Biso   1.000  H
  C26      1.0000 0.46570  0.56540  0.40060  Biso   1.000  C
  H15      1.0000 0.47450  0.57370  0.37460  Biso   1.000  H
  C27      1.0000 0.19918  0.82440  0.28091  Biso   1.000  C
  C28      1.0000 0.53857  0.96730  0.54584  Biso   1.000  C
  H16      1.0000 0.51990  0.98580  0.56080  Biso   1.000  H
  C29      1.0000 0.46974  0.59350  0.47641  Biso   1.000  C
  H17      1.0000 0.48060  0.62200  0.50280  Biso   1.000  H
  C30      1.0000 0.22364  0.88310  0.30810  Biso   1.000  C
  H18      1.0000 0.24510  0.86140  0.32760  Biso   1.000  H
  C31      1.0000 0.43873  0.53720  0.47410  Biso   1.000  C
  H19      1.0000 0.42950  0.52710  0.49970  Biso   1.000  H
  C32      1.0000 0.62863  0.72890  0.38620  Biso   1.000  C
  H20      1.0000 0.63700  0.76560  0.41070  Biso   1.000  H
  C33      1.0000 0.28224  0.47100  0.32790  Biso   1.000  C
  H21      1.0000 0.26760  0.43860  0.30460  Biso   1.000  H
  C34      1.0000 0.65174  0.71170  0.35710  Biso   1.000  C
  H22      1.0000 0.67610  0.73620  0.36260  Biso   1.000  H
  C35      1.0000 0.58129  0.63600  0.34220  Biso   1.000  C
  H23      1.0000 0.55770  0.60760  0.33660  Biso   1.000  H
  C36      1.0000 0.31220  0.43100  0.35600  Biso   1.000  C
  H24      1.0000 0.31800  0.37160  0.35090  Biso   1.000  H
  I1       1.0000 0.02951  0.34263  0.12990  Biso   1.000  I
  I2       1.0000 0.73478  0.73419  0.30082  Biso   1.000  I
  I3       1.0000 0.63044  0.67165  0.19880  Biso   1.000  I
  I4       1.0000 0.35818  0.41044  0.50890  Biso   1.000  I
  I5       1.0000 0.39425  0.26649  0.39455  Biso   1.000  I
  N1       1.0000 0.18246  0.67970  0.24954  Biso   1.000  N
  N2       1.0000 0.52404  0.72960  0.47040  Biso   1.000  N
  N3       1.0000 0.53790  0.65020  0.40859  Biso   1.000  N
  N4       1.0000 0.22132  0.55260  0.27210  Biso   1.000  N
  N5       1.0000 0.57469  0.77710  0.43724  Biso   1.000  N
  N6       1.0000 0.23600  0.69250  0.30911  Biso   1.000  N
  N7       1.0000 0.64051  0.66080  0.32083  Biso   1.000  N
  N8       1.0000 0.33339  0.47350  0.39052  Biso   1.000  N
  N9       1.0000 0.42156  0.49670  0.43685  Biso   1.000  N
  N10      1.0000 0.18560  0.00920  0.27840  Biso   1.000  N
  N11      1.0000 0.12207  0.44540  0.14276  Biso   1.000  N
  N12      1.0000 0.57047  0.01540  0.55042  Biso   1.000  N
  Zn1      1.0000 0.67377  0.64505  0.27422  Biso   1.000  Zn
  Zn2      1.0000 0.37666  0.40937  0.43401  Biso   1.000  Zn
  Zn3      1.0000 0.08375  0.37768  0.09389  Biso   1.000  Zn
  I6       1.0000 0.11671  0.25970  0.05650  Biso   1.000  I
  I7       1.0000 0.12543  0.27600  0.05660  Biso   1.000  I
  I8       1.0000 0.01966  0.36400  0.13038  Biso   1.000  I
  I9       1.0000 0.38762  0.26780  0.40810  Biso   1.000  I
  C37      1.0000 0.05863  0.36550  0.49583  Biso   1.000  C
  C38      1.0000 0.77400  0.06000  0.33437  Biso   1.000  C
  C39      1.0000 0.01749  0.16500  0.43970  Biso   1.000  C
  C40      1.0000 0.66757  0.04070  0.21090  Biso   1.000  C
  C41      1.0000 0.05214  0.28590  0.46650  Biso   1.000  C
  C42      1.0000 0.70632  0.22630  0.28038  Biso   1.000  C
  C43      1.0000 0.06693  0.20710  0.41019  Biso   1.000  C
  C44      1.0000 0.67665  0.95310  0.20153  Biso   1.000  C
  H25      1.0000 0.69800  0.92500  0.21820  Biso   1.000  H
  C45      1.0000 0.98407  0.10660  0.43928  Biso   1.000  C
  C46      1.0000 0.74207  0.10450  0.30350  Biso   1.000  C
  C47      1.0000 0.69178  0.09390  0.24662  Biso   1.000  C
  C48      1.0000 0.09236  0.19080  0.37889  Biso   1.000  C
  C49      1.0000 0.03192  0.39110  0.51996  Biso   1.000  C
  H26      1.0000 0.00990  0.35760  0.51870  Biso   1.000  H
  C50      1.0000 0.65328  0.90860  0.16697  Biso   1.000  C
  H27      1.0000 0.65970  0.85040  0.16040  Biso   1.000  H
  C51      1.0000 0.71582  0.47380  0.30590  Biso   1.000  C
  H28      1.0000 0.73230  0.51230  0.32450  Biso   1.000  H
  C52      1.0000 0.66170  0.45240  0.25260  Biso   1.000  C
  H29      1.0000 0.64030  0.47570  0.23390  Biso   1.000  H
  C53      1.0000 0.09188  0.41530  0.49990  Biso   1.000  C
  H30      1.0000 0.11050  0.39930  0.48440  Biso   1.000  H
  C54      1.0000 0.63440  0.07830  0.18630  Biso   1.000  C
  H31      1.0000 0.62700  0.13610  0.19230  Biso   1.000  H
  C55      1.0000 0.10630  0.12450  0.31390  Biso   1.000  C
  H32      1.0000 0.09850  0.08940  0.28870  Biso   1.000  H
  C56      1.0000 0.82560  0.05700  0.39660  Biso   1.000  C
  H33      1.0000 0.84060  0.08740  0.42030  Biso   1.000  H
  C57      1.0000 0.66760  0.36040  0.25270  Biso   1.000  C
  H34      1.0000 0.65060  0.32330  0.23400  Biso   1.000  H
  C58      1.0000 0.79610  0.10350  0.36940  Biso   1.000  C
  H35      1.0000 0.79150  0.16340  0.37490  Biso   1.000  H
  C59      1.0000 0.09670  0.48910  0.52770  Biso   1.000  C
  H36      1.0000 0.11910  0.52220  0.53070  Biso   1.000  H
  C60      1.0000 0.61290  0.02860  0.15300  Biso   1.000  C
  H37      1.0000 0.59070  0.05400  0.13670  Biso   1.000  H
  C61      1.0000 0.93490  0.01290  0.40080  Biso   1.000  C
  H38      1.0000 0.92250  0.98710  0.37430  Biso   1.000  H
  C62      1.0000 0.96570  0.06540  0.40060  Biso   1.000  C
  H39      1.0000 0.97450  0.07370  0.37460  Biso   1.000  H
  C63      1.0000 0.69918  0.32440  0.28091  Biso   1.000  C
  C64      1.0000 0.03857  0.46730  0.54584  Biso   1.000  C
  H40      1.0000 0.01990  0.48580  0.56080  Biso   1.000  H
  C65      1.0000 0.96974  0.09350  0.47641  Biso   1.000  C
  H41      1.0000 0.98060  0.12200  0.50280  Biso   1.000  H
  C66      1.0000 0.72364  0.38310  0.30810  Biso   1.000  C
  H42      1.0000 0.74510  0.36140  0.32760  Biso   1.000  H
  C67      1.0000 0.93873  0.03720  0.47410  Biso   1.000  C
  H43      1.0000 0.92950  0.02710  0.49970  Biso   1.000  H
  C68      1.0000 0.12863  0.22890  0.38620  Biso   1.000  C
  H44      1.0000 0.13700  0.26560  0.41070  Biso   1.000  H
  C69      1.0000 0.78224  0.97100  0.32790  Biso   1.000  C
  H45      1.0000 0.76760  0.93860  0.30460  Biso   1.000  H
  C70      1.0000 0.15174  0.21170  0.35710  Biso   1.000  C
  H46      1.0000 0.17610  0.23620  0.36260  Biso   1.000  H
  C71      1.0000 0.08129  0.13600  0.34220  Biso   1.000  C
  H47      1.0000 0.05770  0.10760  0.33660  Biso   1.000  H
  C72      1.0000 0.81220  0.93100  0.35600  Biso   1.000  C
  H48      1.0000 0.81800  0.87160  0.35090  Biso   1.000  H
  I10      1.0000 0.52951  0.84263  0.12990  Biso   1.000  I
  I11      1.0000 0.23478  0.23419  0.30082  Biso   1.000  I
  I12      1.0000 0.13044  0.17165  0.19880  Biso   1.000  I
  I13      1.0000 0.85818  0.91044  0.50890  Biso   1.000  I
  I14      1.0000 0.89425  0.76649  0.39455  Biso   1.000  I
  N13      1.0000 0.68246  0.17970  0.24954  Biso   1.000  N
  N14      1.0000 0.02404  0.22960  0.47040  Biso   1.000  N
  N15      1.0000 0.03790  0.15020  0.40859  Biso   1.000  N
  N16      1.0000 0.72132  0.05260  0.27210  Biso   1.000  N
  N17      1.0000 0.07469  0.27710  0.43724  Biso   1.000  N
  N18      1.0000 0.73600  0.19250  0.30911  Biso   1.000  N
  N19      1.0000 0.14051  0.16080  0.32083  Biso   1.000  N
  N20      1.0000 0.83339  0.97350  0.39052  Biso   1.000  N
  N21      1.0000 0.92156  0.99670  0.43685  Biso   1.000  N
  N22      1.0000 0.68560  0.50920  0.27840  Biso   1.000  N
  N23      1.0000 0.62207  0.94540  0.14276  Biso   1.000  N
  N24      1.0000 0.07047  0.51540  0.55042  Biso   1.000  N
  Zn4      1.0000 0.17377  0.14505  0.27422  Biso   1.000  Zn
  Zn5      1.0000 0.87666  0.90937  0.43401  Biso   1.000  Zn
  Zn6      1.0000 0.58375  0.87768  0.09389  Biso   1.000  Zn
  I15      1.0000 0.61671  0.75970  0.05650  Biso   1.000  I
  I16      1.0000 0.62543  0.77600  0.05660  Biso   1.000  I
  I17      1.0000 0.51966  0.86400  0.13038  Biso   1.000  I
  I18      1.0000 0.88762  0.76780  0.40810  Biso   1.000  I
  C73      1.0000 0.55863  0.13450  0.99583  Biso   1.000  C
  C74      1.0000 0.27400  0.44000  0.83437  Biso   1.000  C
  C75      1.0000 0.51749  0.33500  0.93970  Biso   1.000  C
  C76      1.0000 0.16757  0.45930  0.71090  Biso   1.000  C
  C77      1.0000 0.55214  0.21410  0.96650  Biso   1.000  C
  C78      1.0000 0.20632  0.27370  0.78038  Biso   1.000  C
  C79      1.0000 0.56693  0.29290  0.91019  Biso   1.000  C
  C80      1.0000 0.17665  0.54690  0.70153  Biso   1.000  C
  H49      1.0000 0.19800  0.57500  0.71820  Biso   1.000  H
  C81      1.0000 0.48407  0.39340  0.93928  Biso   1.000  C
  C82      1.0000 0.24207  0.39550  0.80350  Biso   1.000  C
  C83      1.0000 0.19178  0.40610  0.74662  Biso   1.000  C
  C84      1.0000 0.59236  0.30920  0.87889  Biso   1.000  C
  C85      1.0000 0.53192  0.10890  0.01996  Biso   1.000  C
  H50      1.0000 0.50990  0.14240  0.01870  Biso   1.000  H
  C86      1.0000 0.15328  0.59140  0.66697  Biso   1.000  C
  H51      1.0000 0.15970  0.64960  0.66040  Biso   1.000  H
  C87      1.0000 0.21582  0.02620  0.80590  Biso   1.000  C
  H52      1.0000 0.23230  0.98770  0.82450  Biso   1.000  H
  C88      1.0000 0.16170  0.04760  0.75260  Biso   1.000  C
  H53      1.0000 0.14030  0.02430  0.73390  Biso   1.000  H
  C89      1.0000 0.59188  0.08470  0.99990  Biso   1.000  C
  H54      1.0000 0.61050  0.10070  0.98440  Biso   1.000  H
  C90      1.0000 0.13440  0.42170  0.68630  Biso   1.000  C
  H55      1.0000 0.12700  0.36390  0.69230  Biso   1.000  H
  C91      1.0000 0.60630  0.37550  0.81390  Biso   1.000  C
  H56      1.0000 0.59850  0.41060  0.78870  Biso   1.000  H
  C92      1.0000 0.32560  0.44300  0.89660  Biso   1.000  C
  H57      1.0000 0.34060  0.41260  0.92030  Biso   1.000  H
  C93      1.0000 0.16760  0.13960  0.75270  Biso   1.000  C
  H58      1.0000 0.15060  0.17670  0.73400  Biso   1.000  H
  C94      1.0000 0.29610  0.39650  0.86940  Biso   1.000  C
  H59      1.0000 0.29150  0.33660  0.87490  Biso   1.000  H
  C95      1.0000 0.59670  0.01090  0.02770  Biso   1.000  C
  H60      1.0000 0.61910  0.97780  0.03070  Biso   1.000  H
  C96      1.0000 0.11290  0.47140  0.65300  Biso   1.000  C
  H61      1.0000 0.09070  0.44600  0.63670  Biso   1.000  H
  C97      1.0000 0.43490  0.48710  0.90080  Biso   1.000  C
  H62      1.0000 0.42250  0.51290  0.87430  Biso   1.000  H
  C98      1.0000 0.46570  0.43460  0.90060  Biso   1.000  C
  H63      1.0000 0.47450  0.42630  0.87460  Biso   1.000  H
  C99      1.0000 0.19918  0.17560  0.78091  Biso   1.000  C
  C100     1.0000 0.53857  0.03270  0.04584  Biso   1.000  C
  H64      1.0000 0.51990  0.01420  0.06080  Biso   1.000  H
  C101     1.0000 0.46974  0.40650  0.97641  Biso   1.000  C
  H65      1.0000 0.48060  0.37800  0.00280  Biso   1.000  H
  C102     1.0000 0.22364  0.11690  0.80810  Biso   1.000  C
  H66      1.0000 0.24510  0.13860  0.82760  Biso   1.000  H
  C103     1.0000 0.43873  0.46280  0.97410  Biso   1.000  C
  H67      1.0000 0.42950  0.47290  0.99970  Biso   1.000  H
  C104     1.0000 0.62863  0.27110  0.88620  Biso   1.000  C
  H68      1.0000 0.63700  0.23440  0.91070  Biso   1.000  H
  C105     1.0000 0.28224  0.52900  0.82790  Biso   1.000  C
  H69      1.0000 0.26760  0.56140  0.80460  Biso   1.000  H
  C106     1.0000 0.65174  0.28830  0.85710  Biso   1.000  C
  H70      1.0000 0.67610  0.26380  0.86260  Biso   1.000  H
  C107     1.0000 0.58129  0.36400  0.84220  Biso   1.000  C
  H71      1.0000 0.55770  0.39240  0.83660  Biso   1.000  H
  C108     1.0000 0.31220  0.56900  0.85600  Biso   1.000  C
  H72      1.0000 0.31800  0.62840  0.85090  Biso   1.000  H
  I19      1.0000 0.02951  0.65737  0.62990  Biso   1.000  I
  I20      1.0000 0.73478  0.26581  0.80082  Biso   1.000  I
  I21      1.0000 0.63044  0.32835  0.69880  Biso   1.000  I
  I22      1.0000 0.35818  0.58956  0.00890  Biso   1.000  I
  I23      1.0000 0.39425  0.73351  0.89455  Biso   1.000  I
  N25      1.0000 0.18246  0.32030  0.74954  Biso   1.000  N
  N26      1.0000 0.52404  0.27040  0.97040  Biso   1.000  N
  N27      1.0000 0.53790  0.34980  0.90859  Biso   1.000  N
  N28      1.0000 0.22132  0.44740  0.77210  Biso   1.000  N
  N29      1.0000 0.57469  0.22290  0.93724  Biso   1.000  N
  N30      1.0000 0.23600  0.30750  0.80911  Biso   1.000  N
  N31      1.0000 0.64051  0.33920  0.82083  Biso   1.000  N
  N32      1.0000 0.33339  0.52650  0.89052  Biso   1.000  N
  N33      1.0000 0.42156  0.50330  0.93685  Biso   1.000  N
  N34      1.0000 0.18560  0.99080  0.77840  Biso   1.000  N
  N35      1.0000 0.12207  0.55460  0.64276  Biso   1.000  N
  N36      1.0000 0.57047  0.98460  0.05042  Biso   1.000  N
  Zn7      1.0000 0.67377  0.35495  0.77422  Biso   1.000  Zn
  Zn8      1.0000 0.37666  0.59063  0.93401  Biso   1.000  Zn
  Zn9      1.0000 0.08375  0.62232  0.59389  Biso   1.000  Zn
  I24      1.0000 0.11671  0.74030  0.55650  Biso   1.000  I
  I25      1.0000 0.12543  0.72400  0.55660  Biso   1.000  I
  I26      1.0000 0.01966  0.63600  0.63038  Biso   1.000  I
  I27      1.0000 0.38762  0.73220  0.90810  Biso   1.000  I
  C109     1.0000 0.05863  0.63450  0.99583  Biso   1.000  C
  C110     1.0000 0.77400  0.94000  0.83437  Biso   1.000  C
  C111     1.0000 0.01749  0.83500  0.93970  Biso   1.000  C
  C112     1.0000 0.66757  0.95930  0.71090  Biso   1.000  C
  C113     1.0000 0.05214  0.71410  0.96650  Biso   1.000  C
  C114     1.0000 0.70632  0.77370  0.78038  Biso   1.000  C
  C115     1.0000 0.06693  0.79290  0.91019  Biso   1.000  C
  C116     1.0000 0.67665  0.04690  0.70153  Biso   1.000  C
  H73      1.0000 0.69800  0.07500  0.71820  Biso   1.000  H
  C117     1.0000 0.98407  0.89340  0.93928  Biso   1.000  C
  C118     1.0000 0.74207  0.89550  0.80350  Biso   1.000  C
  C119     1.0000 0.69178  0.90610  0.74662  Biso   1.000  C
  C120     1.0000 0.09236  0.80920  0.87889  Biso   1.000  C
  C121     1.0000 0.03192  0.60890  0.01996  Biso   1.000  C
  H74      1.0000 0.00990  0.64240  0.01870  Biso   1.000  H
  C122     1.0000 0.65328  0.09140  0.66697  Biso   1.000  C
  H75      1.0000 0.65970  0.14960  0.66040  Biso   1.000  H
  C123     1.0000 0.71582  0.52620  0.80590  Biso   1.000  C
  H76      1.0000 0.73230  0.48770  0.82450  Biso   1.000  H
  C124     1.0000 0.66170  0.54760  0.75260  Biso   1.000  C
  H77      1.0000 0.64030  0.52430  0.73390  Biso   1.000  H
  C125     1.0000 0.09188  0.58470  0.99990  Biso   1.000  C
  H78      1.0000 0.11050  0.60070  0.98440  Biso   1.000  H
  C126     1.0000 0.63440  0.92170  0.68630  Biso   1.000  C
  H79      1.0000 0.62700  0.86390  0.69230  Biso   1.000  H
  C127     1.0000 0.10630  0.87550  0.81390  Biso   1.000  C
  H80      1.0000 0.09850  0.91060  0.78870  Biso   1.000  H
  C128     1.0000 0.82560  0.94300  0.89660  Biso   1.000  C
  H81      1.0000 0.84060  0.91260  0.92030  Biso   1.000  H
  C129     1.0000 0.66760  0.63960  0.75270  Biso   1.000  C
  H82      1.0000 0.65060  0.67670  0.73400  Biso   1.000  H
  C130     1.0000 0.79610  0.89650  0.86940  Biso   1.000  C
  H83      1.0000 0.79150  0.83660  0.87490  Biso   1.000  H
  C131     1.0000 0.09670  0.51090  0.02770  Biso   1.000  C
  H84      1.0000 0.11910  0.47780  0.03070  Biso   1.000  H
  C132     1.0000 0.61290  0.97140  0.65300  Biso   1.000  C
  H85      1.0000 0.59070  0.94600  0.63670  Biso   1.000  H
  C133     1.0000 0.93490  0.98710  0.90080  Biso   1.000  C
  H86      1.0000 0.92250  0.01290  0.87430  Biso   1.000  H
  C134     1.0000 0.96570  0.93460  0.90060  Biso   1.000  C
  H87      1.0000 0.97450  0.92630  0.87460  Biso   1.000  H
  C135     1.0000 0.69918  0.67560  0.78091  Biso   1.000  C
  C136     1.0000 0.03857  0.53270  0.04584  Biso   1.000  C
  H88      1.0000 0.01990  0.51420  0.06080  Biso   1.000  H
  C137     1.0000 0.96974  0.90650  0.97641  Biso   1.000  C
  H89      1.0000 0.98060  0.87800  0.00280  Biso   1.000  H
  C138     1.0000 0.72364  0.61690  0.80810  Biso   1.000  C
  H90      1.0000 0.74510  0.63860  0.82760  Biso   1.000  H
  C139     1.0000 0.93873  0.96280  0.97410  Biso   1.000  C
  H91      1.0000 0.92950  0.97290  0.99970  Biso   1.000  H
  C140     1.0000 0.12863  0.77110  0.88620  Biso   1.000  C
  H92      1.0000 0.13700  0.73440  0.91070  Biso   1.000  H
  C141     1.0000 0.78224  0.02900  0.82790  Biso   1.000  C
  H93      1.0000 0.76760  0.06140  0.80460  Biso   1.000  H
  C142     1.0000 0.15174  0.78830  0.85710  Biso   1.000  C
  H94      1.0000 0.17610  0.76380  0.86260  Biso   1.000  H
  C143     1.0000 0.08129  0.86400  0.84220  Biso   1.000  C
  H95      1.0000 0.05770  0.89240  0.83660  Biso   1.000  H
  C144     1.0000 0.81220  0.06900  0.85600  Biso   1.000  C
  H96      1.0000 0.81800  0.12840  0.85090  Biso   1.000  H
  I28      1.0000 0.52951  0.15737  0.62990  Biso   1.000  I
  I29      1.0000 0.23478  0.76581  0.80082  Biso   1.000  I
  I30      1.0000 0.13044  0.82835  0.69880  Biso   1.000  I
  I31      1.0000 0.85818  0.08956  0.00890  Biso   1.000  I
  I32      1.0000 0.89425  0.23351  0.89455  Biso   1.000  I
  N37      1.0000 0.68246  0.82030  0.74954  Biso   1.000  N
  N38      1.0000 0.02404  0.77040  0.97040  Biso   1.000  N
  N39      1.0000 0.03790  0.84980  0.90859  Biso   1.000  N
  N40      1.0000 0.72132  0.94740  0.77210  Biso   1.000  N
  N41      1.0000 0.07469  0.72290  0.93724  Biso   1.000  N
  N42      1.0000 0.73600  0.80750  0.80911  Biso   1.000  N
  N43      1.0000 0.14051  0.83920  0.82083  Biso   1.000  N
  N44      1.0000 0.83339  0.02650  0.89052  Biso   1.000  N
  N45      1.0000 0.92156  0.00330  0.93685  Biso   1.000  N
  N46      1.0000 0.68560  0.49080  0.77840  Biso   1.000  N
  N47      1.0000 0.62207  0.05460  0.64276  Biso   1.000  N
  N48      1.0000 0.07047  0.48460  0.05042  Biso   1.000  N
  Zn10     1.0000 0.17377  0.85495  0.77422  Biso   1.000  Zn
  Zn11     1.0000 0.87666  0.09063  0.93401  Biso   1.000  Zn
  Zn12     1.0000 0.58375  0.12232  0.59389  Biso   1.000  Zn
  I33      1.0000 0.61671  0.24030  0.55650  Biso   1.000  I
  I34      1.0000 0.62543  0.22400  0.55660  Biso   1.000  I
  I35      1.0000 0.51966  0.13600  0.63038  Biso   1.000  I
  I36      1.0000 0.88762  0.23220  0.90810  Biso   1.000  I
  C145     1.0000 0.44137  0.86550  0.00417  Biso   1.000  C
  C146     1.0000 0.72600  0.56000  0.16563  Biso   1.000  C
  C147     1.0000 0.48251  0.66500  0.06030  Biso   1.000  C
  C148     1.0000 0.83243  0.54070  0.28910  Biso   1.000  C
  C149     1.0000 0.44786  0.78590  0.03350  Biso   1.000  C
  C150     1.0000 0.79368  0.72630  0.21962  Biso   1.000  C
  C151     1.0000 0.43307  0.70710  0.08981  Biso   1.000  C
  C152     1.0000 0.82335  0.45310  0.29847  Biso   1.000  C
  H97      1.0000 0.80200  0.42500  0.28180  Biso   1.000  H
  C153     1.0000 0.51593  0.60660  0.06072  Biso   1.000  C
  C154     1.0000 0.75793  0.60450  0.19650  Biso   1.000  C
  C155     1.0000 0.80822  0.59390  0.25338  Biso   1.000  C
  C156     1.0000 0.40764  0.69080  0.12111  Biso   1.000  C
  C157     1.0000 0.46808  0.89110  0.98004  Biso   1.000  C
  H98      1.0000 0.49010  0.85760  0.98130  Biso   1.000  H
  C158     1.0000 0.84672  0.40860  0.33303  Biso   1.000  C
  H99      1.0000 0.84030  0.35040  0.33960  Biso   1.000  H
  C159     1.0000 0.78418  0.97380  0.19410  Biso   1.000  C
  H100     1.0000 0.76770  0.01230  0.17550  Biso   1.000  H
  C160     1.0000 0.83830  0.95240  0.24740  Biso   1.000  C
  H101     1.0000 0.85970  0.97570  0.26610  Biso   1.000  H
  C161     1.0000 0.40812  0.91530  0.00010  Biso   1.000  C
  H102     1.0000 0.38950  0.89930  0.01560  Biso   1.000  H
  C162     1.0000 0.86560  0.57830  0.31370  Biso   1.000  C
  H103     1.0000 0.87300  0.63610  0.30770  Biso   1.000  H
  C163     1.0000 0.39370  0.62450  0.18610  Biso   1.000  C
  H104     1.0000 0.40150  0.58940  0.21130  Biso   1.000  H
  C164     1.0000 0.67440  0.55700  0.10340  Biso   1.000  C
  H105     1.0000 0.65940  0.58740  0.07970  Biso   1.000  H
  C165     1.0000 0.83240  0.86040  0.24730  Biso   1.000  C
  H106     1.0000 0.84940  0.82330  0.26600  Biso   1.000  H
  C166     1.0000 0.70390  0.60350  0.13060  Biso   1.000  C
  H107     1.0000 0.70850  0.66340  0.12510  Biso   1.000  H
  C167     1.0000 0.40330  0.98910  0.97230  Biso   1.000  C
  H108     1.0000 0.38090  0.02220  0.96930  Biso   1.000  H
  C168     1.0000 0.88710  0.52860  0.34700  Biso   1.000  C
  H109     1.0000 0.90930  0.55400  0.36330  Biso   1.000  H
  C169     1.0000 0.56510  0.51290  0.09920  Biso   1.000  C
  H110     1.0000 0.57750  0.48710  0.12570  Biso   1.000  H
  C170     1.0000 0.53430  0.56540  0.09940  Biso   1.000  C
  H111     1.0000 0.52550  0.57370  0.12540  Biso   1.000  H
  C171     1.0000 0.80082  0.82440  0.21909  Biso   1.000  C
  C172     1.0000 0.46143  0.96730  0.95416  Biso   1.000  C
  H112     1.0000 0.48010  0.98580  0.93920  Biso   1.000  H
  C173     1.0000 0.53026  0.59350  0.02359  Biso   1.000  C
  H113     1.0000 0.51940  0.62200  0.99720  Biso   1.000  H
  C174     1.0000 0.77636  0.88310  0.19190  Biso   1.000  C
  H114     1.0000 0.75490  0.86140  0.17240  Biso   1.000  H
  C175     1.0000 0.56127  0.53720  0.02590  Biso   1.000  C
  H115     1.0000 0.57050  0.52710  0.00030  Biso   1.000  H
  C176     1.0000 0.37137  0.72890  0.11380  Biso   1.000  C
  H116     1.0000 0.36300  0.76560  0.08930  Biso   1.000  H
  C177     1.0000 0.71776  0.47100  0.17210  Biso   1.000  C
  H117     1.0000 0.73240  0.43860  0.19540  Biso   1.000  H
  C178     1.0000 0.34826  0.71170  0.14290  Biso   1.000  C
  H118     1.0000 0.32390  0.73620  0.13740  Biso   1.000  H
  C179     1.0000 0.41871  0.63600  0.15780  Biso   1.000  C
  H119     1.0000 0.44230  0.60760  0.16340  Biso   1.000  H
  C180     1.0000 0.68780  0.43100  0.14400  Biso   1.000  C
  H120     1.0000 0.68200  0.37160  0.14910  Biso   1.000  H
  I37      1.0000 0.97049  0.34263  0.37010  Biso   1.000  I
  I38      1.0000 0.26522  0.73419  0.19918  Biso   1.000  I
  I39      1.0000 0.36956  0.67165  0.30120  Biso   1.000  I
  I40      1.0000 0.64182  0.41044  0.99110  Biso   1.000  I
  I41      1.0000 0.60575  0.26649  0.10545  Biso   1.000  I
  N49      1.0000 0.81754  0.67970  0.25046  Biso   1.000  N
  N50      1.0000 0.47596  0.72960  0.02960  Biso   1.000  N
  N51      1.0000 0.46210  0.65020  0.09141  Biso   1.000  N
  N52      1.0000 0.77868  0.55260  0.22790  Biso   1.000  N
  N53      1.0000 0.42531  0.77710  0.06276  Biso   1.000  N
  N54      1.0000 0.76400  0.69250  0.19089  Biso   1.000  N
  N55      1.0000 0.35949  0.66080  0.17917  Biso   1.000  N
  N56      1.0000 0.66661  0.47350  0.10948  Biso   1.000  N
  N57      1.0000 0.57844  0.49670  0.06315  Biso   1.000  N
  N58      1.0000 0.81440  0.00920  0.22160  Biso   1.000  N
  N59      1.0000 0.87793  0.44540  0.35724  Biso   1.000  N
  N60      1.0000 0.42953  0.01540  0.94958  Biso   1.000  N
  Zn13     1.0000 0.32623  0.64505  0.22578  Biso   1.000  Zn
  Zn14     1.0000 0.62334  0.40937  0.06599  Biso   1.000  Zn
  Zn15     1.0000 0.91625  0.37768  0.40611  Biso   1.000  Zn
  I42      1.0000 0.88329  0.25970  0.44350  Biso   1.000  I
  I43      1.0000 0.87457  0.27600  0.44340  Biso   1.000  I
  I44      1.0000 0.98034  0.36400  0.36962  Biso   1.000  I
  I45      1.0000 0.61238  0.26780  0.09190  Biso   1.000  I
  C181     1.0000 0.94137  0.36550  0.00417  Biso   1.000  C
  C182     1.0000 0.22600  0.06000  0.16563  Biso   1.000  C
  C183     1.0000 0.98251  0.16500  0.06030  Biso   1.000  C
  C184     1.0000 0.33243  0.04070  0.28910  Biso   1.000  C
  C185     1.0000 0.94786  0.28590  0.03350  Biso   1.000  C
  C186     1.0000 0.29368  0.22630  0.21962  Biso   1.000  C
  C187     1.0000 0.93307  0.20710  0.08981  Biso   1.000  C
  C188     1.0000 0.32335  0.95310  0.29847  Biso   1.000  C
  H121     1.0000 0.30200  0.92500  0.28180  Biso   1.000  H
  C189     1.0000 0.01593  0.10660  0.06072  Biso   1.000  C
  C190     1.0000 0.25793  0.10450  0.19650  Biso   1.000  C
  C191     1.0000 0.30822  0.09390  0.25338  Biso   1.000  C
  C192     1.0000 0.90764  0.19080  0.12111  Biso   1.000  C
  C193     1.0000 0.96808  0.39110  0.98004  Biso   1.000  C
  H122     1.0000 0.99010  0.35760  0.98130  Biso   1.000  H
  C194     1.0000 0.34672  0.90860  0.33303  Biso   1.000  C
  H123     1.0000 0.34030  0.85040  0.33960  Biso   1.000  H
  C195     1.0000 0.28418  0.47380  0.19410  Biso   1.000  C
  H124     1.0000 0.26770  0.51230  0.17550  Biso   1.000  H
  C196     1.0000 0.33830  0.45240  0.24740  Biso   1.000  C
  H125     1.0000 0.35970  0.47570  0.26610  Biso   1.000  H
  C197     1.0000 0.90812  0.41530  0.00010  Biso   1.000  C
  H126     1.0000 0.88950  0.39930  0.01560  Biso   1.000  H
  C198     1.0000 0.36560  0.07830  0.31370  Biso   1.000  C
  H127     1.0000 0.37300  0.13610  0.30770  Biso   1.000  H
  C199     1.0000 0.89370  0.12450  0.18610  Biso   1.000  C
  H128     1.0000 0.90150  0.08940  0.21130  Biso   1.000  H
  C200     1.0000 0.17440  0.05700  0.10340  Biso   1.000  C
  H129     1.0000 0.15940  0.08740  0.07970  Biso   1.000  H
  C201     1.0000 0.33240  0.36040  0.24730  Biso   1.000  C
  H130     1.0000 0.34940  0.32330  0.26600  Biso   1.000  H
  C202     1.0000 0.20390  0.10350  0.13060  Biso   1.000  C
  H131     1.0000 0.20850  0.16340  0.12510  Biso   1.000  H
  C203     1.0000 0.90330  0.48910  0.97230  Biso   1.000  C
  H132     1.0000 0.88090  0.52220  0.96930  Biso   1.000  H
  C204     1.0000 0.38710  0.02860  0.34700  Biso   1.000  C
  H133     1.0000 0.40930  0.05400  0.36330  Biso   1.000  H
  C205     1.0000 0.06510  0.01290  0.09920  Biso   1.000  C
  H134     1.0000 0.07750  0.98710  0.12570  Biso   1.000  H
  C206     1.0000 0.03430  0.06540  0.09940  Biso   1.000  C
  H135     1.0000 0.02550  0.07370  0.12540  Biso   1.000  H
  C207     1.0000 0.30082  0.32440  0.21909  Biso   1.000  C
  C208     1.0000 0.96143  0.46730  0.95416  Biso   1.000  C
  H136     1.0000 0.98010  0.48580  0.93920  Biso   1.000  H
  C209     1.0000 0.03026  0.09350  0.02359  Biso   1.000  C
  H137     1.0000 0.01940  0.12200  0.99720  Biso   1.000  H
  C210     1.0000 0.27636  0.38310  0.19190  Biso   1.000  C
  H138     1.0000 0.25490  0.36140  0.17240  Biso   1.000  H
  C211     1.0000 0.06127  0.03720  0.02590  Biso   1.000  C
  H139     1.0000 0.07050  0.02710  0.00030  Biso   1.000  H
  C212     1.0000 0.87137  0.22890  0.11380  Biso   1.000  C
  H140     1.0000 0.86300  0.26560  0.08930  Biso   1.000  H
  C213     1.0000 0.21776  0.97100  0.17210  Biso   1.000  C
  H141     1.0000 0.23240  0.93860  0.19540  Biso   1.000  H
  C214     1.0000 0.84826  0.21170  0.14290  Biso   1.000  C
  H142     1.0000 0.82390  0.23620  0.13740  Biso   1.000  H
  C215     1.0000 0.91871  0.13600  0.15780  Biso   1.000  C
  H143     1.0000 0.94230  0.10760  0.16340  Biso   1.000  H
  C216     1.0000 0.18780  0.93100  0.14400  Biso   1.000  C
  H144     1.0000 0.18200  0.87160  0.14910  Biso   1.000  H
  I46      1.0000 0.47049  0.84263  0.37010  Biso   1.000  I
  I47      1.0000 0.76522  0.23419  0.19918  Biso   1.000  I
  I48      1.0000 0.86956  0.17165  0.30120  Biso   1.000  I
  I49      1.0000 0.14182  0.91044  0.99110  Biso   1.000  I
  I50      1.0000 0.10575  0.76649  0.10545  Biso   1.000  I
  N61      1.0000 0.31754  0.17970  0.25046  Biso   1.000  N
  N62      1.0000 0.97596  0.22960  0.02960  Biso   1.000  N
  N63      1.0000 0.96210  0.15020  0.09141  Biso   1.000  N
  N64      1.0000 0.27868  0.05260  0.22790  Biso   1.000  N
  N65      1.0000 0.92531  0.27710  0.06276  Biso   1.000  N
  N66      1.0000 0.26400  0.19250  0.19089  Biso   1.000  N
  N67      1.0000 0.85949  0.16080  0.17917  Biso   1.000  N
  N68      1.0000 0.16661  0.97350  0.10948  Biso   1.000  N
  N69      1.0000 0.07844  0.99670  0.06315  Biso   1.000  N
  N70      1.0000 0.31440  0.50920  0.22160  Biso   1.000  N
  N71      1.0000 0.37793  0.94540  0.35724  Biso   1.000  N
  N72      1.0000 0.92953  0.51540  0.94958  Biso   1.000  N
  Zn16     1.0000 0.82623  0.14505  0.22578  Biso   1.000  Zn
  Zn17     1.0000 0.12334  0.90937  0.06599  Biso   1.000  Zn
  Zn18     1.0000 0.41625  0.87768  0.40611  Biso   1.000  Zn
  I51      1.0000 0.38329  0.75970  0.44350  Biso   1.000  I
  I52      1.0000 0.37457  0.77600  0.44340  Biso   1.000  I
  I53      1.0000 0.48034  0.86400  0.36962  Biso   1.000  I
  I54      1.0000 0.11238  0.76780  0.09190  Biso   1.000  I
  C217     1.0000 0.44137  0.13450  0.50417  Biso   1.000  C
  C218     1.0000 0.72600  0.44000  0.66563  Biso   1.000  C
  C219     1.0000 0.48251  0.33500  0.56030  Biso   1.000  C
  C220     1.0000 0.83243  0.45930  0.78910  Biso   1.000  C
  C221     1.0000 0.44786  0.21410  0.53350  Biso   1.000  C
  C222     1.0000 0.79368  0.27370  0.71962  Biso   1.000  C
  C223     1.0000 0.43307  0.29290  0.58981  Biso   1.000  C
  C224     1.0000 0.82335  0.54690  0.79847  Biso   1.000  C
  H145     1.0000 0.80200  0.57500  0.78180  Biso   1.000  H
  C225     1.0000 0.51593  0.39340  0.56072  Biso   1.000  C
  C226     1.0000 0.75793  0.39550  0.69650  Biso   1.000  C
  C227     1.0000 0.80822  0.40610  0.75338  Biso   1.000  C
  C228     1.0000 0.40764  0.30920  0.62111  Biso   1.000  C
  C229     1.0000 0.46808  0.10890  0.48004  Biso   1.000  C
  H146     1.0000 0.49010  0.14240  0.48130  Biso   1.000  H
  C230     1.0000 0.84672  0.59140  0.83303  Biso   1.000  C
  H147     1.0000 0.84030  0.64960  0.83960  Biso   1.000  H
  C231     1.0000 0.78418  0.02620  0.69410  Biso   1.000  C
  H148     1.0000 0.76770  0.98770  0.67550  Biso   1.000  H
  C232     1.0000 0.83830  0.04760  0.74740  Biso   1.000  C
  H149     1.0000 0.85970  0.02430  0.76610  Biso   1.000  H
  C233     1.0000 0.40812  0.08470  0.50010  Biso   1.000  C
  H150     1.0000 0.38950  0.10070  0.51560  Biso   1.000  H
  C234     1.0000 0.86560  0.42170  0.81370  Biso   1.000  C
  H151     1.0000 0.87300  0.36390  0.80770  Biso   1.000  H
  C235     1.0000 0.39370  0.37550  0.68610  Biso   1.000  C
  H152     1.0000 0.40150  0.41060  0.71130  Biso   1.000  H
  C236     1.0000 0.67440  0.44300  0.60340  Biso   1.000  C
  H153     1.0000 0.65940  0.41260  0.57970  Biso   1.000  H
  C237     1.0000 0.83240  0.13960  0.74730  Biso   1.000  C
  H154     1.0000 0.84940  0.17670  0.76600  Biso   1.000  H
  C238     1.0000 0.70390  0.39650  0.63060  Biso   1.000  C
  H155     1.0000 0.70850  0.33660  0.62510  Biso   1.000  H
  C239     1.0000 0.40330  0.01090  0.47230  Biso   1.000  C
  H156     1.0000 0.38090  0.97780  0.46930  Biso   1.000  H
  C240     1.0000 0.88710  0.47140  0.84700  Biso   1.000  C
  H157     1.0000 0.90930  0.44600  0.86330  Biso   1.000  H
  C241     1.0000 0.56510  0.48710  0.59920  Biso   1.000  C
  H158     1.0000 0.57750  0.51290  0.62570  Biso   1.000  H
  C242     1.0000 0.53430  0.43460  0.59940  Biso   1.000  C
  H159     1.0000 0.52550  0.42630  0.62540  Biso   1.000  H
  C243     1.0000 0.80082  0.17560  0.71909  Biso   1.000  C
  C244     1.0000 0.46143  0.03270  0.45416  Biso   1.000  C
  H160     1.0000 0.48010  0.01420  0.43920  Biso   1.000  H
  C245     1.0000 0.53026  0.40650  0.52359  Biso   1.000  C
  H161     1.0000 0.51940  0.37800  0.49720  Biso   1.000  H
  C246     1.0000 0.77636  0.11690  0.69190  Biso   1.000  C
  H162     1.0000 0.75490  0.13860  0.67240  Biso   1.000  H
  C247     1.0000 0.56127  0.46280  0.52590  Biso   1.000  C
  H163     1.0000 0.57050  0.47290  0.50030  Biso   1.000  H
  C248     1.0000 0.37137  0.27110  0.61380  Biso   1.000  C
  H164     1.0000 0.36300  0.23440  0.58930  Biso   1.000  H
  C249     1.0000 0.71776  0.52900  0.67210  Biso   1.000  C
  H165     1.0000 0.73240  0.56140  0.69540  Biso   1.000  H
  C250     1.0000 0.34826  0.28830  0.64290  Biso   1.000  C
  H166     1.0000 0.32390  0.26380  0.63740  Biso   1.000  H
  C251     1.0000 0.41871  0.36400  0.65780  Biso   1.000  C
  H167     1.0000 0.44230  0.39240  0.66340  Biso   1.000  H
  C252     1.0000 0.68780  0.56900  0.64400  Biso   1.000  C
  H168     1.0000 0.68200  0.62840  0.64910  Biso   1.000  H
  I55      1.0000 0.97049  0.65737  0.87010  Biso   1.000  I
  I56      1.0000 0.26522  0.26581  0.69918  Biso   1.000  I
  I57      1.0000 0.36956  0.32835  0.80120  Biso   1.000  I
  I58      1.0000 0.64182  0.58956  0.49110  Biso   1.000  I
  I59      1.0000 0.60575  0.73351  0.60545  Biso   1.000  I
  N73      1.0000 0.81754  0.32030  0.75046  Biso   1.000  N
  N74      1.0000 0.47596  0.27040  0.52960  Biso   1.000  N
  N75      1.0000 0.46210  0.34980  0.59141  Biso   1.000  N
  N76      1.0000 0.77868  0.44740  0.72790  Biso   1.000  N
  N77      1.0000 0.42531  0.22290  0.56276  Biso   1.000  N
  N78      1.0000 0.76400  0.30750  0.69089  Biso   1.000  N
  N79      1.0000 0.35949  0.33920  0.67917  Biso   1.000  N
  N80      1.0000 0.66661  0.52650  0.60948  Biso   1.000  N
  N81      1.0000 0.57844  0.50330  0.56315  Biso   1.000  N
  N82      1.0000 0.81440  0.99080  0.72160  Biso   1.000  N
  N83      1.0000 0.87793  0.55460  0.85724  Biso   1.000  N
  N84      1.0000 0.42953  0.98460  0.44958  Biso   1.000  N
  Zn19     1.0000 0.32623  0.35495  0.72578  Biso   1.000  Zn
  Zn20     1.0000 0.62334  0.59063  0.56599  Biso   1.000  Zn
  Zn21     1.0000 0.91625  0.62232  0.90611  Biso   1.000  Zn
  I60      1.0000 0.88329  0.74030  0.94350  Biso   1.000  I
  I61      1.0000 0.87457  0.72400  0.94340  Biso   1.000  I
  I62      1.0000 0.98034  0.63600  0.86962  Biso   1.000  I
  I63      1.0000 0.61238  0.73220  0.59190  Biso   1.000  I
  C253     1.0000 0.94137  0.63450  0.50417  Biso   1.000  C
  C254     1.0000 0.22600  0.94000  0.66563  Biso   1.000  C
  C255     1.0000 0.98251  0.83500  0.56030  Biso   1.000  C
  C256     1.0000 0.33243  0.95930  0.78910  Biso   1.000  C
  C257     1.0000 0.94786  0.71410  0.53350  Biso   1.000  C
  C258     1.0000 0.29368  0.77370  0.71962  Biso   1.000  C
  C259     1.0000 0.93307  0.79290  0.58981  Biso   1.000  C
  C260     1.0000 0.32335  0.04690  0.79847  Biso   1.000  C
  H169     1.0000 0.30200  0.07500  0.78180  Biso   1.000  H
  C261     1.0000 0.01593  0.89340  0.56072  Biso   1.000  C
  C262     1.0000 0.25793  0.89550  0.69650  Biso   1.000  C
  C263     1.0000 0.30822  0.90610  0.75338  Biso   1.000  C
  C264     1.0000 0.90764  0.80920  0.62111  Biso   1.000  C
  C265     1.0000 0.96808  0.60890  0.48004  Biso   1.000  C
  H170     1.0000 0.99010  0.64240  0.48130  Biso   1.000  H
  C266     1.0000 0.34672  0.09140  0.83303  Biso   1.000  C
  H171     1.0000 0.34030  0.14960  0.83960  Biso   1.000  H
  C267     1.0000 0.28418  0.52620  0.69410  Biso   1.000  C
  H172     1.0000 0.26770  0.48770  0.67550  Biso   1.000  H
  C268     1.0000 0.33830  0.54760  0.74740  Biso   1.000  C
  H173     1.0000 0.35970  0.52430  0.76610  Biso   1.000  H
  C269     1.0000 0.90812  0.58470  0.50010  Biso   1.000  C
  H174     1.0000 0.88950  0.60070  0.51560  Biso   1.000  H
  C270     1.0000 0.36560  0.92170  0.81370  Biso   1.000  C
  H175     1.0000 0.37300  0.86390  0.80770  Biso   1.000  H
  C271     1.0000 0.89370  0.87550  0.68610  Biso   1.000  C
  H176     1.0000 0.90150  0.91060  0.71130  Biso   1.000  H
  C272     1.0000 0.17440  0.94300  0.60340  Biso   1.000  C
  H177     1.0000 0.15940  0.91260  0.57970  Biso   1.000  H
  C273     1.0000 0.33240  0.63960  0.74730  Biso   1.000  C
  H178     1.0000 0.34940  0.67670  0.76600  Biso   1.000  H
  C274     1.0000 0.20390  0.89650  0.63060  Biso   1.000  C
  H179     1.0000 0.20850  0.83660  0.62510  Biso   1.000  H
  C275     1.0000 0.90330  0.51090  0.47230  Biso   1.000  C
  H180     1.0000 0.88090  0.47780  0.46930  Biso   1.000  H
  C276     1.0000 0.38710  0.97140  0.84700  Biso   1.000  C
  H181     1.0000 0.40930  0.94600  0.86330  Biso   1.000  H
  C277     1.0000 0.06510  0.98710  0.59920  Biso   1.000  C
  H182     1.0000 0.07750  0.01290  0.62570  Biso   1.000  H
  C278     1.0000 0.03430  0.93460  0.59940  Biso   1.000  C
  H183     1.0000 0.02550  0.92630  0.62540  Biso   1.000  H
  C279     1.0000 0.30082  0.67560  0.71909  Biso   1.000  C
  C280     1.0000 0.96143  0.53270  0.45416  Biso   1.000  C
  H184     1.0000 0.98010  0.51420  0.43920  Biso   1.000  H
  C281     1.0000 0.03026  0.90650  0.52359  Biso   1.000  C
  H185     1.0000 0.01940  0.87800  0.49720  Biso   1.000  H
  C282     1.0000 0.27636  0.61690  0.69190  Biso   1.000  C
  H186     1.0000 0.25490  0.63860  0.67240  Biso   1.000  H
  C283     1.0000 0.06127  0.96280  0.52590  Biso   1.000  C
  H187     1.0000 0.07050  0.97290  0.50030  Biso   1.000  H
  C284     1.0000 0.87137  0.77110  0.61380  Biso   1.000  C
  H188     1.0000 0.86300  0.73440  0.58930  Biso   1.000  H
  C285     1.0000 0.21776  0.02900  0.67210  Biso   1.000  C
  H189     1.0000 0.23240  0.06140  0.69540  Biso   1.000  H
  C286     1.0000 0.84826  0.78830  0.64290  Biso   1.000  C
  H190     1.0000 0.82390  0.76380  0.63740  Biso   1.000  H
  C287     1.0000 0.91871  0.86400  0.65780  Biso   1.000  C
  H191     1.0000 0.94230  0.89240  0.66340  Biso   1.000  H
  C288     1.0000 0.18780  0.06900  0.64400  Biso   1.000  C
  H192     1.0000 0.18200  0.12840  0.64910  Biso   1.000  H
  I64      1.0000 0.47049  0.15737  0.87010  Biso   1.000  I
  I65      1.0000 0.76522  0.76581  0.69918  Biso   1.000  I
  I66      1.0000 0.86956  0.82835  0.80120  Biso   1.000  I
  I67      1.0000 0.14182  0.08956  0.49110  Biso   1.000  I
  I68      1.0000 0.10575  0.23351  0.60545  Biso   1.000  I
  N85      1.0000 0.31754  0.82030  0.75046  Biso   1.000  N
  N86      1.0000 0.97596  0.77040  0.52960  Biso   1.000  N
  N87      1.0000 0.96210  0.84980  0.59141  Biso   1.000  N
  N88      1.0000 0.27868  0.94740  0.72790  Biso   1.000  N
  N89      1.0000 0.92531  0.72290  0.56276  Biso   1.000  N
  N90      1.0000 0.26400  0.80750  0.69089  Biso   1.000  N
  N91      1.0000 0.85949  0.83920  0.67917  Biso   1.000  N
  N92      1.0000 0.16661  0.02650  0.60948  Biso   1.000  N
  N93      1.0000 0.07844  0.00330  0.56315  Biso   1.000  N
  N94      1.0000 0.31440  0.49080  0.72160  Biso   1.000  N
  N95      1.0000 0.37793  0.05460  0.85724  Biso   1.000  N
  N96      1.0000 0.92953  0.48460  0.44958  Biso   1.000  N
  Zn22     1.0000 0.82623  0.85495  0.72578  Biso   1.000  Zn
  Zn23     1.0000 0.12334  0.09063  0.56599  Biso   1.000  Zn
  Zn24     1.0000 0.41625  0.12232  0.90611  Biso   1.000  Zn
  I69      1.0000 0.38329  0.24030  0.94350  Biso   1.000  I
  I70      1.0000 0.37457  0.22400  0.94340  Biso   1.000  I
  I71      1.0000 0.48034  0.13600  0.86962  Biso   1.000  I
  I72      1.0000 0.11238  0.23220  0.59190  Biso   1.000  I
