data_image0
_cell_length_a       35.4076
_cell_length_b       14.8501
_cell_length_c       30.9056
_cell_angle_alpha    90
_cell_angle_beta     101.972
_cell_angle_gamma    90

_symmetry_space_group_name_H-M    "P 1"
_symmetry_int_tables_number       1

loop_
  _symmetry_equiv_pos_as_xyz
  'x, y, z'

loop_
  _atom_site_label
  _atom_site_occupancy
  _atom_site_fract_x
  _atom_site_fract_y
  _atom_site_fract_z
  _atom_site_thermal_displace_type
  _atom_site_B_iso_or_equiv
  _atom_site_type_symbol
  I1       1.0000 0.76774  0.73436  0.70723  Biso   1.000  I
  I2       1.0000 0.47140  0.65192  0.37040  Biso   1.000  I
  I3       1.0000 0.87059  0.65295  0.80719  Biso   1.000  I
  I4       1.0000 0.64343  0.90904  0.48596  Biso   1.000  I
  I5       1.0000 0.60370  0.76281  0.59934  Biso   1.000  I
  I6       1.0000 0.37808  0.73782  0.44353  Biso   1.000  I
  Zn1      1.0000 0.41438  0.62461  0.40699  Biso   1.000  Zn
  Zn2      1.0000 0.62307  0.90380  0.55972  Biso   1.000  Zn
  Zn3      1.0000 0.82820  0.63950  0.73012  Biso   1.000  Zn
  N1       1.0000 0.81578  0.50300  0.72080  Biso   1.000  N
  N2       1.0000 0.81774  0.17400  0.74710  Biso   1.000  N
  N3       1.0000 0.42848  0.51920  0.45210  Biso   1.000  N
  N4       1.0000 0.77699  0.04820  0.72600  Biso   1.000  N
  N5       1.0000 0.66634  0.96700  0.60490  Biso   1.000  N
  N6       1.0000 0.47543  0.23090  0.52951  Biso   1.000  N
  N7       1.0000 0.36203  0.16110  0.68410  Biso   1.000  N
  N8       1.0000 0.76460  0.18640  0.68660  Biso   1.000  N
  N9       1.0000 0.57694  0.99030  0.55710  Biso   1.000  N
  N10      1.0000 0.42557  0.27940  0.56510  Biso   1.000  N
  N11      1.0000 0.46138  0.14810  0.59000  Biso   1.000  N
  C1       1.0000 0.80710  0.08960  0.75170  Biso   1.000  C
  C2       1.0000 0.43340  0.20710  0.59160  Biso   1.000  C
  C3       1.0000 0.75750  0.09900  0.69290  Biso   1.000  C
  C4       1.0000 0.72540  0.05460  0.66180  Biso   1.000  C
  C5       1.0000 0.48150  0.16410  0.55890  Biso   1.000  C
  C6       1.0000 0.44140  0.36930  0.50650  Biso   1.000  C
  C7       1.0000 0.80210  0.31840  0.71450  Biso   1.000  C
  C8       1.0000 0.79450  0.22000  0.71550  Biso   1.000  C
  C9       1.0000 0.56260  0.04140  0.52240  Biso   1.000  C
  H1       1.0000 0.57400  0.03870  0.49720  Biso   1.000  H
  C10      1.0000 0.67760  0.04980  0.59540  Biso   1.000  C
  H2       1.0000 0.66530  0.07720  0.56840  Biso   1.000  H
  C11      1.0000 0.35100  0.21750  0.64910  Biso   1.000  C
  H3       1.0000 0.32660  0.24660  0.64550  Biso   1.000  H
  C12      1.0000 0.51430  0.10190  0.55740  Biso   1.000  C
  C13      1.0000 0.46740  0.39270  0.48070  Biso   1.000  C
  H4       1.0000 0.48980  0.35730  0.48090  Biso   1.000  H
  C14      1.0000 0.40890  0.19140  0.62370  Biso   1.000  C
  C15      1.0000 0.70630  0.09630  0.62360  Biso   1.000  C
  H5       1.0000 0.71280  0.15590  0.61680  Biso   1.000  H
  C16      1.0000 0.44762  0.28860  0.53520  Biso   1.000  C
  C17      1.0000 0.78330  0.47010  0.69590  Biso   1.000  C
  H6       1.0000 0.76480  0.51120  0.68030  Biso   1.000  H
  C18      1.0000 0.40310  0.49510  0.47700  Biso   1.000  C
  H7       1.0000 0.38070  0.53080  0.47580  Biso   1.000  H
  C19      1.0000 0.71420  0.96810  0.67080  Biso   1.000  C
  H8       1.0000 0.72690  0.93790  0.69690  Biso   1.000  H
  C20      1.0000 0.46010  0.46870  0.45460  Biso   1.000  C
  H9       1.0000 0.47840  0.48590  0.43760  Biso   1.000  H
  C21      1.0000 0.68480  0.92630  0.64190  Biso   1.000  C
  H10      1.0000 0.67730  0.86720  0.64840  Biso   1.000  H
  C22      1.0000 0.84220  0.44410  0.74210  Biso   1.000  C
  H11      1.0000 0.86570  0.46660  0.75930  Biso   1.000  H
  C23      1.0000 0.77560  0.37920  0.69180  Biso   1.000  C
  H12      1.0000 0.75230  0.35850  0.67360  Biso   1.000  H
  C24      1.0000 0.37340  0.23400  0.61900  Biso   1.000  C
  H13      1.0000 0.36480  0.27420  0.59510  Biso   1.000  H
  C25      1.0000 0.40850  0.42190  0.50390  Biso   1.000  C
  H14      1.0000 0.38980  0.40660  0.52070  Biso   1.000  H
  C26      1.0000 0.53170  0.09850  0.52160  Biso   1.000  C
  H15      1.0000 0.52250  0.13510  0.49640  Biso   1.000  H
  C27      1.0000 0.83630  0.35220  0.73990  Biso   1.000  C
  H16      1.0000 0.85530  0.31240  0.75550  Biso   1.000  H
  C28      1.0000 0.39570  0.12160  0.68820  Biso   1.000  C
  H17      1.0000 0.40390  0.08270  0.71270  Biso   1.000  H
  C29      1.0000 0.52980  0.05040  0.59340  Biso   1.000  C
  H18      1.0000 0.51960  0.05320  0.61950  Biso   1.000  H
  C30      1.0000 0.41990  0.13350  0.65870  Biso   1.000  C
  H19      1.0000 0.44380  0.10220  0.66270  Biso   1.000  H
  C31      1.0000 0.56010  0.99490  0.59120  Biso   1.000  C
  H20      1.0000 0.56960  0.95710  0.61580  Biso   1.000  H
  C32      1.0000 0.83062  0.03802  0.78878  Biso   1.000  C
  C33      1.0000 0.82372  0.94673  0.79517  Biso   1.000  C
  H21      1.0000 0.80400  0.91560  0.77520  Biso   1.000  H
  C34      1.0000 0.86035  0.08000  0.81790  Biso   1.000  C
  H22      1.0000 0.86580  0.14200  0.81460  Biso   1.000  H
  C35      1.0000 0.84578  0.90230  0.83078  Biso   1.000  C
  H23      1.0000 0.84020  0.84110  0.83590  Biso   1.000  H
  C36      1.0000 0.88198  0.02990  0.85186  Biso   1.000  C
  H24      1.0000 0.90280  0.05850  0.87130  Biso   1.000  H
  N12      1.0000 0.87504  0.94350  0.85858  Biso   1.000  N
  I7       1.0000 0.61133  0.76200  0.59040  Biso   1.000  I
  I8       1.0000 0.75740  0.72490  0.69240  Biso   1.000  I
  I9       1.0000 0.26774  0.23436  0.70723  Biso   1.000  I
  I10      1.0000 0.97140  0.15192  0.37040  Biso   1.000  I
  I11      1.0000 0.37059  0.15295  0.80719  Biso   1.000  I
  I12      1.0000 0.14343  0.40904  0.48596  Biso   1.000  I
  I13      1.0000 0.10370  0.26281  0.59934  Biso   1.000  I
  I14      1.0000 0.87808  0.23782  0.44353  Biso   1.000  I
  Zn4      1.0000 0.91438  0.12461  0.40699  Biso   1.000  Zn
  Zn5      1.0000 0.12307  0.40380  0.55972  Biso   1.000  Zn
  Zn6      1.0000 0.32820  0.13950  0.73012  Biso   1.000  Zn
  N13      1.0000 0.31578  0.00300  0.72080  Biso   1.000  N
  N14      1.0000 0.31774  0.67400  0.74710  Biso   1.000  N
  N15      1.0000 0.92848  0.01920  0.45210  Biso   1.000  N
  N16      1.0000 0.27699  0.54820  0.72600  Biso   1.000  N
  N17      1.0000 0.16634  0.46700  0.60490  Biso   1.000  N
  N18      1.0000 0.97543  0.73090  0.52951  Biso   1.000  N
  N19      1.0000 0.86203  0.66110  0.68410  Biso   1.000  N
  N20      1.0000 0.26460  0.68640  0.68660  Biso   1.000  N
  N21      1.0000 0.07694  0.49030  0.55710  Biso   1.000  N
  N22      1.0000 0.92557  0.77940  0.56510  Biso   1.000  N
  N23      1.0000 0.96138  0.64810  0.59000  Biso   1.000  N
  C37      1.0000 0.30710  0.58960  0.75170  Biso   1.000  C
  C38      1.0000 0.93340  0.70710  0.59160  Biso   1.000  C
  C39      1.0000 0.25750  0.59900  0.69290  Biso   1.000  C
  C40      1.0000 0.22540  0.55460  0.66180  Biso   1.000  C
  C41      1.0000 0.98150  0.66410  0.55890  Biso   1.000  C
  C42      1.0000 0.94140  0.86930  0.50650  Biso   1.000  C
  C43      1.0000 0.30210  0.81840  0.71450  Biso   1.000  C
  C44      1.0000 0.29450  0.72000  0.71550  Biso   1.000  C
  C45      1.0000 0.06260  0.54140  0.52240  Biso   1.000  C
  H25      1.0000 0.07400  0.53870  0.49720  Biso   1.000  H
  C46      1.0000 0.17760  0.54980  0.59540  Biso   1.000  C
  H26      1.0000 0.16530  0.57720  0.56840  Biso   1.000  H
  C47      1.0000 0.85100  0.71750  0.64910  Biso   1.000  C
  H27      1.0000 0.82660  0.74660  0.64550  Biso   1.000  H
  C48      1.0000 0.01430  0.60190  0.55740  Biso   1.000  C
  C49      1.0000 0.96740  0.89270  0.48070  Biso   1.000  C
  H28      1.0000 0.98980  0.85730  0.48090  Biso   1.000  H
  C50      1.0000 0.90890  0.69140  0.62370  Biso   1.000  C
  C51      1.0000 0.20630  0.59630  0.62360  Biso   1.000  C
  H29      1.0000 0.21280  0.65590  0.61680  Biso   1.000  H
  C52      1.0000 0.94762  0.78860  0.53520  Biso   1.000  C
  C53      1.0000 0.28330  0.97010  0.69590  Biso   1.000  C
  H30      1.0000 0.26480  0.01120  0.68030  Biso   1.000  H
  C54      1.0000 0.90310  0.99510  0.47700  Biso   1.000  C
  H31      1.0000 0.88070  0.03080  0.47580  Biso   1.000  H
  C55      1.0000 0.21420  0.46810  0.67080  Biso   1.000  C
  H32      1.0000 0.22690  0.43790  0.69690  Biso   1.000  H
  C56      1.0000 0.96010  0.96870  0.45460  Biso   1.000  C
  H33      1.0000 0.97840  0.98590  0.43760  Biso   1.000  H
  C57      1.0000 0.18480  0.42630  0.64190  Biso   1.000  C
  H34      1.0000 0.17730  0.36720  0.64840  Biso   1.000  H
  C58      1.0000 0.34220  0.94410  0.74210  Biso   1.000  C
  H35      1.0000 0.36570  0.96660  0.75930  Biso   1.000  H
  C59      1.0000 0.27560  0.87920  0.69180  Biso   1.000  C
  H36      1.0000 0.25230  0.85850  0.67360  Biso   1.000  H
  C60      1.0000 0.87340  0.73400  0.61900  Biso   1.000  C
  H37      1.0000 0.86480  0.77420  0.59510  Biso   1.000  H
  C61      1.0000 0.90850  0.92190  0.50390  Biso   1.000  C
  H38      1.0000 0.88980  0.90660  0.52070  Biso   1.000  H
  C62      1.0000 0.03170  0.59850  0.52160  Biso   1.000  C
  H39      1.0000 0.02250  0.63510  0.49640  Biso   1.000  H
  C63      1.0000 0.33630  0.85220  0.73990  Biso   1.000  C
  H40      1.0000 0.35530  0.81240  0.75550  Biso   1.000  H
  C64      1.0000 0.89570  0.62160  0.68820  Biso   1.000  C
  H41      1.0000 0.90390  0.58270  0.71270  Biso   1.000  H
  C65      1.0000 0.02980  0.55040  0.59340  Biso   1.000  C
  H42      1.0000 0.01960  0.55320  0.61950  Biso   1.000  H
  C66      1.0000 0.91990  0.63350  0.65870  Biso   1.000  C
  H43      1.0000 0.94380  0.60220  0.66270  Biso   1.000  H
  C67      1.0000 0.06010  0.49490  0.59120  Biso   1.000  C
  H44      1.0000 0.06960  0.45710  0.61580  Biso   1.000  H
  C68      1.0000 0.33062  0.53802  0.78878  Biso   1.000  C
  C69      1.0000 0.32372  0.44673  0.79517  Biso   1.000  C
  H45      1.0000 0.30400  0.41560  0.77520  Biso   1.000  H
  C70      1.0000 0.36035  0.58000  0.81790  Biso   1.000  C
  H46      1.0000 0.36580  0.64200  0.81460  Biso   1.000  H
  C71      1.0000 0.34578  0.40230  0.83078  Biso   1.000  C
  H47      1.0000 0.34020  0.34110  0.83590  Biso   1.000  H
  C72      1.0000 0.38198  0.52990  0.85186  Biso   1.000  C
  H48      1.0000 0.40280  0.55850  0.87130  Biso   1.000  H
  N24      1.0000 0.37504  0.44350  0.85858  Biso   1.000  N
  I15      1.0000 0.11133  0.26200  0.59040  Biso   1.000  I
  I16      1.0000 0.25740  0.22490  0.69240  Biso   1.000  I
  I17      1.0000 0.76774  0.26564  0.20723  Biso   1.000  I
  I18      1.0000 0.47140  0.34808  0.87040  Biso   1.000  I
  I19      1.0000 0.87059  0.34705  0.30719  Biso   1.000  I
  I20      1.0000 0.64343  0.09096  0.98596  Biso   1.000  I
  I21      1.0000 0.60370  0.23719  0.09934  Biso   1.000  I
  I22      1.0000 0.37808  0.26218  0.94353  Biso   1.000  I
  Zn7      1.0000 0.41438  0.37539  0.90699  Biso   1.000  Zn
  Zn8      1.0000 0.62307  0.09620  0.05972  Biso   1.000  Zn
  Zn9      1.0000 0.82820  0.36050  0.23012  Biso   1.000  Zn
  N25      1.0000 0.81578  0.49700  0.22080  Biso   1.000  N
  N26      1.0000 0.81774  0.82600  0.24710  Biso   1.000  N
  N27      1.0000 0.42848  0.48080  0.95210  Biso   1.000  N
  N28      1.0000 0.77699  0.95180  0.22600  Biso   1.000  N
  N29      1.0000 0.66634  0.03300  0.10490  Biso   1.000  N
  N30      1.0000 0.47543  0.76910  0.02951  Biso   1.000  N
  N31      1.0000 0.36203  0.83890  0.18410  Biso   1.000  N
  N32      1.0000 0.76460  0.81360  0.18660  Biso   1.000  N
  N33      1.0000 0.57694  0.00970  0.05710  Biso   1.000  N
  N34      1.0000 0.42557  0.72060  0.06510  Biso   1.000  N
  N35      1.0000 0.46138  0.85190  0.09000  Biso   1.000  N
  C73      1.0000 0.80710  0.91040  0.25170  Biso   1.000  C
  C74      1.0000 0.43340  0.79290  0.09160  Biso   1.000  C
  C75      1.0000 0.75750  0.90100  0.19290  Biso   1.000  C
  C76      1.0000 0.72540  0.94540  0.16180  Biso   1.000  C
  C77      1.0000 0.48150  0.83590  0.05890  Biso   1.000  C
  C78      1.0000 0.44140  0.63070  0.00650  Biso   1.000  C
  C79      1.0000 0.80210  0.68160  0.21450  Biso   1.000  C
  C80      1.0000 0.79450  0.78000  0.21550  Biso   1.000  C
  C81      1.0000 0.56260  0.95860  0.02240  Biso   1.000  C
  H49      1.0000 0.57400  0.96130  0.99720  Biso   1.000  H
  C82      1.0000 0.67760  0.95020  0.09540  Biso   1.000  C
  H50      1.0000 0.66530  0.92280  0.06840  Biso   1.000  H
  C83      1.0000 0.35100  0.78250  0.14910  Biso   1.000  C
  H51      1.0000 0.32660  0.75340  0.14550  Biso   1.000  H
  C84      1.0000 0.51430  0.89810  0.05740  Biso   1.000  C
  C85      1.0000 0.46740  0.60730  0.98070  Biso   1.000  C
  H52      1.0000 0.48980  0.64270  0.98090  Biso   1.000  H
  C86      1.0000 0.40890  0.80860  0.12370  Biso   1.000  C
  C87      1.0000 0.70630  0.90370  0.12360  Biso   1.000  C
  H53      1.0000 0.71280  0.84410  0.11680  Biso   1.000  H
  C88      1.0000 0.44762  0.71140  0.03520  Biso   1.000  C
  C89      1.0000 0.78330  0.52990  0.19590  Biso   1.000  C
  H54      1.0000 0.76480  0.48880  0.18030  Biso   1.000  H
  C90      1.0000 0.40310  0.50490  0.97700  Biso   1.000  C
  H55      1.0000 0.38070  0.46920  0.97580  Biso   1.000  H
  C91      1.0000 0.71420  0.03190  0.17080  Biso   1.000  C
  H56      1.0000 0.72690  0.06210  0.19690  Biso   1.000  H
  C92      1.0000 0.46010  0.53130  0.95460  Biso   1.000  C
  H57      1.0000 0.47840  0.51410  0.93760  Biso   1.000  H
  C93      1.0000 0.68480  0.07370  0.14190  Biso   1.000  C
  H58      1.0000 0.67730  0.13280  0.14840  Biso   1.000  H
  C94      1.0000 0.84220  0.55590  0.24210  Biso   1.000  C
  H59      1.0000 0.86570  0.53340  0.25930  Biso   1.000  H
  C95      1.0000 0.77560  0.62080  0.19180  Biso   1.000  C
  H60      1.0000 0.75230  0.64150  0.17360  Biso   1.000  H
  C96      1.0000 0.37340  0.76600  0.11900  Biso   1.000  C
  H61      1.0000 0.36480  0.72580  0.09510  Biso   1.000  H
  C97      1.0000 0.40850  0.57810  0.00390  Biso   1.000  C
  H62      1.0000 0.38980  0.59340  0.02070  Biso   1.000  H
  C98      1.0000 0.53170  0.90150  0.02160  Biso   1.000  C
  H63      1.0000 0.52250  0.86490  0.99640  Biso   1.000  H
  C99      1.0000 0.83630  0.64780  0.23990  Biso   1.000  C
  H64      1.0000 0.85530  0.68760  0.25550  Biso   1.000  H
  C100     1.0000 0.39570  0.87840  0.18820  Biso   1.000  C
  H65      1.0000 0.40390  0.91730  0.21270  Biso   1.000  H
  C101     1.0000 0.52980  0.94960  0.09340  Biso   1.000  C
  H66      1.0000 0.51960  0.94680  0.11950  Biso   1.000  H
  C102     1.0000 0.41990  0.86650  0.15870  Biso   1.000  C
  H67      1.0000 0.44380  0.89780  0.16270  Biso   1.000  H
  C103     1.0000 0.56010  0.00510  0.09120  Biso   1.000  C
  H68      1.0000 0.56960  0.04290  0.11580  Biso   1.000  H
  C104     1.0000 0.83062  0.96198  0.28878  Biso   1.000  C
  C105     1.0000 0.82372  0.05327  0.29517  Biso   1.000  C
  H69      1.0000 0.80400  0.08440  0.27520  Biso   1.000  H
  C106     1.0000 0.86035  0.92000  0.31790  Biso   1.000  C
  H70      1.0000 0.86580  0.85800  0.31460  Biso   1.000  H
  C107     1.0000 0.84578  0.09770  0.33078  Biso   1.000  C
  H71      1.0000 0.84020  0.15890  0.33590  Biso   1.000  H
  C108     1.0000 0.88198  0.97010  0.35186  Biso   1.000  C
  H72      1.0000 0.90280  0.94150  0.37130  Biso   1.000  H
  N36      1.0000 0.87504  0.05650  0.35858  Biso   1.000  N
  I23      1.0000 0.61133  0.23800  0.09040  Biso   1.000  I
  I24      1.0000 0.75740  0.27510  0.19240  Biso   1.000  I
  I25      1.0000 0.26774  0.76564  0.20723  Biso   1.000  I
  I26      1.0000 0.97140  0.84808  0.87040  Biso   1.000  I
  I27      1.0000 0.37059  0.84705  0.30719  Biso   1.000  I
  I28      1.0000 0.14343  0.59096  0.98596  Biso   1.000  I
  I29      1.0000 0.10370  0.73719  0.09934  Biso   1.000  I
  I30      1.0000 0.87808  0.76218  0.94353  Biso   1.000  I
  Zn10     1.0000 0.91438  0.87539  0.90699  Biso   1.000  Zn
  Zn11     1.0000 0.12307  0.59620  0.05972  Biso   1.000  Zn
  Zn12     1.0000 0.32820  0.86050  0.23012  Biso   1.000  Zn
  N37      1.0000 0.31578  0.99700  0.22080  Biso   1.000  N
  N38      1.0000 0.31774  0.32600  0.24710  Biso   1.000  N
  N39      1.0000 0.92848  0.98080  0.95210  Biso   1.000  N
  N40      1.0000 0.27699  0.45180  0.22600  Biso   1.000  N
  N41      1.0000 0.16634  0.53300  0.10490  Biso   1.000  N
  N42      1.0000 0.97543  0.26910  0.02951  Biso   1.000  N
  N43      1.0000 0.86203  0.33890  0.18410  Biso   1.000  N
  N44      1.0000 0.26460  0.31360  0.18660  Biso   1.000  N
  N45      1.0000 0.07694  0.50970  0.05710  Biso   1.000  N
  N46      1.0000 0.92557  0.22060  0.06510  Biso   1.000  N
  N47      1.0000 0.96138  0.35190  0.09000  Biso   1.000  N
  C109     1.0000 0.30710  0.41040  0.25170  Biso   1.000  C
  C110     1.0000 0.93340  0.29290  0.09160  Biso   1.000  C
  C111     1.0000 0.25750  0.40100  0.19290  Biso   1.000  C
  C112     1.0000 0.22540  0.44540  0.16180  Biso   1.000  C
  C113     1.0000 0.98150  0.33590  0.05890  Biso   1.000  C
  C114     1.0000 0.94140  0.13070  0.00650  Biso   1.000  C
  C115     1.0000 0.30210  0.18160  0.21450  Biso   1.000  C
  C116     1.0000 0.29450  0.28000  0.21550  Biso   1.000  C
  C117     1.0000 0.06260  0.45860  0.02240  Biso   1.000  C
  H73      1.0000 0.07400  0.46130  0.99720  Biso   1.000  H
  C118     1.0000 0.17760  0.45020  0.09540  Biso   1.000  C
  H74      1.0000 0.16530  0.42280  0.06840  Biso   1.000  H
  C119     1.0000 0.85100  0.28250  0.14910  Biso   1.000  C
  H75      1.0000 0.82660  0.25340  0.14550  Biso   1.000  H
  C120     1.0000 0.01430  0.39810  0.05740  Biso   1.000  C
  C121     1.0000 0.96740  0.10730  0.98070  Biso   1.000  C
  H76      1.0000 0.98980  0.14270  0.98090  Biso   1.000  H
  C122     1.0000 0.90890  0.30860  0.12370  Biso   1.000  C
  C123     1.0000 0.20630  0.40370  0.12360  Biso   1.000  C
  H77      1.0000 0.21280  0.34410  0.11680  Biso   1.000  H
  C124     1.0000 0.94762  0.21140  0.03520  Biso   1.000  C
  C125     1.0000 0.28330  0.02990  0.19590  Biso   1.000  C
  H78      1.0000 0.26480  0.98880  0.18030  Biso   1.000  H
  C126     1.0000 0.90310  0.00490  0.97700  Biso   1.000  C
  H79      1.0000 0.88070  0.96920  0.97580  Biso   1.000  H
  C127     1.0000 0.21420  0.53190  0.17080  Biso   1.000  C
  H80      1.0000 0.22690  0.56210  0.19690  Biso   1.000  H
  C128     1.0000 0.96010  0.03130  0.95460  Biso   1.000  C
  H81      1.0000 0.97840  0.01410  0.93760  Biso   1.000  H
  C129     1.0000 0.18480  0.57370  0.14190  Biso   1.000  C
  H82      1.0000 0.17730  0.63280  0.14840  Biso   1.000  H
  C130     1.0000 0.34220  0.05590  0.24210  Biso   1.000  C
  H83      1.0000 0.36570  0.03340  0.25930  Biso   1.000  H
  C131     1.0000 0.27560  0.12080  0.19180  Biso   1.000  C
  H84      1.0000 0.25230  0.14150  0.17360  Biso   1.000  H
  C132     1.0000 0.87340  0.26600  0.11900  Biso   1.000  C
  H85      1.0000 0.86480  0.22580  0.09510  Biso   1.000  H
  C133     1.0000 0.90850  0.07810  0.00390  Biso   1.000  C
  H86      1.0000 0.88980  0.09340  0.02070  Biso   1.000  H
  C134     1.0000 0.03170  0.40150  0.02160  Biso   1.000  C
  H87      1.0000 0.02250  0.36490  0.99640  Biso   1.000  H
  C135     1.0000 0.33630  0.14780  0.23990  Biso   1.000  C
  H88      1.0000 0.35530  0.18760  0.25550  Biso   1.000  H
  C136     1.0000 0.89570  0.37840  0.18820  Biso   1.000  C
  H89      1.0000 0.90390  0.41730  0.21270  Biso   1.000  H
  C137     1.0000 0.02980  0.44960  0.09340  Biso   1.000  C
  H90      1.0000 0.01960  0.44680  0.11950  Biso   1.000  H
  C138     1.0000 0.91990  0.36650  0.15870  Biso   1.000  C
  H91      1.0000 0.94380  0.39780  0.16270  Biso   1.000  H
  C139     1.0000 0.06010  0.50510  0.09120  Biso   1.000  C
  H92      1.0000 0.06960  0.54290  0.11580  Biso   1.000  H
  C140     1.0000 0.33062  0.46198  0.28878  Biso   1.000  C
  C141     1.0000 0.32372  0.55327  0.29517  Biso   1.000  C
  H93      1.0000 0.30400  0.58440  0.27520  Biso   1.000  H
  C142     1.0000 0.36035  0.42000  0.31790  Biso   1.000  C
  H94      1.0000 0.36580  0.35800  0.31460  Biso   1.000  H
  C143     1.0000 0.34578  0.59770  0.33078  Biso   1.000  C
  H95      1.0000 0.34020  0.65890  0.33590  Biso   1.000  H
  C144     1.0000 0.38198  0.47010  0.35186  Biso   1.000  C
  H96      1.0000 0.40280  0.44150  0.37130  Biso   1.000  H
  N48      1.0000 0.37504  0.55650  0.35858  Biso   1.000  N
  I31      1.0000 0.11133  0.73800  0.09040  Biso   1.000  I
  I32      1.0000 0.25740  0.77510  0.19240  Biso   1.000  I
  I33      1.0000 0.23226  0.73436  0.79277  Biso   1.000  I
  I34      1.0000 0.52860  0.65192  0.12960  Biso   1.000  I
  I35      1.0000 0.12941  0.65295  0.69281  Biso   1.000  I
  I36      1.0000 0.35657  0.90904  0.01404  Biso   1.000  I
  I37      1.0000 0.39630  0.76281  0.90066  Biso   1.000  I
  I38      1.0000 0.62192  0.73782  0.05647  Biso   1.000  I
  Zn13     1.0000 0.58562  0.62461  0.09301  Biso   1.000  Zn
  Zn14     1.0000 0.37693  0.90380  0.94028  Biso   1.000  Zn
  Zn15     1.0000 0.17180  0.63950  0.76988  Biso   1.000  Zn
  N49      1.0000 0.18422  0.50300  0.77920  Biso   1.000  N
  N50      1.0000 0.18226  0.17400  0.75290  Biso   1.000  N
  N51      1.0000 0.57152  0.51920  0.04790  Biso   1.000  N
  N52      1.0000 0.22301  0.04820  0.77400  Biso   1.000  N
  N53      1.0000 0.33366  0.96700  0.89510  Biso   1.000  N
  N54      1.0000 0.52457  0.23090  0.97049  Biso   1.000  N
  N55      1.0000 0.63797  0.16110  0.81590  Biso   1.000  N
  N56      1.0000 0.23540  0.18640  0.81340  Biso   1.000  N
  N57      1.0000 0.42306  0.99030  0.94290  Biso   1.000  N
  N58      1.0000 0.57443  0.27940  0.93490  Biso   1.000  N
  N59      1.0000 0.53862  0.14810  0.91000  Biso   1.000  N
  C145     1.0000 0.19290  0.08960  0.74830  Biso   1.000  C
  C146     1.0000 0.56660  0.20710  0.90840  Biso   1.000  C
  C147     1.0000 0.24250  0.09900  0.80710  Biso   1.000  C
  C148     1.0000 0.27460  0.05460  0.83820  Biso   1.000  C
  C149     1.0000 0.51850  0.16410  0.94110  Biso   1.000  C
  C150     1.0000 0.55860  0.36930  0.99350  Biso   1.000  C
  C151     1.0000 0.19790  0.31840  0.78550  Biso   1.000  C
  C152     1.0000 0.20550  0.22000  0.78450  Biso   1.000  C
  C153     1.0000 0.43740  0.04140  0.97760  Biso   1.000  C
  H97      1.0000 0.42600  0.03870  0.00280  Biso   1.000  H
  C154     1.0000 0.32240  0.04980  0.90460  Biso   1.000  C
  H98      1.0000 0.33470  0.07720  0.93160  Biso   1.000  H
  C155     1.0000 0.64900  0.21750  0.85090  Biso   1.000  C
  H99      1.0000 0.67340  0.24660  0.85450  Biso   1.000  H
  C156     1.0000 0.48570  0.10190  0.94260  Biso   1.000  C
  C157     1.0000 0.53260  0.39270  0.01930  Biso   1.000  C
  H100     1.0000 0.51020  0.35730  0.01910  Biso   1.000  H
  C158     1.0000 0.59110  0.19140  0.87630  Biso   1.000  C
  C159     1.0000 0.29370  0.09630  0.87640  Biso   1.000  C
  H101     1.0000 0.28720  0.15590  0.88320  Biso   1.000  H
  C160     1.0000 0.55238  0.28860  0.96480  Biso   1.000  C
  C161     1.0000 0.21670  0.47010  0.80410  Biso   1.000  C
  H102     1.0000 0.23520  0.51120  0.81970  Biso   1.000  H
  C162     1.0000 0.59690  0.49510  0.02300  Biso   1.000  C
  H103     1.0000 0.61930  0.53080  0.02420  Biso   1.000  H
  C163     1.0000 0.28580  0.96810  0.82920  Biso   1.000  C
  H104     1.0000 0.27310  0.93790  0.80310  Biso   1.000  H
  C164     1.0000 0.53990  0.46870  0.04540  Biso   1.000  C
  H105     1.0000 0.52160  0.48590  0.06240  Biso   1.000  H
  C165     1.0000 0.31520  0.92630  0.85810  Biso   1.000  C
  H106     1.0000 0.32270  0.86720  0.85160  Biso   1.000  H
  C166     1.0000 0.15780  0.44410  0.75790  Biso   1.000  C
  H107     1.0000 0.13430  0.46660  0.74070  Biso   1.000  H
  C167     1.0000 0.22440  0.37920  0.80820  Biso   1.000  C
  H108     1.0000 0.24770  0.35850  0.82640  Biso   1.000  H
  C168     1.0000 0.62660  0.23400  0.88100  Biso   1.000  C
  H109     1.0000 0.63520  0.27420  0.90490  Biso   1.000  H
  C169     1.0000 0.59150  0.42190  0.99610  Biso   1.000  C
  H110     1.0000 0.61020  0.40660  0.97930  Biso   1.000  H
  C170     1.0000 0.46830  0.09850  0.97840  Biso   1.000  C
  H111     1.0000 0.47750  0.13510  0.00360  Biso   1.000  H
  C171     1.0000 0.16370  0.35220  0.76010  Biso   1.000  C
  H112     1.0000 0.14470  0.31240  0.74450  Biso   1.000  H
  C172     1.0000 0.60430  0.12160  0.81180  Biso   1.000  C
  H113     1.0000 0.59610  0.08270  0.78730  Biso   1.000  H
  C173     1.0000 0.47020  0.05040  0.90660  Biso   1.000  C
  H114     1.0000 0.48040  0.05320  0.88050  Biso   1.000  H
  C174     1.0000 0.58010  0.13350  0.84130  Biso   1.000  C
  H115     1.0000 0.55620  0.10220  0.83730  Biso   1.000  H
  C175     1.0000 0.43990  0.99490  0.90880  Biso   1.000  C
  H116     1.0000 0.43040  0.95710  0.88420  Biso   1.000  H
  C176     1.0000 0.16938  0.03802  0.71122  Biso   1.000  C
  C177     1.0000 0.17628  0.94673  0.70483  Biso   1.000  C
  H117     1.0000 0.19600  0.91560  0.72480  Biso   1.000  H
  C178     1.0000 0.13965  0.08000  0.68210  Biso   1.000  C
  H118     1.0000 0.13420  0.14200  0.68540  Biso   1.000  H
  C179     1.0000 0.15422  0.90230  0.66922  Biso   1.000  C
  H119     1.0000 0.15980  0.84110  0.66410  Biso   1.000  H
  C180     1.0000 0.11802  0.02990  0.64814  Biso   1.000  C
  H120     1.0000 0.09720  0.05850  0.62870  Biso   1.000  H
  N60      1.0000 0.12496  0.94350  0.64142  Biso   1.000  N
  I39      1.0000 0.38867  0.76200  0.90960  Biso   1.000  I
  I40      1.0000 0.24260  0.72490  0.80760  Biso   1.000  I
  I41      1.0000 0.73226  0.23436  0.79277  Biso   1.000  I
  I42      1.0000 0.02860  0.15192  0.12960  Biso   1.000  I
  I43      1.0000 0.62941  0.15295  0.69281  Biso   1.000  I
  I44      1.0000 0.85657  0.40904  0.01404  Biso   1.000  I
  I45      1.0000 0.89630  0.26281  0.90066  Biso   1.000  I
  I46      1.0000 0.12192  0.23782  0.05647  Biso   1.000  I
  Zn16     1.0000 0.08562  0.12461  0.09301  Biso   1.000  Zn
  Zn17     1.0000 0.87693  0.40380  0.94028  Biso   1.000  Zn
  Zn18     1.0000 0.67180  0.13950  0.76988  Biso   1.000  Zn
  N61      1.0000 0.68422  0.00300  0.77920  Biso   1.000  N
  N62      1.0000 0.68226  0.67400  0.75290  Biso   1.000  N
  N63      1.0000 0.07152  0.01920  0.04790  Biso   1.000  N
  N64      1.0000 0.72301  0.54820  0.77400  Biso   1.000  N
  N65      1.0000 0.83366  0.46700  0.89510  Biso   1.000  N
  N66      1.0000 0.02457  0.73090  0.97049  Biso   1.000  N
  N67      1.0000 0.13797  0.66110  0.81590  Biso   1.000  N
  N68      1.0000 0.73540  0.68640  0.81340  Biso   1.000  N
  N69      1.0000 0.92306  0.49030  0.94290  Biso   1.000  N
  N70      1.0000 0.07443  0.77940  0.93490  Biso   1.000  N
  N71      1.0000 0.03862  0.64810  0.91000  Biso   1.000  N
  C181     1.0000 0.69290  0.58960  0.74830  Biso   1.000  C
  C182     1.0000 0.06660  0.70710  0.90840  Biso   1.000  C
  C183     1.0000 0.74250  0.59900  0.80710  Biso   1.000  C
  C184     1.0000 0.77460  0.55460  0.83820  Biso   1.000  C
  C185     1.0000 0.01850  0.66410  0.94110  Biso   1.000  C
  C186     1.0000 0.05860  0.86930  0.99350  Biso   1.000  C
  C187     1.0000 0.69790  0.81840  0.78550  Biso   1.000  C
  C188     1.0000 0.70550  0.72000  0.78450  Biso   1.000  C
  C189     1.0000 0.93740  0.54140  0.97760  Biso   1.000  C
  H121     1.0000 0.92600  0.53870  0.00280  Biso   1.000  H
  C190     1.0000 0.82240  0.54980  0.90460  Biso   1.000  C
  H122     1.0000 0.83470  0.57720  0.93160  Biso   1.000  H
  C191     1.0000 0.14900  0.71750  0.85090  Biso   1.000  C
  H123     1.0000 0.17340  0.74660  0.85450  Biso   1.000  H
  C192     1.0000 0.98570  0.60190  0.94260  Biso   1.000  C
  C193     1.0000 0.03260  0.89270  0.01930  Biso   1.000  C
  H124     1.0000 0.01020  0.85730  0.01910  Biso   1.000  H
  C194     1.0000 0.09110  0.69140  0.87630  Biso   1.000  C
  C195     1.0000 0.79370  0.59630  0.87640  Biso   1.000  C
  H125     1.0000 0.78720  0.65590  0.88320  Biso   1.000  H
  C196     1.0000 0.05238  0.78860  0.96480  Biso   1.000  C
  C197     1.0000 0.71670  0.97010  0.80410  Biso   1.000  C
  H126     1.0000 0.73520  0.01120  0.81970  Biso   1.000  H
  C198     1.0000 0.09690  0.99510  0.02300  Biso   1.000  C
  H127     1.0000 0.11930  0.03080  0.02420  Biso   1.000  H
  C199     1.0000 0.78580  0.46810  0.82920  Biso   1.000  C
  H128     1.0000 0.77310  0.43790  0.80310  Biso   1.000  H
  C200     1.0000 0.03990  0.96870  0.04540  Biso   1.000  C
  H129     1.0000 0.02160  0.98590  0.06240  Biso   1.000  H
  C201     1.0000 0.81520  0.42630  0.85810  Biso   1.000  C
  H130     1.0000 0.82270  0.36720  0.85160  Biso   1.000  H
  C202     1.0000 0.65780  0.94410  0.75790  Biso   1.000  C
  H131     1.0000 0.63430  0.96660  0.74070  Biso   1.000  H
  C203     1.0000 0.72440  0.87920  0.80820  Biso   1.000  C
  H132     1.0000 0.74770  0.85850  0.82640  Biso   1.000  H
  C204     1.0000 0.12660  0.73400  0.88100  Biso   1.000  C
  H133     1.0000 0.13520  0.77420  0.90490  Biso   1.000  H
  C205     1.0000 0.09150  0.92190  0.99610  Biso   1.000  C
  H134     1.0000 0.11020  0.90660  0.97930  Biso   1.000  H
  C206     1.0000 0.96830  0.59850  0.97840  Biso   1.000  C
  H135     1.0000 0.97750  0.63510  0.00360  Biso   1.000  H
  C207     1.0000 0.66370  0.85220  0.76010  Biso   1.000  C
  H136     1.0000 0.64470  0.81240  0.74450  Biso   1.000  H
  C208     1.0000 0.10430  0.62160  0.81180  Biso   1.000  C
  H137     1.0000 0.09610  0.58270  0.78730  Biso   1.000  H
  C209     1.0000 0.97020  0.55040  0.90660  Biso   1.000  C
  H138     1.0000 0.98040  0.55320  0.88050  Biso   1.000  H
  C210     1.0000 0.08010  0.63350  0.84130  Biso   1.000  C
  H139     1.0000 0.05620  0.60220  0.83730  Biso   1.000  H
  C211     1.0000 0.93990  0.49490  0.90880  Biso   1.000  C
  H140     1.0000 0.93040  0.45710  0.88420  Biso   1.000  H
  C212     1.0000 0.66938  0.53802  0.71122  Biso   1.000  C
  C213     1.0000 0.67628  0.44673  0.70483  Biso   1.000  C
  H141     1.0000 0.69600  0.41560  0.72480  Biso   1.000  H
  C214     1.0000 0.63965  0.58000  0.68210  Biso   1.000  C
  H142     1.0000 0.63420  0.64200  0.68540  Biso   1.000  H
  C215     1.0000 0.65422  0.40230  0.66922  Biso   1.000  C
  H143     1.0000 0.65980  0.34110  0.66410  Biso   1.000  H
  C216     1.0000 0.61802  0.52990  0.64814  Biso   1.000  C
  H144     1.0000 0.59720  0.55850  0.62870  Biso   1.000  H
  N72      1.0000 0.62496  0.44350  0.64142  Biso   1.000  N
  I47      1.0000 0.88867  0.26200  0.90960  Biso   1.000  I
  I48      1.0000 0.74260  0.22490  0.80760  Biso   1.000  I
  I49      1.0000 0.23226  0.26564  0.29277  Biso   1.000  I
  I50      1.0000 0.52860  0.34808  0.62960  Biso   1.000  I
  I51      1.0000 0.12941  0.34705  0.19281  Biso   1.000  I
  I52      1.0000 0.35657  0.09096  0.51404  Biso   1.000  I
  I53      1.0000 0.39630  0.23719  0.40066  Biso   1.000  I
  I54      1.0000 0.62192  0.26218  0.55647  Biso   1.000  I
  Zn19     1.0000 0.58562  0.37539  0.59301  Biso   1.000  Zn
  Zn20     1.0000 0.37693  0.09620  0.44028  Biso   1.000  Zn
  Zn21     1.0000 0.17180  0.36050  0.26988  Biso   1.000  Zn
  N73      1.0000 0.18422  0.49700  0.27920  Biso   1.000  N
  N74      1.0000 0.18226  0.82600  0.25290  Biso   1.000  N
  N75      1.0000 0.57152  0.48080  0.54790  Biso   1.000  N
  N76      1.0000 0.22301  0.95180  0.27400  Biso   1.000  N
  N77      1.0000 0.33366  0.03300  0.39510  Biso   1.000  N
  N78      1.0000 0.52457  0.76910  0.47049  Biso   1.000  N
  N79      1.0000 0.63797  0.83890  0.31590  Biso   1.000  N
  N80      1.0000 0.23540  0.81360  0.31340  Biso   1.000  N
  N81      1.0000 0.42306  0.00970  0.44290  Biso   1.000  N
  N82      1.0000 0.57443  0.72060  0.43490  Biso   1.000  N
  N83      1.0000 0.53862  0.85190  0.41000  Biso   1.000  N
  C217     1.0000 0.19290  0.91040  0.24830  Biso   1.000  C
  C218     1.0000 0.56660  0.79290  0.40840  Biso   1.000  C
  C219     1.0000 0.24250  0.90100  0.30710  Biso   1.000  C
  C220     1.0000 0.27460  0.94540  0.33820  Biso   1.000  C
  C221     1.0000 0.51850  0.83590  0.44110  Biso   1.000  C
  C222     1.0000 0.55860  0.63070  0.49350  Biso   1.000  C
  C223     1.0000 0.19790  0.68160  0.28550  Biso   1.000  C
  C224     1.0000 0.20550  0.78000  0.28450  Biso   1.000  C
  C225     1.0000 0.43740  0.95860  0.47760  Biso   1.000  C
  H145     1.0000 0.42600  0.96130  0.50280  Biso   1.000  H
  C226     1.0000 0.32240  0.95020  0.40460  Biso   1.000  C
  H146     1.0000 0.33470  0.92280  0.43160  Biso   1.000  H
  C227     1.0000 0.64900  0.78250  0.35090  Biso   1.000  C
  H147     1.0000 0.67340  0.75340  0.35450  Biso   1.000  H
  C228     1.0000 0.48570  0.89810  0.44260  Biso   1.000  C
  C229     1.0000 0.53260  0.60730  0.51930  Biso   1.000  C
  H148     1.0000 0.51020  0.64270  0.51910  Biso   1.000  H
  C230     1.0000 0.59110  0.80860  0.37630  Biso   1.000  C
  C231     1.0000 0.29370  0.90370  0.37640  Biso   1.000  C
  H149     1.0000 0.28720  0.84410  0.38320  Biso   1.000  H
  C232     1.0000 0.55238  0.71140  0.46480  Biso   1.000  C
  C233     1.0000 0.21670  0.52990  0.30410  Biso   1.000  C
  H150     1.0000 0.23520  0.48880  0.31970  Biso   1.000  H
  C234     1.0000 0.59690  0.50490  0.52300  Biso   1.000  C
  H151     1.0000 0.61930  0.46920  0.52420  Biso   1.000  H
  C235     1.0000 0.28580  0.03190  0.32920  Biso   1.000  C
  H152     1.0000 0.27310  0.06210  0.30310  Biso   1.000  H
  C236     1.0000 0.53990  0.53130  0.54540  Biso   1.000  C
  H153     1.0000 0.52160  0.51410  0.56240  Biso   1.000  H
  C237     1.0000 0.31520  0.07370  0.35810  Biso   1.000  C
  H154     1.0000 0.32270  0.13280  0.35160  Biso   1.000  H
  C238     1.0000 0.15780  0.55590  0.25790  Biso   1.000  C
  H155     1.0000 0.13430  0.53340  0.24070  Biso   1.000  H
  C239     1.0000 0.22440  0.62080  0.30820  Biso   1.000  C
  H156     1.0000 0.24770  0.64150  0.32640  Biso   1.000  H
  C240     1.0000 0.62660  0.76600  0.38100  Biso   1.000  C
  H157     1.0000 0.63520  0.72580  0.40490  Biso   1.000  H
  C241     1.0000 0.59150  0.57810  0.49610  Biso   1.000  C
  H158     1.0000 0.61020  0.59340  0.47930  Biso   1.000  H
  C242     1.0000 0.46830  0.90150  0.47840  Biso   1.000  C
  H159     1.0000 0.47750  0.86490  0.50360  Biso   1.000  H
  C243     1.0000 0.16370  0.64780  0.26010  Biso   1.000  C
  H160     1.0000 0.14470  0.68760  0.24450  Biso   1.000  H
  C244     1.0000 0.60430  0.87840  0.31180  Biso   1.000  C
  H161     1.0000 0.59610  0.91730  0.28730  Biso   1.000  H
  C245     1.0000 0.47020  0.94960  0.40660  Biso   1.000  C
  H162     1.0000 0.48040  0.94680  0.38050  Biso   1.000  H
  C246     1.0000 0.58010  0.86650  0.34130  Biso   1.000  C
  H163     1.0000 0.55620  0.89780  0.33730  Biso   1.000  H
  C247     1.0000 0.43990  0.00510  0.40880  Biso   1.000  C
  H164     1.0000 0.43040  0.04290  0.38420  Biso   1.000  H
  C248     1.0000 0.16938  0.96198  0.21122  Biso   1.000  C
  C249     1.0000 0.17628  0.05327  0.20483  Biso   1.000  C
  H165     1.0000 0.19600  0.08440  0.22480  Biso   1.000  H
  C250     1.0000 0.13965  0.92000  0.18210  Biso   1.000  C
  H166     1.0000 0.13420  0.85800  0.18540  Biso   1.000  H
  C251     1.0000 0.15422  0.09770  0.16922  Biso   1.000  C
  H167     1.0000 0.15980  0.15890  0.16410  Biso   1.000  H
  C252     1.0000 0.11802  0.97010  0.14814  Biso   1.000  C
  H168     1.0000 0.09720  0.94150  0.12870  Biso   1.000  H
  N84      1.0000 0.12496  0.05650  0.14142  Biso   1.000  N
  I55      1.0000 0.38867  0.23800  0.40960  Biso   1.000  I
  I56      1.0000 0.24260  0.27510  0.30760  Biso   1.000  I
  I57      1.0000 0.73226  0.76564  0.29277  Biso   1.000  I
  I58      1.0000 0.02860  0.84808  0.62960  Biso   1.000  I
  I59      1.0000 0.62941  0.84705  0.19281  Biso   1.000  I
  I60      1.0000 0.85657  0.59096  0.51404  Biso   1.000  I
  I61      1.0000 0.89630  0.73719  0.40066  Biso   1.000  I
  I62      1.0000 0.12192  0.76218  0.55647  Biso   1.000  I
  Zn22     1.0000 0.08562  0.87539  0.59301  Biso   1.000  Zn
  Zn23     1.0000 0.87693  0.59620  0.44028  Biso   1.000  Zn
  Zn24     1.0000 0.67180  0.86050  0.26988  Biso   1.000  Zn
  N85      1.0000 0.68422  0.99700  0.27920  Biso   1.000  N
  N86      1.0000 0.68226  0.32600  0.25290  Biso   1.000  N
  N87      1.0000 0.07152  0.98080  0.54790  Biso   1.000  N
  N88      1.0000 0.72301  0.45180  0.27400  Biso   1.000  N
  N89      1.0000 0.83366  0.53300  0.39510  Biso   1.000  N
  N90      1.0000 0.02457  0.26910  0.47049  Biso   1.000  N
  N91      1.0000 0.13797  0.33890  0.31590  Biso   1.000  N
  N92      1.0000 0.73540  0.31360  0.31340  Biso   1.000  N
  N93      1.0000 0.92306  0.50970  0.44290  Biso   1.000  N
  N94      1.0000 0.07443  0.22060  0.43490  Biso   1.000  N
  N95      1.0000 0.03862  0.35190  0.41000  Biso   1.000  N
  C253     1.0000 0.69290  0.41040  0.24830  Biso   1.000  C
  C254     1.0000 0.06660  0.29290  0.40840  Biso   1.000  C
  C255     1.0000 0.74250  0.40100  0.30710  Biso   1.000  C
  C256     1.0000 0.77460  0.44540  0.33820  Biso   1.000  C
  C257     1.0000 0.01850  0.33590  0.44110  Biso   1.000  C
  C258     1.0000 0.05860  0.13070  0.49350  Biso   1.000  C
  C259     1.0000 0.69790  0.18160  0.28550  Biso   1.000  C
  C260     1.0000 0.70550  0.28000  0.28450  Biso   1.000  C
  C261     1.0000 0.93740  0.45860  0.47760  Biso   1.000  C
  H169     1.0000 0.92600  0.46130  0.50280  Biso   1.000  H
  C262     1.0000 0.82240  0.45020  0.40460  Biso   1.000  C
  H170     1.0000 0.83470  0.42280  0.43160  Biso   1.000  H
  C263     1.0000 0.14900  0.28250  0.35090  Biso   1.000  C
  H171     1.0000 0.17340  0.25340  0.35450  Biso   1.000  H
  C264     1.0000 0.98570  0.39810  0.44260  Biso   1.000  C
  C265     1.0000 0.03260  0.10730  0.51930  Biso   1.000  C
  H172     1.0000 0.01020  0.14270  0.51910  Biso   1.000  H
  C266     1.0000 0.09110  0.30860  0.37630  Biso   1.000  C
  C267     1.0000 0.79370  0.40370  0.37640  Biso   1.000  C
  H173     1.0000 0.78720  0.34410  0.38320  Biso   1.000  H
  C268     1.0000 0.05238  0.21140  0.46480  Biso   1.000  C
  C269     1.0000 0.71670  0.02990  0.30410  Biso   1.000  C
  H174     1.0000 0.73520  0.98880  0.31970  Biso   1.000  H
  C270     1.0000 0.09690  0.00490  0.52300  Biso   1.000  C
  H175     1.0000 0.11930  0.96920  0.52420  Biso   1.000  H
  C271     1.0000 0.78580  0.53190  0.32920  Biso   1.000  C
  H176     1.0000 0.77310  0.56210  0.30310  Biso   1.000  H
  C272     1.0000 0.03990  0.03130  0.54540  Biso   1.000  C
  H177     1.0000 0.02160  0.01410  0.56240  Biso   1.000  H
  C273     1.0000 0.81520  0.57370  0.35810  Biso   1.000  C
  H178     1.0000 0.82270  0.63280  0.35160  Biso   1.000  H
  C274     1.0000 0.65780  0.05590  0.25790  Biso   1.000  C
  H179     1.0000 0.63430  0.03340  0.24070  Biso   1.000  H
  C275     1.0000 0.72440  0.12080  0.30820  Biso   1.000  C
  H180     1.0000 0.74770  0.14150  0.32640  Biso   1.000  H
  C276     1.0000 0.12660  0.26600  0.38100  Biso   1.000  C
  H181     1.0000 0.13520  0.22580  0.40490  Biso   1.000  H
  C277     1.0000 0.09150  0.07810  0.49610  Biso   1.000  C
  H182     1.0000 0.11020  0.09340  0.47930  Biso   1.000  H
  C278     1.0000 0.96830  0.40150  0.47840  Biso   1.000  C
  H183     1.0000 0.97750  0.36490  0.50360  Biso   1.000  H
  C279     1.0000 0.66370  0.14780  0.26010  Biso   1.000  C
  H184     1.0000 0.64470  0.18760  0.24450  Biso   1.000  H
  C280     1.0000 0.10430  0.37840  0.31180  Biso   1.000  C
  H185     1.0000 0.09610  0.41730  0.28730  Biso   1.000  H
  C281     1.0000 0.97020  0.44960  0.40660  Biso   1.000  C
  H186     1.0000 0.98040  0.44680  0.38050  Biso   1.000  H
  C282     1.0000 0.08010  0.36650  0.34130  Biso   1.000  C
  H187     1.0000 0.05620  0.39780  0.33730  Biso   1.000  H
  C283     1.0000 0.93990  0.50510  0.40880  Biso   1.000  C
  H188     1.0000 0.93040  0.54290  0.38420  Biso   1.000  H
  C284     1.0000 0.66938  0.46198  0.21122  Biso   1.000  C
  C285     1.0000 0.67628  0.55327  0.20483  Biso   1.000  C
  H189     1.0000 0.69600  0.58440  0.22480  Biso   1.000  H
  C286     1.0000 0.63965  0.42000  0.18210  Biso   1.000  C
  H190     1.0000 0.63420  0.35800  0.18540  Biso   1.000  H
  C287     1.0000 0.65422  0.59770  0.16922  Biso   1.000  C
  H191     1.0000 0.65980  0.65890  0.16410  Biso   1.000  H
  C288     1.0000 0.61802  0.47010  0.14814  Biso   1.000  C
  H192     1.0000 0.59720  0.44150  0.12870  Biso   1.000  H
  N96      1.0000 0.62496  0.55650  0.14142  Biso   1.000  N
  I63      1.0000 0.88867  0.73800  0.40960  Biso   1.000  I
  I64      1.0000 0.74260  0.77510  0.30760  Biso   1.000  I
