data_image0
_cell_length_a       35.0502
_cell_length_b       15.0503
_cell_length_c       31.3752
_cell_angle_alpha    90
_cell_angle_beta     102.531
_cell_angle_gamma    90

_symmetry_space_group_name_H-M    "P 1"
_symmetry_int_tables_number       1

loop_
  _symmetry_equiv_pos_as_xyz
  'x, y, z'

loop_
  _atom_site_label
  _atom_site_occupancy
  _atom_site_fract_x
  _atom_site_fract_y
  _atom_site_fract_z
  _atom_site_thermal_displace_type
  _atom_site_B_iso_or_equiv
  _atom_site_type_symbol
  I1       1.0000 0.23856  0.73420  0.30440  Biso   1.000  I
  I2       1.0000 0.13202  0.67660  0.20148  Biso   1.000  I
  I3       1.0000 0.35273  0.92664  0.50997  Biso   1.000  I
  I4       1.0000 0.61501  0.73452  0.56319  Biso   1.000  I
  I5       1.0000 0.52031  0.63713  0.62901  Biso   1.000  I
  I6       1.0000 0.38912  0.76605  0.40531  Biso   1.000  I
  Zn1      1.0000 0.17717  0.64842  0.27826  Biso   1.000  Zn
  Zn2      1.0000 0.37387  0.91323  0.43790  Biso   1.000  Zn
  Zn3      1.0000 0.58092  0.61441  0.59415  Biso   1.000  Zn
  N1       1.0000 0.18793  0.51290  0.28026  Biso   1.000  N
  N2       1.0000 0.56837  0.51310  0.54874  Biso   1.000  N
  N3       1.0000 0.33186  0.97720  0.39202  Biso   1.000  N
  N4       1.0000 0.21984  0.06040  0.27161  Biso   1.000  N
  N5       1.0000 0.18089  0.18790  0.24916  Biso   1.000  N
  N6       1.0000 0.11961  0.95550  0.14173  Biso   1.000  N
  N7       1.0000 0.23640  0.19810  0.30793  Biso   1.000  N
  N8       1.0000 0.42139  0.99540  0.44085  Biso   1.000  N
  N9       1.0000 0.64339  0.16300  0.32423  Biso   1.000  N
  N10      1.0000 0.57743  0.27400  0.43997  Biso   1.000  N
  N11      1.0000 0.52485  0.22820  0.47112  Biso   1.000  N
  C1       1.0000 0.24127  0.11120  0.30271  Biso   1.000  C
  C2       1.0000 0.27307  0.06520  0.33390  Biso   1.000  C
  N12      1.0000 0.53984  0.14820  0.41134  Biso   1.000  N
  C3       1.0000 0.19970  0.33010  0.28091  Biso   1.000  C
  C4       1.0000 0.16220  0.45900  0.25460  Biso   1.000  C
  H1       1.0000 0.14030  0.48410  0.23650  Biso   1.000  H
  C5       1.0000 0.20624  0.23260  0.27961  Biso   1.000  C
  C6       1.0000 0.16513  0.05040  0.21008  Biso   1.000  C
  C7       1.0000 0.11150  0.03980  0.14960  Biso   1.000  C
  H2       1.0000 0.08980  0.06620  0.13180  Biso   1.000  H
  C8       1.0000 0.55869  0.36360  0.49571  Biso   1.000  C
  C9       1.0000 0.65572  0.21040  0.36070  Biso   1.000  C
  H3       1.0000 0.68090  0.23370  0.36630  Biso   1.000  H
  C10      1.0000 0.17376  0.96240  0.20228  Biso   1.000  C
  H4       1.0000 0.19510  0.93420  0.21990  Biso   1.000  H
  C11      1.0000 0.55360  0.28380  0.46756  Biso   1.000  C
  C12      1.0000 0.56965  0.20450  0.41328  Biso   1.000  C
  C13      1.0000 0.51890  0.16320  0.44174  Biso   1.000  C
  C14      1.0000 0.31192  0.93610  0.35637  Biso   1.000  C
  H5       1.0000 0.31830  0.87760  0.35120  Biso   1.000  H
  C15      1.0000 0.53079  0.38590  0.51950  Biso   1.000  C
  H6       1.0000 0.50850  0.35130  0.51780  Biso   1.000  H
  C16      1.0000 0.21900  0.47620  0.30630  Biso   1.000  C
  H7       1.0000 0.23670  0.51300  0.32450  Biso   1.000  H
  C17      1.0000 0.13353  0.08980  0.18280  Biso   1.000  C
  H8       1.0000 0.12720  0.14880  0.18680  Biso   1.000  H
  C18      1.0000 0.48559  0.10360  0.44170  Biso   1.000  C
  C19      1.0000 0.29440  0.10800  0.37054  Biso   1.000  C
  H9       1.0000 0.28930  0.16710  0.37610  Biso   1.000  H
  C20      1.0000 0.59556  0.18950  0.38226  Biso   1.000  C
  C21      1.0000 0.28204  0.97750  0.32667  Biso   1.000  C
  H10      1.0000 0.26830  0.94700  0.30240  Biso   1.000  H
  C22      1.0000 0.43740  0.04200  0.47520  Biso   1.000  C
  H11      1.0000 0.42710  0.03720  0.50000  Biso   1.000  H
  C23      1.0000 0.15042  0.91790  0.16823  Biso   1.000  C
  H12      1.0000 0.15630  0.85910  0.16330  Biso   1.000  H
  C24      1.0000 0.58350  0.13800  0.34540  Biso   1.000  C
  H13      1.0000 0.55900  0.11100  0.33980  Biso   1.000  H
  C25      1.0000 0.16683  0.36770  0.25390  Biso   1.000  C
  H14      1.0000 0.14840  0.33220  0.23590  Biso   1.000  H
  C26      1.0000 0.53691  0.46070  0.54577  Biso   1.000  C
  H15      1.0000 0.51850  0.47530  0.56200  Biso   1.000  H
  C27      1.0000 0.32323  0.06180  0.39860  Biso   1.000  C
  H16      1.0000 0.33730  0.09070  0.42330  Biso   1.000  H
  C28      1.0000 0.59048  0.41920  0.49810  Biso   1.000  C
  H17      1.0000 0.60920  0.40690  0.48200  Biso   1.000  H
  C29      1.0000 0.63240  0.22590  0.39000  Biso   1.000  C
  H18      1.0000 0.64140  0.26040  0.41470  Biso   1.000  H
  C30      1.0000 0.22598  0.38550  0.30750  Biso   1.000  C
  H19      1.0000 0.24810  0.36230  0.32600  Biso   1.000  H
  C31      1.0000 0.59410  0.49260  0.52460  Biso   1.000  C
  H20      1.0000 0.61550  0.52980  0.52570  Biso   1.000  H
  C32      1.0000 0.60820  0.12720  0.31700  Biso   1.000  C
  H21      1.0000 0.59980  0.09350  0.29190  Biso   1.000  H
  C33      1.0000 0.46880  0.09760  0.47664  Biso   1.000  C
  H22      1.0000 0.47850  0.13110  0.50150  Biso   1.000  H
  C34      1.0000 0.43500  0.00990  0.40480  Biso   1.000  C
  H23      1.0000 0.42290  0.98050  0.37940  Biso   1.000  H
  C35      1.0000 0.46600  0.06560  0.40280  Biso   1.000  C
  H24      1.0000 0.47330  0.07710  0.37660  Biso   1.000  H
  C36      1.0000 0.18975  0.10240  0.24602  Biso   1.000  C
  I7       1.0000 0.52944  0.66560  0.62076  Biso   1.000  I
  I8       1.0000 0.63116  0.72197  0.56101  Biso   1.000  I
  I9       1.0000 0.14555  0.69240  0.21061  Biso   1.000  I
  I10      1.0000 0.37470  0.75970  0.42100  Biso   1.000  I
  I11      1.0000 0.24940  0.72960  0.31680  Biso   1.000  I
  I12      1.0000 0.73856  0.23420  0.30440  Biso   1.000  I
  I13      1.0000 0.63202  0.17660  0.20148  Biso   1.000  I
  I14      1.0000 0.85273  0.42664  0.50997  Biso   1.000  I
  I15      1.0000 0.11501  0.23452  0.56319  Biso   1.000  I
  I16      1.0000 0.02031  0.13713  0.62901  Biso   1.000  I
  I17      1.0000 0.88912  0.26605  0.40531  Biso   1.000  I
  Zn4      1.0000 0.67717  0.14842  0.27826  Biso   1.000  Zn
  Zn5      1.0000 0.87387  0.41323  0.43790  Biso   1.000  Zn
  Zn6      1.0000 0.08092  0.11441  0.59415  Biso   1.000  Zn
  N13      1.0000 0.68793  0.01290  0.28026  Biso   1.000  N
  N14      1.0000 0.06837  0.01310  0.54874  Biso   1.000  N
  N15      1.0000 0.83186  0.47720  0.39202  Biso   1.000  N
  N16      1.0000 0.71984  0.56040  0.27161  Biso   1.000  N
  N17      1.0000 0.68089  0.68790  0.24916  Biso   1.000  N
  N18      1.0000 0.61961  0.45550  0.14173  Biso   1.000  N
  N19      1.0000 0.73640  0.69810  0.30793  Biso   1.000  N
  N20      1.0000 0.92139  0.49540  0.44085  Biso   1.000  N
  N21      1.0000 0.14339  0.66300  0.32423  Biso   1.000  N
  N22      1.0000 0.07743  0.77400  0.43997  Biso   1.000  N
  N23      1.0000 0.02485  0.72820  0.47112  Biso   1.000  N
  C37      1.0000 0.74127  0.61120  0.30271  Biso   1.000  C
  C38      1.0000 0.77307  0.56520  0.33390  Biso   1.000  C
  N24      1.0000 0.03984  0.64820  0.41134  Biso   1.000  N
  C39      1.0000 0.69970  0.83010  0.28091  Biso   1.000  C
  C40      1.0000 0.66220  0.95900  0.25460  Biso   1.000  C
  H25      1.0000 0.64030  0.98410  0.23650  Biso   1.000  H
  C41      1.0000 0.70624  0.73260  0.27961  Biso   1.000  C
  C42      1.0000 0.66513  0.55040  0.21008  Biso   1.000  C
  C43      1.0000 0.61150  0.53980  0.14960  Biso   1.000  C
  H26      1.0000 0.58980  0.56620  0.13180  Biso   1.000  H
  C44      1.0000 0.05869  0.86360  0.49571  Biso   1.000  C
  C45      1.0000 0.15572  0.71040  0.36070  Biso   1.000  C
  H27      1.0000 0.18090  0.73370  0.36630  Biso   1.000  H
  C46      1.0000 0.67376  0.46240  0.20228  Biso   1.000  C
  H28      1.0000 0.69510  0.43420  0.21990  Biso   1.000  H
  C47      1.0000 0.05360  0.78380  0.46756  Biso   1.000  C
  C48      1.0000 0.06965  0.70450  0.41328  Biso   1.000  C
  C49      1.0000 0.01890  0.66320  0.44174  Biso   1.000  C
  C50      1.0000 0.81192  0.43610  0.35637  Biso   1.000  C
  H29      1.0000 0.81830  0.37760  0.35120  Biso   1.000  H
  C51      1.0000 0.03079  0.88590  0.51950  Biso   1.000  C
  H30      1.0000 0.00850  0.85130  0.51780  Biso   1.000  H
  C52      1.0000 0.71900  0.97620  0.30630  Biso   1.000  C
  H31      1.0000 0.73670  0.01300  0.32450  Biso   1.000  H
  C53      1.0000 0.63353  0.58980  0.18280  Biso   1.000  C
  H32      1.0000 0.62720  0.64880  0.18680  Biso   1.000  H
  C54      1.0000 0.98559  0.60360  0.44170  Biso   1.000  C
  C55      1.0000 0.79440  0.60800  0.37054  Biso   1.000  C
  H33      1.0000 0.78930  0.66710  0.37610  Biso   1.000  H
  C56      1.0000 0.09556  0.68950  0.38226  Biso   1.000  C
  C57      1.0000 0.78204  0.47750  0.32667  Biso   1.000  C
  H34      1.0000 0.76830  0.44700  0.30240  Biso   1.000  H
  C58      1.0000 0.93740  0.54200  0.47520  Biso   1.000  C
  H35      1.0000 0.92710  0.53720  0.50000  Biso   1.000  H
  C59      1.0000 0.65042  0.41790  0.16823  Biso   1.000  C
  H36      1.0000 0.65630  0.35910  0.16330  Biso   1.000  H
  C60      1.0000 0.08350  0.63800  0.34540  Biso   1.000  C
  H37      1.0000 0.05900  0.61100  0.33980  Biso   1.000  H
  C61      1.0000 0.66683  0.86770  0.25390  Biso   1.000  C
  H38      1.0000 0.64840  0.83220  0.23590  Biso   1.000  H
  C62      1.0000 0.03691  0.96070  0.54577  Biso   1.000  C
  H39      1.0000 0.01850  0.97530  0.56200  Biso   1.000  H
  C63      1.0000 0.82323  0.56180  0.39860  Biso   1.000  C
  H40      1.0000 0.83730  0.59070  0.42330  Biso   1.000  H
  C64      1.0000 0.09048  0.91920  0.49810  Biso   1.000  C
  H41      1.0000 0.10920  0.90690  0.48200  Biso   1.000  H
  C65      1.0000 0.13240  0.72590  0.39000  Biso   1.000  C
  H42      1.0000 0.14140  0.76040  0.41470  Biso   1.000  H
  C66      1.0000 0.72598  0.88550  0.30750  Biso   1.000  C
  H43      1.0000 0.74810  0.86230  0.32600  Biso   1.000  H
  C67      1.0000 0.09410  0.99260  0.52460  Biso   1.000  C
  H44      1.0000 0.11550  0.02980  0.52570  Biso   1.000  H
  C68      1.0000 0.10820  0.62720  0.31700  Biso   1.000  C
  H45      1.0000 0.09980  0.59350  0.29190  Biso   1.000  H
  C69      1.0000 0.96880  0.59760  0.47664  Biso   1.000  C
  H46      1.0000 0.97850  0.63110  0.50150  Biso   1.000  H
  C70      1.0000 0.93500  0.50990  0.40480  Biso   1.000  C
  H47      1.0000 0.92290  0.48050  0.37940  Biso   1.000  H
  C71      1.0000 0.96600  0.56560  0.40280  Biso   1.000  C
  H48      1.0000 0.97330  0.57710  0.37660  Biso   1.000  H
  C72      1.0000 0.68975  0.60240  0.24602  Biso   1.000  C
  I18      1.0000 0.02944  0.16560  0.62076  Biso   1.000  I
  I19      1.0000 0.13116  0.22197  0.56101  Biso   1.000  I
  I20      1.0000 0.64555  0.19240  0.21061  Biso   1.000  I
  I21      1.0000 0.87470  0.25970  0.42100  Biso   1.000  I
  I22      1.0000 0.74940  0.22960  0.31680  Biso   1.000  I
  I23      1.0000 0.23856  0.26580  0.80440  Biso   1.000  I
  I24      1.0000 0.13202  0.32340  0.70148  Biso   1.000  I
  I25      1.0000 0.35273  0.07336  0.00997  Biso   1.000  I
  I26      1.0000 0.61501  0.26548  0.06319  Biso   1.000  I
  I27      1.0000 0.52031  0.36287  0.12901  Biso   1.000  I
  I28      1.0000 0.38912  0.23395  0.90531  Biso   1.000  I
  Zn7      1.0000 0.17717  0.35158  0.77826  Biso   1.000  Zn
  Zn8      1.0000 0.37387  0.08677  0.93790  Biso   1.000  Zn
  Zn9      1.0000 0.58092  0.38559  0.09415  Biso   1.000  Zn
  N25      1.0000 0.18793  0.48710  0.78026  Biso   1.000  N
  N26      1.0000 0.56837  0.48690  0.04874  Biso   1.000  N
  N27      1.0000 0.33186  0.02280  0.89202  Biso   1.000  N
  N28      1.0000 0.21984  0.93960  0.77161  Biso   1.000  N
  N29      1.0000 0.18089  0.81210  0.74916  Biso   1.000  N
  N30      1.0000 0.11961  0.04450  0.64173  Biso   1.000  N
  N31      1.0000 0.23640  0.80190  0.80793  Biso   1.000  N
  N32      1.0000 0.42139  0.00460  0.94085  Biso   1.000  N
  N33      1.0000 0.64339  0.83700  0.82423  Biso   1.000  N
  N34      1.0000 0.57743  0.72600  0.93997  Biso   1.000  N
  N35      1.0000 0.52485  0.77180  0.97112  Biso   1.000  N
  C73      1.0000 0.24127  0.88880  0.80271  Biso   1.000  C
  C74      1.0000 0.27307  0.93480  0.83390  Biso   1.000  C
  N36      1.0000 0.53984  0.85180  0.91134  Biso   1.000  N
  C75      1.0000 0.19970  0.66990  0.78091  Biso   1.000  C
  C76      1.0000 0.16220  0.54100  0.75460  Biso   1.000  C
  H49      1.0000 0.14030  0.51590  0.73650  Biso   1.000  H
  C77      1.0000 0.20624  0.76740  0.77961  Biso   1.000  C
  C78      1.0000 0.16513  0.94960  0.71008  Biso   1.000  C
  C79      1.0000 0.11150  0.96020  0.64960  Biso   1.000  C
  H50      1.0000 0.08980  0.93380  0.63180  Biso   1.000  H
  C80      1.0000 0.55869  0.63640  0.99571  Biso   1.000  C
  C81      1.0000 0.65572  0.78960  0.86070  Biso   1.000  C
  H51      1.0000 0.68090  0.76630  0.86630  Biso   1.000  H
  C82      1.0000 0.17376  0.03760  0.70228  Biso   1.000  C
  H52      1.0000 0.19510  0.06580  0.71990  Biso   1.000  H
  C83      1.0000 0.55360  0.71620  0.96756  Biso   1.000  C
  C84      1.0000 0.56965  0.79550  0.91328  Biso   1.000  C
  C85      1.0000 0.51890  0.83680  0.94174  Biso   1.000  C
  C86      1.0000 0.31192  0.06390  0.85637  Biso   1.000  C
  H53      1.0000 0.31830  0.12240  0.85120  Biso   1.000  H
  C87      1.0000 0.53079  0.61410  0.01950  Biso   1.000  C
  H54      1.0000 0.50850  0.64870  0.01780  Biso   1.000  H
  C88      1.0000 0.21900  0.52380  0.80630  Biso   1.000  C
  H55      1.0000 0.23670  0.48700  0.82450  Biso   1.000  H
  C89      1.0000 0.13353  0.91020  0.68280  Biso   1.000  C
  H56      1.0000 0.12720  0.85120  0.68680  Biso   1.000  H
  C90      1.0000 0.48559  0.89640  0.94170  Biso   1.000  C
  C91      1.0000 0.29440  0.89200  0.87054  Biso   1.000  C
  H57      1.0000 0.28930  0.83290  0.87610  Biso   1.000  H
  C92      1.0000 0.59556  0.81050  0.88226  Biso   1.000  C
  C93      1.0000 0.28204  0.02250  0.82667  Biso   1.000  C
  H58      1.0000 0.26830  0.05300  0.80240  Biso   1.000  H
  C94      1.0000 0.43740  0.95800  0.97520  Biso   1.000  C
  H59      1.0000 0.42710  0.96280  0.00000  Biso   1.000  H
  C95      1.0000 0.15042  0.08210  0.66823  Biso   1.000  C
  H60      1.0000 0.15630  0.14090  0.66330  Biso   1.000  H
  C96      1.0000 0.58350  0.86200  0.84540  Biso   1.000  C
  H61      1.0000 0.55900  0.88900  0.83980  Biso   1.000  H
  C97      1.0000 0.16683  0.63230  0.75390  Biso   1.000  C
  H62      1.0000 0.14840  0.66780  0.73590  Biso   1.000  H
  C98      1.0000 0.53691  0.53930  0.04577  Biso   1.000  C
  H63      1.0000 0.51850  0.52470  0.06200  Biso   1.000  H
  C99      1.0000 0.32323  0.93820  0.89860  Biso   1.000  C
  H64      1.0000 0.33730  0.90930  0.92330  Biso   1.000  H
  C100     1.0000 0.59048  0.58080  0.99810  Biso   1.000  C
  H65      1.0000 0.60920  0.59310  0.98200  Biso   1.000  H
  C101     1.0000 0.63240  0.77410  0.89000  Biso   1.000  C
  H66      1.0000 0.64140  0.73960  0.91470  Biso   1.000  H
  C102     1.0000 0.22598  0.61450  0.80750  Biso   1.000  C
  H67      1.0000 0.24810  0.63770  0.82600  Biso   1.000  H
  C103     1.0000 0.59410  0.50740  0.02460  Biso   1.000  C
  H68      1.0000 0.61550  0.47020  0.02570  Biso   1.000  H
  C104     1.0000 0.60820  0.87280  0.81700  Biso   1.000  C
  H69      1.0000 0.59980  0.90650  0.79190  Biso   1.000  H
  C105     1.0000 0.46880  0.90240  0.97664  Biso   1.000  C
  H70      1.0000 0.47850  0.86890  0.00150  Biso   1.000  H
  C106     1.0000 0.43500  0.99010  0.90480  Biso   1.000  C
  H71      1.0000 0.42290  0.01950  0.87940  Biso   1.000  H
  C107     1.0000 0.46600  0.93440  0.90280  Biso   1.000  C
  H72      1.0000 0.47330  0.92290  0.87660  Biso   1.000  H
  C108     1.0000 0.18975  0.89760  0.74602  Biso   1.000  C
  I29      1.0000 0.52944  0.33440  0.12076  Biso   1.000  I
  I30      1.0000 0.63116  0.27803  0.06101  Biso   1.000  I
  I31      1.0000 0.14555  0.30760  0.71061  Biso   1.000  I
  I32      1.0000 0.37470  0.24030  0.92100  Biso   1.000  I
  I33      1.0000 0.24940  0.27040  0.81680  Biso   1.000  I
  I34      1.0000 0.73856  0.76580  0.80440  Biso   1.000  I
  I35      1.0000 0.63202  0.82340  0.70148  Biso   1.000  I
  I36      1.0000 0.85273  0.57336  0.00997  Biso   1.000  I
  I37      1.0000 0.11501  0.76548  0.06319  Biso   1.000  I
  I38      1.0000 0.02031  0.86287  0.12901  Biso   1.000  I
  I39      1.0000 0.88912  0.73395  0.90531  Biso   1.000  I
  Zn10     1.0000 0.67717  0.85158  0.77826  Biso   1.000  Zn
  Zn11     1.0000 0.87387  0.58677  0.93790  Biso   1.000  Zn
  Zn12     1.0000 0.08092  0.88559  0.09415  Biso   1.000  Zn
  N37      1.0000 0.68793  0.98710  0.78026  Biso   1.000  N
  N38      1.0000 0.06837  0.98690  0.04874  Biso   1.000  N
  N39      1.0000 0.83186  0.52280  0.89202  Biso   1.000  N
  N40      1.0000 0.71984  0.43960  0.77161  Biso   1.000  N
  N41      1.0000 0.68089  0.31210  0.74916  Biso   1.000  N
  N42      1.0000 0.61961  0.54450  0.64173  Biso   1.000  N
  N43      1.0000 0.73640  0.30190  0.80793  Biso   1.000  N
  N44      1.0000 0.92139  0.50460  0.94085  Biso   1.000  N
  N45      1.0000 0.14339  0.33700  0.82423  Biso   1.000  N
  N46      1.0000 0.07743  0.22600  0.93997  Biso   1.000  N
  N47      1.0000 0.02485  0.27180  0.97112  Biso   1.000  N
  C109     1.0000 0.74127  0.38880  0.80271  Biso   1.000  C
  C110     1.0000 0.77307  0.43480  0.83390  Biso   1.000  C
  N48      1.0000 0.03984  0.35180  0.91134  Biso   1.000  N
  C111     1.0000 0.69970  0.16990  0.78091  Biso   1.000  C
  C112     1.0000 0.66220  0.04100  0.75460  Biso   1.000  C
  H73      1.0000 0.64030  0.01590  0.73650  Biso   1.000  H
  C113     1.0000 0.70624  0.26740  0.77961  Biso   1.000  C
  C114     1.0000 0.66513  0.44960  0.71008  Biso   1.000  C
  C115     1.0000 0.61150  0.46020  0.64960  Biso   1.000  C
  H74      1.0000 0.58980  0.43380  0.63180  Biso   1.000  H
  C116     1.0000 0.05869  0.13640  0.99571  Biso   1.000  C
  C117     1.0000 0.15572  0.28960  0.86070  Biso   1.000  C
  H75      1.0000 0.18090  0.26630  0.86630  Biso   1.000  H
  C118     1.0000 0.67376  0.53760  0.70228  Biso   1.000  C
  H76      1.0000 0.69510  0.56580  0.71990  Biso   1.000  H
  C119     1.0000 0.05360  0.21620  0.96756  Biso   1.000  C
  C120     1.0000 0.06965  0.29550  0.91328  Biso   1.000  C
  C121     1.0000 0.01890  0.33680  0.94174  Biso   1.000  C
  C122     1.0000 0.81192  0.56390  0.85637  Biso   1.000  C
  H77      1.0000 0.81830  0.62240  0.85120  Biso   1.000  H
  C123     1.0000 0.03079  0.11410  0.01950  Biso   1.000  C
  H78      1.0000 0.00850  0.14870  0.01780  Biso   1.000  H
  C124     1.0000 0.71900  0.02380  0.80630  Biso   1.000  C
  H79      1.0000 0.73670  0.98700  0.82450  Biso   1.000  H
  C125     1.0000 0.63353  0.41020  0.68280  Biso   1.000  C
  H80      1.0000 0.62720  0.35120  0.68680  Biso   1.000  H
  C126     1.0000 0.98559  0.39640  0.94170  Biso   1.000  C
  C127     1.0000 0.79440  0.39200  0.87054  Biso   1.000  C
  H81      1.0000 0.78930  0.33290  0.87610  Biso   1.000  H
  C128     1.0000 0.09556  0.31050  0.88226  Biso   1.000  C
  C129     1.0000 0.78204  0.52250  0.82667  Biso   1.000  C
  H82      1.0000 0.76830  0.55300  0.80240  Biso   1.000  H
  C130     1.0000 0.93740  0.45800  0.97520  Biso   1.000  C
  H83      1.0000 0.92710  0.46280  0.00000  Biso   1.000  H
  C131     1.0000 0.65042  0.58210  0.66823  Biso   1.000  C
  H84      1.0000 0.65630  0.64090  0.66330  Biso   1.000  H
  C132     1.0000 0.08350  0.36200  0.84540  Biso   1.000  C
  H85      1.0000 0.05900  0.38900  0.83980  Biso   1.000  H
  C133     1.0000 0.66683  0.13230  0.75390  Biso   1.000  C
  H86      1.0000 0.64840  0.16780  0.73590  Biso   1.000  H
  C134     1.0000 0.03691  0.03930  0.04577  Biso   1.000  C
  H87      1.0000 0.01850  0.02470  0.06200  Biso   1.000  H
  C135     1.0000 0.82323  0.43820  0.89860  Biso   1.000  C
  H88      1.0000 0.83730  0.40930  0.92330  Biso   1.000  H
  C136     1.0000 0.09048  0.08080  0.99810  Biso   1.000  C
  H89      1.0000 0.10920  0.09310  0.98200  Biso   1.000  H
  C137     1.0000 0.13240  0.27410  0.89000  Biso   1.000  C
  H90      1.0000 0.14140  0.23960  0.91470  Biso   1.000  H
  C138     1.0000 0.72598  0.11450  0.80750  Biso   1.000  C
  H91      1.0000 0.74810  0.13770  0.82600  Biso   1.000  H
  C139     1.0000 0.09410  0.00740  0.02460  Biso   1.000  C
  H92      1.0000 0.11550  0.97020  0.02570  Biso   1.000  H
  C140     1.0000 0.10820  0.37280  0.81700  Biso   1.000  C
  H93      1.0000 0.09980  0.40650  0.79190  Biso   1.000  H
  C141     1.0000 0.96880  0.40240  0.97664  Biso   1.000  C
  H94      1.0000 0.97850  0.36890  0.00150  Biso   1.000  H
  C142     1.0000 0.93500  0.49010  0.90480  Biso   1.000  C
  H95      1.0000 0.92290  0.51950  0.87940  Biso   1.000  H
  C143     1.0000 0.96600  0.43440  0.90280  Biso   1.000  C
  H96      1.0000 0.97330  0.42290  0.87660  Biso   1.000  H
  C144     1.0000 0.68975  0.39760  0.74602  Biso   1.000  C
  I40      1.0000 0.02944  0.83440  0.12076  Biso   1.000  I
  I41      1.0000 0.13116  0.77803  0.06101  Biso   1.000  I
  I42      1.0000 0.64555  0.80760  0.71061  Biso   1.000  I
  I43      1.0000 0.87470  0.74030  0.92100  Biso   1.000  I
  I44      1.0000 0.74940  0.77040  0.81680  Biso   1.000  I
  I45      1.0000 0.76144  0.73420  0.19560  Biso   1.000  I
  I46      1.0000 0.86798  0.67660  0.29852  Biso   1.000  I
  I47      1.0000 0.64727  0.92664  0.99003  Biso   1.000  I
  I48      1.0000 0.38499  0.73452  0.93681  Biso   1.000  I
  I49      1.0000 0.47969  0.63713  0.87099  Biso   1.000  I
  I50      1.0000 0.61088  0.76605  0.09469  Biso   1.000  I
  Zn13     1.0000 0.82283  0.64842  0.22174  Biso   1.000  Zn
  Zn14     1.0000 0.62613  0.91323  0.06210  Biso   1.000  Zn
  Zn15     1.0000 0.41908  0.61441  0.90585  Biso   1.000  Zn
  N49      1.0000 0.81207  0.51290  0.21974  Biso   1.000  N
  N50      1.0000 0.43163  0.51310  0.95126  Biso   1.000  N
  N51      1.0000 0.66814  0.97720  0.10798  Biso   1.000  N
  N52      1.0000 0.78016  0.06040  0.22839  Biso   1.000  N
  N53      1.0000 0.81911  0.18790  0.25084  Biso   1.000  N
  N54      1.0000 0.88039  0.95550  0.35827  Biso   1.000  N
  N55      1.0000 0.76360  0.19810  0.19207  Biso   1.000  N
  N56      1.0000 0.57861  0.99540  0.05915  Biso   1.000  N
  N57      1.0000 0.35661  0.16300  0.17577  Biso   1.000  N
  N58      1.0000 0.42257  0.27400  0.06003  Biso   1.000  N
  N59      1.0000 0.47515  0.22820  0.02888  Biso   1.000  N
  C145     1.0000 0.75873  0.11120  0.19729  Biso   1.000  C
  C146     1.0000 0.72693  0.06520  0.16610  Biso   1.000  C
  N60      1.0000 0.46016  0.14820  0.08866  Biso   1.000  N
  C147     1.0000 0.80030  0.33010  0.21909  Biso   1.000  C
  C148     1.0000 0.83780  0.45900  0.24540  Biso   1.000  C
  H97      1.0000 0.85970  0.48410  0.26350  Biso   1.000  H
  C149     1.0000 0.79376  0.23260  0.22039  Biso   1.000  C
  C150     1.0000 0.83487  0.05040  0.28992  Biso   1.000  C
  C151     1.0000 0.88850  0.03980  0.35040  Biso   1.000  C
  H98      1.0000 0.91020  0.06620  0.36820  Biso   1.000  H
  C152     1.0000 0.44131  0.36360  0.00429  Biso   1.000  C
  C153     1.0000 0.34428  0.21040  0.13930  Biso   1.000  C
  H99      1.0000 0.31910  0.23370  0.13370  Biso   1.000  H
  C154     1.0000 0.82624  0.96240  0.29772  Biso   1.000  C
  H100     1.0000 0.80490  0.93420  0.28010  Biso   1.000  H
  C155     1.0000 0.44640  0.28380  0.03244  Biso   1.000  C
  C156     1.0000 0.43035  0.20450  0.08672  Biso   1.000  C
  C157     1.0000 0.48110  0.16320  0.05826  Biso   1.000  C
  C158     1.0000 0.68808  0.93610  0.14363  Biso   1.000  C
  H101     1.0000 0.68170  0.87760  0.14880  Biso   1.000  H
  C159     1.0000 0.46921  0.38590  0.98050  Biso   1.000  C
  H102     1.0000 0.49150  0.35130  0.98220  Biso   1.000  H
  C160     1.0000 0.78100  0.47620  0.19370  Biso   1.000  C
  H103     1.0000 0.76330  0.51300  0.17550  Biso   1.000  H
  C161     1.0000 0.86647  0.08980  0.31720  Biso   1.000  C
  H104     1.0000 0.87280  0.14880  0.31320  Biso   1.000  H
  C162     1.0000 0.51441  0.10360  0.05830  Biso   1.000  C
  C163     1.0000 0.70560  0.10800  0.12946  Biso   1.000  C
  H105     1.0000 0.71070  0.16710  0.12390  Biso   1.000  H
  C164     1.0000 0.40444  0.18950  0.11774  Biso   1.000  C
  C165     1.0000 0.71796  0.97750  0.17333  Biso   1.000  C
  H106     1.0000 0.73170  0.94700  0.19760  Biso   1.000  H
  C166     1.0000 0.56260  0.04200  0.02480  Biso   1.000  C
  H107     1.0000 0.57290  0.03720  0.00000  Biso   1.000  H
  C167     1.0000 0.84958  0.91790  0.33177  Biso   1.000  C
  H108     1.0000 0.84370  0.85910  0.33670  Biso   1.000  H
  C168     1.0000 0.41650  0.13800  0.15460  Biso   1.000  C
  H109     1.0000 0.44100  0.11100  0.16020  Biso   1.000  H
  C169     1.0000 0.83317  0.36770  0.24610  Biso   1.000  C
  H110     1.0000 0.85160  0.33220  0.26410  Biso   1.000  H
  C170     1.0000 0.46309  0.46070  0.95423  Biso   1.000  C
  H111     1.0000 0.48150  0.47530  0.93800  Biso   1.000  H
  C171     1.0000 0.67677  0.06180  0.10140  Biso   1.000  C
  H112     1.0000 0.66270  0.09070  0.07670  Biso   1.000  H
  C172     1.0000 0.40952  0.41920  0.00190  Biso   1.000  C
  H113     1.0000 0.39080  0.40690  0.01800  Biso   1.000  H
  C173     1.0000 0.36760  0.22590  0.11000  Biso   1.000  C
  H114     1.0000 0.35860  0.26040  0.08530  Biso   1.000  H
  C174     1.0000 0.77402  0.38550  0.19250  Biso   1.000  C
  H115     1.0000 0.75190  0.36230  0.17400  Biso   1.000  H
  C175     1.0000 0.40590  0.49260  0.97540  Biso   1.000  C
  H116     1.0000 0.38450  0.52980  0.97430  Biso   1.000  H
  C176     1.0000 0.39180  0.12720  0.18300  Biso   1.000  C
  H117     1.0000 0.40020  0.09350  0.20810  Biso   1.000  H
  C177     1.0000 0.53120  0.09760  0.02336  Biso   1.000  C
  H118     1.0000 0.52150  0.13110  0.99850  Biso   1.000  H
  C178     1.0000 0.56500  0.00990  0.09520  Biso   1.000  C
  H119     1.0000 0.57710  0.98050  0.12060  Biso   1.000  H
  C179     1.0000 0.53400  0.06560  0.09720  Biso   1.000  C
  H120     1.0000 0.52670  0.07710  0.12340  Biso   1.000  H
  C180     1.0000 0.81025  0.10240  0.25398  Biso   1.000  C
  I51      1.0000 0.47056  0.66560  0.87924  Biso   1.000  I
  I52      1.0000 0.36884  0.72197  0.93899  Biso   1.000  I
  I53      1.0000 0.85445  0.69240  0.28939  Biso   1.000  I
  I54      1.0000 0.62530  0.75970  0.07900  Biso   1.000  I
  I55      1.0000 0.75060  0.72960  0.18320  Biso   1.000  I
  I56      1.0000 0.26144  0.23420  0.19560  Biso   1.000  I
  I57      1.0000 0.36798  0.17660  0.29852  Biso   1.000  I
  I58      1.0000 0.14727  0.42664  0.99003  Biso   1.000  I
  I59      1.0000 0.88499  0.23452  0.93681  Biso   1.000  I
  I60      1.0000 0.97969  0.13713  0.87099  Biso   1.000  I
  I61      1.0000 0.11088  0.26605  0.09469  Biso   1.000  I
  Zn16     1.0000 0.32283  0.14842  0.22174  Biso   1.000  Zn
  Zn17     1.0000 0.12613  0.41323  0.06210  Biso   1.000  Zn
  Zn18     1.0000 0.91908  0.11441  0.90585  Biso   1.000  Zn
  N61      1.0000 0.31207  0.01290  0.21974  Biso   1.000  N
  N62      1.0000 0.93163  0.01310  0.95126  Biso   1.000  N
  N63      1.0000 0.16814  0.47720  0.10798  Biso   1.000  N
  N64      1.0000 0.28016  0.56040  0.22839  Biso   1.000  N
  N65      1.0000 0.31911  0.68790  0.25084  Biso   1.000  N
  N66      1.0000 0.38039  0.45550  0.35827  Biso   1.000  N
  N67      1.0000 0.26360  0.69810  0.19207  Biso   1.000  N
  N68      1.0000 0.07861  0.49540  0.05915  Biso   1.000  N
  N69      1.0000 0.85661  0.66300  0.17577  Biso   1.000  N
  N70      1.0000 0.92257  0.77400  0.06003  Biso   1.000  N
  N71      1.0000 0.97515  0.72820  0.02888  Biso   1.000  N
  C181     1.0000 0.25873  0.61120  0.19729  Biso   1.000  C
  C182     1.0000 0.22693  0.56520  0.16610  Biso   1.000  C
  N72      1.0000 0.96016  0.64820  0.08866  Biso   1.000  N
  C183     1.0000 0.30030  0.83010  0.21909  Biso   1.000  C
  C184     1.0000 0.33780  0.95900  0.24540  Biso   1.000  C
  H121     1.0000 0.35970  0.98410  0.26350  Biso   1.000  H
  C185     1.0000 0.29376  0.73260  0.22039  Biso   1.000  C
  C186     1.0000 0.33487  0.55040  0.28992  Biso   1.000  C
  C187     1.0000 0.38850  0.53980  0.35040  Biso   1.000  C
  H122     1.0000 0.41020  0.56620  0.36820  Biso   1.000  H
  C188     1.0000 0.94131  0.86360  0.00429  Biso   1.000  C
  C189     1.0000 0.84428  0.71040  0.13930  Biso   1.000  C
  H123     1.0000 0.81910  0.73370  0.13370  Biso   1.000  H
  C190     1.0000 0.32624  0.46240  0.29772  Biso   1.000  C
  H124     1.0000 0.30490  0.43420  0.28010  Biso   1.000  H
  C191     1.0000 0.94640  0.78380  0.03244  Biso   1.000  C
  C192     1.0000 0.93035  0.70450  0.08672  Biso   1.000  C
  C193     1.0000 0.98110  0.66320  0.05826  Biso   1.000  C
  C194     1.0000 0.18808  0.43610  0.14363  Biso   1.000  C
  H125     1.0000 0.18170  0.37760  0.14880  Biso   1.000  H
  C195     1.0000 0.96921  0.88590  0.98050  Biso   1.000  C
  H126     1.0000 0.99150  0.85130  0.98220  Biso   1.000  H
  C196     1.0000 0.28100  0.97620  0.19370  Biso   1.000  C
  H127     1.0000 0.26330  0.01300  0.17550  Biso   1.000  H
  C197     1.0000 0.36647  0.58980  0.31720  Biso   1.000  C
  H128     1.0000 0.37280  0.64880  0.31320  Biso   1.000  H
  C198     1.0000 0.01441  0.60360  0.05830  Biso   1.000  C
  C199     1.0000 0.20560  0.60800  0.12946  Biso   1.000  C
  H129     1.0000 0.21070  0.66710  0.12390  Biso   1.000  H
  C200     1.0000 0.90444  0.68950  0.11774  Biso   1.000  C
  C201     1.0000 0.21796  0.47750  0.17333  Biso   1.000  C
  H130     1.0000 0.23170  0.44700  0.19760  Biso   1.000  H
  C202     1.0000 0.06260  0.54200  0.02480  Biso   1.000  C
  H131     1.0000 0.07290  0.53720  0.00000  Biso   1.000  H
  C203     1.0000 0.34958  0.41790  0.33177  Biso   1.000  C
  H132     1.0000 0.34370  0.35910  0.33670  Biso   1.000  H
  C204     1.0000 0.91650  0.63800  0.15460  Biso   1.000  C
  H133     1.0000 0.94100  0.61100  0.16020  Biso   1.000  H
  C205     1.0000 0.33317  0.86770  0.24610  Biso   1.000  C
  H134     1.0000 0.35160  0.83220  0.26410  Biso   1.000  H
  C206     1.0000 0.96309  0.96070  0.95423  Biso   1.000  C
  H135     1.0000 0.98150  0.97530  0.93800  Biso   1.000  H
  C207     1.0000 0.17677  0.56180  0.10140  Biso   1.000  C
  H136     1.0000 0.16270  0.59070  0.07670  Biso   1.000  H
  C208     1.0000 0.90952  0.91920  0.00190  Biso   1.000  C
  H137     1.0000 0.89080  0.90690  0.01800  Biso   1.000  H
  C209     1.0000 0.86760  0.72590  0.11000  Biso   1.000  C
  H138     1.0000 0.85860  0.76040  0.08530  Biso   1.000  H
  C210     1.0000 0.27402  0.88550  0.19250  Biso   1.000  C
  H139     1.0000 0.25190  0.86230  0.17400  Biso   1.000  H
  C211     1.0000 0.90590  0.99260  0.97540  Biso   1.000  C
  H140     1.0000 0.88450  0.02980  0.97430  Biso   1.000  H
  C212     1.0000 0.89180  0.62720  0.18300  Biso   1.000  C
  H141     1.0000 0.90020  0.59350  0.20810  Biso   1.000  H
  C213     1.0000 0.03120  0.59760  0.02336  Biso   1.000  C
  H142     1.0000 0.02150  0.63110  0.99850  Biso   1.000  H
  C214     1.0000 0.06500  0.50990  0.09520  Biso   1.000  C
  H143     1.0000 0.07710  0.48050  0.12060  Biso   1.000  H
  C215     1.0000 0.03400  0.56560  0.09720  Biso   1.000  C
  H144     1.0000 0.02670  0.57710  0.12340  Biso   1.000  H
  C216     1.0000 0.31025  0.60240  0.25398  Biso   1.000  C
  I62      1.0000 0.97056  0.16560  0.87924  Biso   1.000  I
  I63      1.0000 0.86884  0.22197  0.93899  Biso   1.000  I
  I64      1.0000 0.35445  0.19240  0.28939  Biso   1.000  I
  I65      1.0000 0.12530  0.25970  0.07900  Biso   1.000  I
  I66      1.0000 0.25060  0.22960  0.18320  Biso   1.000  I
  I67      1.0000 0.76144  0.26580  0.69560  Biso   1.000  I
  I68      1.0000 0.86798  0.32340  0.79852  Biso   1.000  I
  I69      1.0000 0.64727  0.07336  0.49003  Biso   1.000  I
  I70      1.0000 0.38499  0.26548  0.43681  Biso   1.000  I
  I71      1.0000 0.47969  0.36287  0.37099  Biso   1.000  I
  I72      1.0000 0.61088  0.23395  0.59469  Biso   1.000  I
  Zn19     1.0000 0.82283  0.35158  0.72174  Biso   1.000  Zn
  Zn20     1.0000 0.62613  0.08677  0.56210  Biso   1.000  Zn
  Zn21     1.0000 0.41908  0.38559  0.40585  Biso   1.000  Zn
  N73      1.0000 0.81207  0.48710  0.71974  Biso   1.000  N
  N74      1.0000 0.43163  0.48690  0.45126  Biso   1.000  N
  N75      1.0000 0.66814  0.02280  0.60798  Biso   1.000  N
  N76      1.0000 0.78016  0.93960  0.72839  Biso   1.000  N
  N77      1.0000 0.81911  0.81210  0.75084  Biso   1.000  N
  N78      1.0000 0.88039  0.04450  0.85827  Biso   1.000  N
  N79      1.0000 0.76360  0.80190  0.69207  Biso   1.000  N
  N80      1.0000 0.57861  0.00460  0.55915  Biso   1.000  N
  N81      1.0000 0.35661  0.83700  0.67577  Biso   1.000  N
  N82      1.0000 0.42257  0.72600  0.56003  Biso   1.000  N
  N83      1.0000 0.47515  0.77180  0.52888  Biso   1.000  N
  C217     1.0000 0.75873  0.88880  0.69729  Biso   1.000  C
  C218     1.0000 0.72693  0.93480  0.66610  Biso   1.000  C
  N84      1.0000 0.46016  0.85180  0.58866  Biso   1.000  N
  C219     1.0000 0.80030  0.66990  0.71909  Biso   1.000  C
  C220     1.0000 0.83780  0.54100  0.74540  Biso   1.000  C
  H145     1.0000 0.85970  0.51590  0.76350  Biso   1.000  H
  C221     1.0000 0.79376  0.76740  0.72039  Biso   1.000  C
  C222     1.0000 0.83487  0.94960  0.78992  Biso   1.000  C
  C223     1.0000 0.88850  0.96020  0.85040  Biso   1.000  C
  H146     1.0000 0.91020  0.93380  0.86820  Biso   1.000  H
  C224     1.0000 0.44131  0.63640  0.50429  Biso   1.000  C
  C225     1.0000 0.34428  0.78960  0.63930  Biso   1.000  C
  H147     1.0000 0.31910  0.76630  0.63370  Biso   1.000  H
  C226     1.0000 0.82624  0.03760  0.79772  Biso   1.000  C
  H148     1.0000 0.80490  0.06580  0.78010  Biso   1.000  H
  C227     1.0000 0.44640  0.71620  0.53244  Biso   1.000  C
  C228     1.0000 0.43035  0.79550  0.58672  Biso   1.000  C
  C229     1.0000 0.48110  0.83680  0.55826  Biso   1.000  C
  C230     1.0000 0.68808  0.06390  0.64363  Biso   1.000  C
  H149     1.0000 0.68170  0.12240  0.64880  Biso   1.000  H
  C231     1.0000 0.46921  0.61410  0.48050  Biso   1.000  C
  H150     1.0000 0.49150  0.64870  0.48220  Biso   1.000  H
  C232     1.0000 0.78100  0.52380  0.69370  Biso   1.000  C
  H151     1.0000 0.76330  0.48700  0.67550  Biso   1.000  H
  C233     1.0000 0.86647  0.91020  0.81720  Biso   1.000  C
  H152     1.0000 0.87280  0.85120  0.81320  Biso   1.000  H
  C234     1.0000 0.51441  0.89640  0.55830  Biso   1.000  C
  C235     1.0000 0.70560  0.89200  0.62946  Biso   1.000  C
  H153     1.0000 0.71070  0.83290  0.62390  Biso   1.000  H
  C236     1.0000 0.40444  0.81050  0.61774  Biso   1.000  C
  C237     1.0000 0.71796  0.02250  0.67333  Biso   1.000  C
  H154     1.0000 0.73170  0.05300  0.69760  Biso   1.000  H
  C238     1.0000 0.56260  0.95800  0.52480  Biso   1.000  C
  H155     1.0000 0.57290  0.96280  0.50000  Biso   1.000  H
  C239     1.0000 0.84958  0.08210  0.83177  Biso   1.000  C
  H156     1.0000 0.84370  0.14090  0.83670  Biso   1.000  H
  C240     1.0000 0.41650  0.86200  0.65460  Biso   1.000  C
  H157     1.0000 0.44100  0.88900  0.66020  Biso   1.000  H
  C241     1.0000 0.83317  0.63230  0.74610  Biso   1.000  C
  H158     1.0000 0.85160  0.66780  0.76410  Biso   1.000  H
  C242     1.0000 0.46309  0.53930  0.45423  Biso   1.000  C
  H159     1.0000 0.48150  0.52470  0.43800  Biso   1.000  H
  C243     1.0000 0.67677  0.93820  0.60140  Biso   1.000  C
  H160     1.0000 0.66270  0.90930  0.57670  Biso   1.000  H
  C244     1.0000 0.40952  0.58080  0.50190  Biso   1.000  C
  H161     1.0000 0.39080  0.59310  0.51800  Biso   1.000  H
  C245     1.0000 0.36760  0.77410  0.61000  Biso   1.000  C
  H162     1.0000 0.35860  0.73960  0.58530  Biso   1.000  H
  C246     1.0000 0.77402  0.61450  0.69250  Biso   1.000  C
  H163     1.0000 0.75190  0.63770  0.67400  Biso   1.000  H
  C247     1.0000 0.40590  0.50740  0.47540  Biso   1.000  C
  H164     1.0000 0.38450  0.47020  0.47430  Biso   1.000  H
  C248     1.0000 0.39180  0.87280  0.68300  Biso   1.000  C
  H165     1.0000 0.40020  0.90650  0.70810  Biso   1.000  H
  C249     1.0000 0.53120  0.90240  0.52336  Biso   1.000  C
  H166     1.0000 0.52150  0.86890  0.49850  Biso   1.000  H
  C250     1.0000 0.56500  0.99010  0.59520  Biso   1.000  C
  H167     1.0000 0.57710  0.01950  0.62060  Biso   1.000  H
  C251     1.0000 0.53400  0.93440  0.59720  Biso   1.000  C
  H168     1.0000 0.52670  0.92290  0.62340  Biso   1.000  H
  C252     1.0000 0.81025  0.89760  0.75398  Biso   1.000  C
  I73      1.0000 0.47056  0.33440  0.37924  Biso   1.000  I
  I74      1.0000 0.36884  0.27803  0.43899  Biso   1.000  I
  I75      1.0000 0.85445  0.30760  0.78939  Biso   1.000  I
  I76      1.0000 0.62530  0.24030  0.57900  Biso   1.000  I
  I77      1.0000 0.75060  0.27040  0.68320  Biso   1.000  I
  I78      1.0000 0.26144  0.76580  0.69560  Biso   1.000  I
  I79      1.0000 0.36798  0.82340  0.79852  Biso   1.000  I
  I80      1.0000 0.14727  0.57336  0.49003  Biso   1.000  I
  I81      1.0000 0.88499  0.76548  0.43681  Biso   1.000  I
  I82      1.0000 0.97969  0.86287  0.37099  Biso   1.000  I
  I83      1.0000 0.11088  0.73395  0.59469  Biso   1.000  I
  Zn22     1.0000 0.32283  0.85158  0.72174  Biso   1.000  Zn
  Zn23     1.0000 0.12613  0.58677  0.56210  Biso   1.000  Zn
  Zn24     1.0000 0.91908  0.88559  0.40585  Biso   1.000  Zn
  N85      1.0000 0.31207  0.98710  0.71974  Biso   1.000  N
  N86      1.0000 0.93163  0.98690  0.45126  Biso   1.000  N
  N87      1.0000 0.16814  0.52280  0.60798  Biso   1.000  N
  N88      1.0000 0.28016  0.43960  0.72839  Biso   1.000  N
  N89      1.0000 0.31911  0.31210  0.75084  Biso   1.000  N
  N90      1.0000 0.38039  0.54450  0.85827  Biso   1.000  N
  N91      1.0000 0.26360  0.30190  0.69207  Biso   1.000  N
  N92      1.0000 0.07861  0.50460  0.55915  Biso   1.000  N
  N93      1.0000 0.85661  0.33700  0.67577  Biso   1.000  N
  N94      1.0000 0.92257  0.22600  0.56003  Biso   1.000  N
  N95      1.0000 0.97515  0.27180  0.52888  Biso   1.000  N
  C253     1.0000 0.25873  0.38880  0.69729  Biso   1.000  C
  C254     1.0000 0.22693  0.43480  0.66610  Biso   1.000  C
  N96      1.0000 0.96016  0.35180  0.58866  Biso   1.000  N
  C255     1.0000 0.30030  0.16990  0.71909  Biso   1.000  C
  C256     1.0000 0.33780  0.04100  0.74540  Biso   1.000  C
  H169     1.0000 0.35970  0.01590  0.76350  Biso   1.000  H
  C257     1.0000 0.29376  0.26740  0.72039  Biso   1.000  C
  C258     1.0000 0.33487  0.44960  0.78992  Biso   1.000  C
  C259     1.0000 0.38850  0.46020  0.85040  Biso   1.000  C
  H170     1.0000 0.41020  0.43380  0.86820  Biso   1.000  H
  C260     1.0000 0.94131  0.13640  0.50429  Biso   1.000  C
  C261     1.0000 0.84428  0.28960  0.63930  Biso   1.000  C
  H171     1.0000 0.81910  0.26630  0.63370  Biso   1.000  H
  C262     1.0000 0.32624  0.53760  0.79772  Biso   1.000  C
  H172     1.0000 0.30490  0.56580  0.78010  Biso   1.000  H
  C263     1.0000 0.94640  0.21620  0.53244  Biso   1.000  C
  C264     1.0000 0.93035  0.29550  0.58672  Biso   1.000  C
  C265     1.0000 0.98110  0.33680  0.55826  Biso   1.000  C
  C266     1.0000 0.18808  0.56390  0.64363  Biso   1.000  C
  H173     1.0000 0.18170  0.62240  0.64880  Biso   1.000  H
  C267     1.0000 0.96921  0.11410  0.48050  Biso   1.000  C
  H174     1.0000 0.99150  0.14870  0.48220  Biso   1.000  H
  C268     1.0000 0.28100  0.02380  0.69370  Biso   1.000  C
  H175     1.0000 0.26330  0.98700  0.67550  Biso   1.000  H
  C269     1.0000 0.36647  0.41020  0.81720  Biso   1.000  C
  H176     1.0000 0.37280  0.35120  0.81320  Biso   1.000  H
  C270     1.0000 0.01441  0.39640  0.55830  Biso   1.000  C
  C271     1.0000 0.20560  0.39200  0.62946  Biso   1.000  C
  H177     1.0000 0.21070  0.33290  0.62390  Biso   1.000  H
  C272     1.0000 0.90444  0.31050  0.61774  Biso   1.000  C
  C273     1.0000 0.21796  0.52250  0.67333  Biso   1.000  C
  H178     1.0000 0.23170  0.55300  0.69760  Biso   1.000  H
  C274     1.0000 0.06260  0.45800  0.52480  Biso   1.000  C
  H179     1.0000 0.07290  0.46280  0.50000  Biso   1.000  H
  C275     1.0000 0.34958  0.58210  0.83177  Biso   1.000  C
  H180     1.0000 0.34370  0.64090  0.83670  Biso   1.000  H
  C276     1.0000 0.91650  0.36200  0.65460  Biso   1.000  C
  H181     1.0000 0.94100  0.38900  0.66020  Biso   1.000  H
  C277     1.0000 0.33317  0.13230  0.74610  Biso   1.000  C
  H182     1.0000 0.35160  0.16780  0.76410  Biso   1.000  H
  C278     1.0000 0.96309  0.03930  0.45423  Biso   1.000  C
  H183     1.0000 0.98150  0.02470  0.43800  Biso   1.000  H
  C279     1.0000 0.17677  0.43820  0.60140  Biso   1.000  C
  H184     1.0000 0.16270  0.40930  0.57670  Biso   1.000  H
  C280     1.0000 0.90952  0.08080  0.50190  Biso   1.000  C
  H185     1.0000 0.89080  0.09310  0.51800  Biso   1.000  H
  C281     1.0000 0.86760  0.27410  0.61000  Biso   1.000  C
  H186     1.0000 0.85860  0.23960  0.58530  Biso   1.000  H
  C282     1.0000 0.27402  0.11450  0.69250  Biso   1.000  C
  H187     1.0000 0.25190  0.13770  0.67400  Biso   1.000  H
  C283     1.0000 0.90590  0.00740  0.47540  Biso   1.000  C
  H188     1.0000 0.88450  0.97020  0.47430  Biso   1.000  H
  C284     1.0000 0.89180  0.37280  0.68300  Biso   1.000  C
  H189     1.0000 0.90020  0.40650  0.70810  Biso   1.000  H
  C285     1.0000 0.03120  0.40240  0.52336  Biso   1.000  C
  H190     1.0000 0.02150  0.36890  0.49850  Biso   1.000  H
  C286     1.0000 0.06500  0.49010  0.59520  Biso   1.000  C
  H191     1.0000 0.07710  0.51950  0.62060  Biso   1.000  H
  C287     1.0000 0.03400  0.43440  0.59720  Biso   1.000  C
  H192     1.0000 0.02670  0.42290  0.62340  Biso   1.000  H
  C288     1.0000 0.31025  0.39760  0.75398  Biso   1.000  C
  I84      1.0000 0.97056  0.83440  0.37924  Biso   1.000  I
  I85      1.0000 0.86884  0.77803  0.43899  Biso   1.000  I
  I86      1.0000 0.35445  0.80760  0.78939  Biso   1.000  I
  I87      1.0000 0.12530  0.74030  0.57900  Biso   1.000  I
  I88      1.0000 0.25060  0.77040  0.68320  Biso   1.000  I
