data_image0
_cell_length_a       35.0571
_cell_length_b       14.6495
_cell_length_c       31.1547
_cell_angle_alpha    90
_cell_angle_beta     100.846
_cell_angle_gamma    90

_symmetry_space_group_name_H-M    "P 1"
_symmetry_int_tables_number       1

loop_
  _symmetry_equiv_pos_as_xyz
  'x, y, z'

loop_
  _atom_site_label
  _atom_site_occupancy
  _atom_site_fract_x
  _atom_site_fract_y
  _atom_site_fract_z
  _atom_site_thermal_displace_type
  _atom_site_B_iso_or_equiv
  _atom_site_type_symbol
  I1       1.0000 0.73580  0.76039  0.79610  Biso   1.000  I
  I2       1.0000 0.63079  0.83840  0.69850  Biso   1.000  I
  I3       1.0000 0.35413  0.89270  0.50559  Biso   1.000  I
  I4       1.0000 0.61690  0.74648  0.56308  Biso   1.000  I
  I5       1.0000 0.52299  0.66292  0.63504  Biso   1.000  I
  I6       1.0000 0.39384  0.75190  0.39425  Biso   1.000  I
  Zn1      1.0000 0.67371  0.85145  0.77399  Biso   1.000  Zn
  Zn2      1.0000 0.58179  0.62886  0.60006  Biso   1.000  Zn
  Zn3      1.0000 0.37671  0.89609  0.43250  Biso   1.000  Zn
  N1       1.0000 0.68380  0.99020  0.78380  Biso   1.000  N
  N2       1.0000 0.73460  0.31250  0.81280  Biso   1.000  N
  N3       1.0000 0.68060  0.32290  0.75440  Biso   1.000  N
  N4       1.0000 0.72110  0.45160  0.77400  Biso   1.000  N
  N5       1.0000 0.61990  0.56000  0.64760  Biso   1.000  N
  N6       1.0000 0.56930  0.52110  0.55610  Biso   1.000  N
  N7       1.0000 0.57530  0.28640  0.44170  Biso   1.000  N
  N8       1.0000 0.52350  0.23310  0.47460  Biso   1.000  N
  N9       1.0000 0.54050  0.15230  0.41490  Biso   1.000  N
  N10      1.0000 0.63980  0.17630  0.31930  Biso   1.000  N
  N11      1.0000 0.42310  0.98490  0.44000  Biso   1.000  N
  N12      1.0000 0.83440  0.53620  0.88950  Biso   1.000  N
  C1       1.0000 0.71590  0.02500  0.80710  Biso   1.000  C
  H1       1.0000 0.73450  0.98520  0.82200  Biso   1.000  H
  C2       1.0000 0.72330  0.11880  0.81050  Biso   1.000  C
  H2       1.0000 0.74590  0.14060  0.82800  Biso   1.000  H
  C3       1.0000 0.69670  0.17800  0.78770  Biso   1.000  C
  C4       1.0000 0.66230  0.14200  0.76380  Biso   1.000  C
  H3       1.0000 0.64320  0.18030  0.74880  Biso   1.000  H
  C5       1.0000 0.65730  0.04880  0.76270  Biso   1.000  C
  H4       1.0000 0.63430  0.02520  0.74670  Biso   1.000  H
  C6       1.0000 0.70440  0.27680  0.78570  Biso   1.000  C
  C7       1.0000 0.74140  0.40090  0.80490  Biso   1.000  C
  C8       1.0000 0.69030  0.40980  0.75030  Biso   1.000  C
  C9       1.0000 0.66620  0.46350  0.71490  Biso   1.000  C
  C10      1.0000 0.67590  0.55130  0.70420  Biso   1.000  C
  H5       1.0000 0.69810  0.57930  0.71970  Biso   1.000  H
  C11      1.0000 0.65230  0.59660  0.67040  Biso   1.000  C
  H6       1.0000 0.65920  0.65510  0.66320  Biso   1.000  H
  C12      1.0000 0.61000  0.47610  0.65860  Biso   1.000  C
  H7       1.0000 0.58700  0.45090  0.64350  Biso   1.000  H
  C13      1.0000 0.63250  0.42460  0.69150  Biso   1.000  C
  H8       1.0000 0.62520  0.36570  0.69760  Biso   1.000  H
  C14      1.0000 0.53650  0.47190  0.55140  Biso   1.000  C
  H9       1.0000 0.51750  0.48930  0.56690  Biso   1.000  H
  C15      1.0000 0.52990  0.39610  0.52430  Biso   1.000  C
  H10      1.0000 0.50700  0.36300  0.52200  Biso   1.000  H
  C16      1.0000 0.55800  0.37060  0.50070  Biso   1.000  C
  C17      1.0000 0.59140  0.42100  0.50540  Biso   1.000  C
  H11      1.0000 0.61070  0.40550  0.49000  Biso   1.000  H
  C18      1.0000 0.59620  0.49640  0.53370  Biso   1.000  C
  H12      1.0000 0.61900  0.53020  0.53680  Biso   1.000  H
  C19      1.0000 0.55200  0.29170  0.47040  Biso   1.000  C
  C20      1.0000 0.51840  0.16550  0.44520  Biso   1.000  C
  C21      1.0000 0.56790  0.21360  0.41410  Biso   1.000  C
  C22      1.0000 0.59270  0.20310  0.38110  Biso   1.000  C
  C23      1.0000 0.62890  0.24250  0.38610  Biso   1.000  C
  H13      1.0000 0.63770  0.28050  0.40980  Biso   1.000  H
  C24      1.0000 0.65230  0.22530  0.35540  Biso   1.000  C
  H14      1.0000 0.67740  0.24870  0.36020  Biso   1.000  H
  C25      1.0000 0.60410  0.14250  0.31380  Biso   1.000  C
  H15      1.0000 0.59480  0.10940  0.28850  Biso   1.000  H
  C26      1.0000 0.58000  0.15420  0.34360  Biso   1.000  C
  H16      1.0000 0.55520  0.12890  0.33840  Biso   1.000  H
  C27      1.0000 0.48600  0.10280  0.44450  Biso   1.000  C
  C28      1.0000 0.46730  0.09270  0.47850  Biso   1.000  C
  H17      1.0000 0.47530  0.12650  0.50380  Biso   1.000  H
  C29      1.0000 0.43700  0.03340  0.47590  Biso   1.000  C
  H18      1.0000 0.42540  0.02650  0.50030  Biso   1.000  H
  C30      1.0000 0.44070  0.99750  0.40590  Biso   1.000  C
  H19      1.0000 0.43140  0.96570  0.38020  Biso   1.000  H
  C31      1.0000 0.47140  0.05440  0.40690  Biso   1.000  C
  H20      1.0000 0.48260  0.06080  0.38230  Biso   1.000  H
  C32      1.0000 0.82140  0.45340  0.90080  Biso   1.000  C
  H21      1.0000 0.83270  0.42800  0.92760  Biso   1.000  H
  C33      1.0000 0.79220  0.40610  0.87390  Biso   1.000  C
  H22      1.0000 0.78470  0.34860  0.88180  Biso   1.000  H
  C34      1.0000 0.77430  0.44650  0.83480  Biso   1.000  C
  C35      1.0000 0.78720  0.53040  0.82380  Biso   1.000  C
  H23      1.0000 0.77550  0.55860  0.79780  Biso   1.000  H
  C36      1.0000 0.81770  0.57310  0.85160  Biso   1.000  C
  H24      1.0000 0.82660  0.62910  0.84350  Biso   1.000  H
  I7       1.0000 0.35040  0.87100  0.49850  Biso   1.000  I
  I8       1.0000 0.63300  0.72740  0.55850  Biso   1.000  I
  I9       1.0000 0.53070  0.67540  0.62180  Biso   1.000  I
  I10      1.0000 0.40150  0.77310  0.38900  Biso   1.000  I
  I11      1.0000 0.23580  0.26039  0.79610  Biso   1.000  I
  I12      1.0000 0.13079  0.33840  0.69850  Biso   1.000  I
  I13      1.0000 0.85413  0.39270  0.50559  Biso   1.000  I
  I14      1.0000 0.11690  0.24648  0.56308  Biso   1.000  I
  I15      1.0000 0.02299  0.16292  0.63504  Biso   1.000  I
  I16      1.0000 0.89384  0.25190  0.39425  Biso   1.000  I
  Zn4      1.0000 0.17371  0.35145  0.77399  Biso   1.000  Zn
  Zn5      1.0000 0.08179  0.12886  0.60006  Biso   1.000  Zn
  Zn6      1.0000 0.87671  0.39609  0.43250  Biso   1.000  Zn
  N13      1.0000 0.18380  0.49020  0.78380  Biso   1.000  N
  N14      1.0000 0.23460  0.81250  0.81280  Biso   1.000  N
  N15      1.0000 0.18060  0.82290  0.75440  Biso   1.000  N
  N16      1.0000 0.22110  0.95160  0.77400  Biso   1.000  N
  N17      1.0000 0.11990  0.06000  0.64760  Biso   1.000  N
  N18      1.0000 0.06930  0.02110  0.55610  Biso   1.000  N
  N19      1.0000 0.07530  0.78640  0.44170  Biso   1.000  N
  N20      1.0000 0.02350  0.73310  0.47460  Biso   1.000  N
  N21      1.0000 0.04050  0.65230  0.41490  Biso   1.000  N
  N22      1.0000 0.13980  0.67630  0.31930  Biso   1.000  N
  N23      1.0000 0.92310  0.48490  0.44000  Biso   1.000  N
  N24      1.0000 0.33440  0.03620  0.88950  Biso   1.000  N
  C37      1.0000 0.21590  0.52500  0.80710  Biso   1.000  C
  H25      1.0000 0.23450  0.48520  0.82200  Biso   1.000  H
  C38      1.0000 0.22330  0.61880  0.81050  Biso   1.000  C
  H26      1.0000 0.24590  0.64060  0.82800  Biso   1.000  H
  C39      1.0000 0.19670  0.67800  0.78770  Biso   1.000  C
  C40      1.0000 0.16230  0.64200  0.76380  Biso   1.000  C
  H27      1.0000 0.14320  0.68030  0.74880  Biso   1.000  H
  C41      1.0000 0.15730  0.54880  0.76270  Biso   1.000  C
  H28      1.0000 0.13430  0.52520  0.74670  Biso   1.000  H
  C42      1.0000 0.20440  0.77680  0.78570  Biso   1.000  C
  C43      1.0000 0.24140  0.90090  0.80490  Biso   1.000  C
  C44      1.0000 0.19030  0.90980  0.75030  Biso   1.000  C
  C45      1.0000 0.16620  0.96350  0.71490  Biso   1.000  C
  C46      1.0000 0.17590  0.05130  0.70420  Biso   1.000  C
  H29      1.0000 0.19810  0.07930  0.71970  Biso   1.000  H
  C47      1.0000 0.15230  0.09660  0.67040  Biso   1.000  C
  H30      1.0000 0.15920  0.15510  0.66320  Biso   1.000  H
  C48      1.0000 0.11000  0.97610  0.65860  Biso   1.000  C
  H31      1.0000 0.08700  0.95090  0.64350  Biso   1.000  H
  C49      1.0000 0.13250  0.92460  0.69150  Biso   1.000  C
  H32      1.0000 0.12520  0.86570  0.69760  Biso   1.000  H
  C50      1.0000 0.03650  0.97190  0.55140  Biso   1.000  C
  H33      1.0000 0.01750  0.98930  0.56690  Biso   1.000  H
  C51      1.0000 0.02990  0.89610  0.52430  Biso   1.000  C
  H34      1.0000 0.00700  0.86300  0.52200  Biso   1.000  H
  C52      1.0000 0.05800  0.87060  0.50070  Biso   1.000  C
  C53      1.0000 0.09140  0.92100  0.50540  Biso   1.000  C
  H35      1.0000 0.11070  0.90550  0.49000  Biso   1.000  H
  C54      1.0000 0.09620  0.99640  0.53370  Biso   1.000  C
  H36      1.0000 0.11900  0.03020  0.53680  Biso   1.000  H
  C55      1.0000 0.05200  0.79170  0.47040  Biso   1.000  C
  C56      1.0000 0.01840  0.66550  0.44520  Biso   1.000  C
  C57      1.0000 0.06790  0.71360  0.41410  Biso   1.000  C
  C58      1.0000 0.09270  0.70310  0.38110  Biso   1.000  C
  C59      1.0000 0.12890  0.74250  0.38610  Biso   1.000  C
  H37      1.0000 0.13770  0.78050  0.40980  Biso   1.000  H
  C60      1.0000 0.15230  0.72530  0.35540  Biso   1.000  C
  H38      1.0000 0.17740  0.74870  0.36020  Biso   1.000  H
  C61      1.0000 0.10410  0.64250  0.31380  Biso   1.000  C
  H39      1.0000 0.09480  0.60940  0.28850  Biso   1.000  H
  C62      1.0000 0.08000  0.65420  0.34360  Biso   1.000  C
  H40      1.0000 0.05520  0.62890  0.33840  Biso   1.000  H
  C63      1.0000 0.98600  0.60280  0.44450  Biso   1.000  C
  C64      1.0000 0.96730  0.59270  0.47850  Biso   1.000  C
  H41      1.0000 0.97530  0.62650  0.50380  Biso   1.000  H
  C65      1.0000 0.93700  0.53340  0.47590  Biso   1.000  C
  H42      1.0000 0.92540  0.52650  0.50030  Biso   1.000  H
  C66      1.0000 0.94070  0.49750  0.40590  Biso   1.000  C
  H43      1.0000 0.93140  0.46570  0.38020  Biso   1.000  H
  C67      1.0000 0.97140  0.55440  0.40690  Biso   1.000  C
  H44      1.0000 0.98260  0.56080  0.38230  Biso   1.000  H
  C68      1.0000 0.32140  0.95340  0.90080  Biso   1.000  C
  H45      1.0000 0.33270  0.92800  0.92760  Biso   1.000  H
  C69      1.0000 0.29220  0.90610  0.87390  Biso   1.000  C
  H46      1.0000 0.28470  0.84860  0.88180  Biso   1.000  H
  C70      1.0000 0.27430  0.94650  0.83480  Biso   1.000  C
  C71      1.0000 0.28720  0.03040  0.82380  Biso   1.000  C
  H47      1.0000 0.27550  0.05860  0.79780  Biso   1.000  H
  C72      1.0000 0.31770  0.07310  0.85160  Biso   1.000  C
  H48      1.0000 0.32660  0.12910  0.84350  Biso   1.000  H
  I17      1.0000 0.85040  0.37100  0.49850  Biso   1.000  I
  I18      1.0000 0.13300  0.22740  0.55850  Biso   1.000  I
  I19      1.0000 0.03070  0.17540  0.62180  Biso   1.000  I
  I20      1.0000 0.90150  0.27310  0.38900  Biso   1.000  I
  I21      1.0000 0.73580  0.23961  0.29610  Biso   1.000  I
  I22      1.0000 0.63079  0.16160  0.19850  Biso   1.000  I
  I23      1.0000 0.35413  0.10730  0.00559  Biso   1.000  I
  I24      1.0000 0.61690  0.25352  0.06308  Biso   1.000  I
  I25      1.0000 0.52299  0.33708  0.13504  Biso   1.000  I
  I26      1.0000 0.39384  0.24810  0.89425  Biso   1.000  I
  Zn7      1.0000 0.67371  0.14855  0.27399  Biso   1.000  Zn
  Zn8      1.0000 0.58179  0.37114  0.10006  Biso   1.000  Zn
  Zn9      1.0000 0.37671  0.10391  0.93250  Biso   1.000  Zn
  N25      1.0000 0.68380  0.00980  0.28380  Biso   1.000  N
  N26      1.0000 0.73460  0.68750  0.31280  Biso   1.000  N
  N27      1.0000 0.68060  0.67710  0.25440  Biso   1.000  N
  N28      1.0000 0.72110  0.54840  0.27400  Biso   1.000  N
  N29      1.0000 0.61990  0.44000  0.14760  Biso   1.000  N
  N30      1.0000 0.56930  0.47890  0.05610  Biso   1.000  N
  N31      1.0000 0.57530  0.71360  0.94170  Biso   1.000  N
  N32      1.0000 0.52350  0.76690  0.97460  Biso   1.000  N
  N33      1.0000 0.54050  0.84770  0.91490  Biso   1.000  N
  N34      1.0000 0.63980  0.82370  0.81930  Biso   1.000  N
  N35      1.0000 0.42310  0.01510  0.94000  Biso   1.000  N
  N36      1.0000 0.83440  0.46380  0.38950  Biso   1.000  N
  C73      1.0000 0.71590  0.97500  0.30710  Biso   1.000  C
  H49      1.0000 0.73450  0.01480  0.32200  Biso   1.000  H
  C74      1.0000 0.72330  0.88120  0.31050  Biso   1.000  C
  H50      1.0000 0.74590  0.85940  0.32800  Biso   1.000  H
  C75      1.0000 0.69670  0.82200  0.28770  Biso   1.000  C
  C76      1.0000 0.66230  0.85800  0.26380  Biso   1.000  C
  H51      1.0000 0.64320  0.81970  0.24880  Biso   1.000  H
  C77      1.0000 0.65730  0.95120  0.26270  Biso   1.000  C
  H52      1.0000 0.63430  0.97480  0.24670  Biso   1.000  H
  C78      1.0000 0.70440  0.72320  0.28570  Biso   1.000  C
  C79      1.0000 0.74140  0.59910  0.30490  Biso   1.000  C
  C80      1.0000 0.69030  0.59020  0.25030  Biso   1.000  C
  C81      1.0000 0.66620  0.53650  0.21490  Biso   1.000  C
  C82      1.0000 0.67590  0.44870  0.20420  Biso   1.000  C
  H53      1.0000 0.69810  0.42070  0.21970  Biso   1.000  H
  C83      1.0000 0.65230  0.40340  0.17040  Biso   1.000  C
  H54      1.0000 0.65920  0.34490  0.16320  Biso   1.000  H
  C84      1.0000 0.61000  0.52390  0.15860  Biso   1.000  C
  H55      1.0000 0.58700  0.54910  0.14350  Biso   1.000  H
  C85      1.0000 0.63250  0.57540  0.19150  Biso   1.000  C
  H56      1.0000 0.62520  0.63430  0.19760  Biso   1.000  H
  C86      1.0000 0.53650  0.52810  0.05140  Biso   1.000  C
  H57      1.0000 0.51750  0.51070  0.06690  Biso   1.000  H
  C87      1.0000 0.52990  0.60390  0.02430  Biso   1.000  C
  H58      1.0000 0.50700  0.63700  0.02200  Biso   1.000  H
  C88      1.0000 0.55800  0.62940  0.00070  Biso   1.000  C
  C89      1.0000 0.59140  0.57900  0.00540  Biso   1.000  C
  H59      1.0000 0.61070  0.59450  0.99000  Biso   1.000  H
  C90      1.0000 0.59620  0.50360  0.03370  Biso   1.000  C
  H60      1.0000 0.61900  0.46980  0.03680  Biso   1.000  H
  C91      1.0000 0.55200  0.70830  0.97040  Biso   1.000  C
  C92      1.0000 0.51840  0.83450  0.94520  Biso   1.000  C
  C93      1.0000 0.56790  0.78640  0.91410  Biso   1.000  C
  C94      1.0000 0.59270  0.79690  0.88110  Biso   1.000  C
  C95      1.0000 0.62890  0.75750  0.88610  Biso   1.000  C
  H61      1.0000 0.63770  0.71950  0.90980  Biso   1.000  H
  C96      1.0000 0.65230  0.77470  0.85540  Biso   1.000  C
  H62      1.0000 0.67740  0.75130  0.86020  Biso   1.000  H
  C97      1.0000 0.60410  0.85750  0.81380  Biso   1.000  C
  H63      1.0000 0.59480  0.89060  0.78850  Biso   1.000  H
  C98      1.0000 0.58000  0.84580  0.84360  Biso   1.000  C
  H64      1.0000 0.55520  0.87110  0.83840  Biso   1.000  H
  C99      1.0000 0.48600  0.89720  0.94450  Biso   1.000  C
  C100     1.0000 0.46730  0.90730  0.97850  Biso   1.000  C
  H65      1.0000 0.47530  0.87350  0.00380  Biso   1.000  H
  C101     1.0000 0.43700  0.96660  0.97590  Biso   1.000  C
  H66      1.0000 0.42540  0.97350  0.00030  Biso   1.000  H
  C102     1.0000 0.44070  0.00250  0.90590  Biso   1.000  C
  H67      1.0000 0.43140  0.03430  0.88020  Biso   1.000  H
  C103     1.0000 0.47140  0.94560  0.90690  Biso   1.000  C
  H68      1.0000 0.48260  0.93920  0.88230  Biso   1.000  H
  C104     1.0000 0.82140  0.54660  0.40080  Biso   1.000  C
  H69      1.0000 0.83270  0.57200  0.42760  Biso   1.000  H
  C105     1.0000 0.79220  0.59390  0.37390  Biso   1.000  C
  H70      1.0000 0.78470  0.65140  0.38180  Biso   1.000  H
  C106     1.0000 0.77430  0.55350  0.33480  Biso   1.000  C
  C107     1.0000 0.78720  0.46960  0.32380  Biso   1.000  C
  H71      1.0000 0.77550  0.44140  0.29780  Biso   1.000  H
  C108     1.0000 0.81770  0.42690  0.35160  Biso   1.000  C
  H72      1.0000 0.82660  0.37090  0.34350  Biso   1.000  H
  I27      1.0000 0.35040  0.12900  0.99850  Biso   1.000  I
  I28      1.0000 0.63300  0.27260  0.05850  Biso   1.000  I
  I29      1.0000 0.53070  0.32460  0.12180  Biso   1.000  I
  I30      1.0000 0.40150  0.22690  0.88900  Biso   1.000  I
  I31      1.0000 0.23580  0.73961  0.29610  Biso   1.000  I
  I32      1.0000 0.13079  0.66160  0.19850  Biso   1.000  I
  I33      1.0000 0.85413  0.60730  0.00559  Biso   1.000  I
  I34      1.0000 0.11690  0.75352  0.06308  Biso   1.000  I
  I35      1.0000 0.02299  0.83708  0.13504  Biso   1.000  I
  I36      1.0000 0.89384  0.74810  0.89425  Biso   1.000  I
  Zn10     1.0000 0.17371  0.64855  0.27399  Biso   1.000  Zn
  Zn11     1.0000 0.08179  0.87114  0.10006  Biso   1.000  Zn
  Zn12     1.0000 0.87671  0.60391  0.93250  Biso   1.000  Zn
  N37      1.0000 0.18380  0.50980  0.28380  Biso   1.000  N
  N38      1.0000 0.23460  0.18750  0.31280  Biso   1.000  N
  N39      1.0000 0.18060  0.17710  0.25440  Biso   1.000  N
  N40      1.0000 0.22110  0.04840  0.27400  Biso   1.000  N
  N41      1.0000 0.11990  0.94000  0.14760  Biso   1.000  N
  N42      1.0000 0.06930  0.97890  0.05610  Biso   1.000  N
  N43      1.0000 0.07530  0.21360  0.94170  Biso   1.000  N
  N44      1.0000 0.02350  0.26690  0.97460  Biso   1.000  N
  N45      1.0000 0.04050  0.34770  0.91490  Biso   1.000  N
  N46      1.0000 0.13980  0.32370  0.81930  Biso   1.000  N
  N47      1.0000 0.92310  0.51510  0.94000  Biso   1.000  N
  N48      1.0000 0.33440  0.96380  0.38950  Biso   1.000  N
  C109     1.0000 0.21590  0.47500  0.30710  Biso   1.000  C
  H73      1.0000 0.23450  0.51480  0.32200  Biso   1.000  H
  C110     1.0000 0.22330  0.38120  0.31050  Biso   1.000  C
  H74      1.0000 0.24590  0.35940  0.32800  Biso   1.000  H
  C111     1.0000 0.19670  0.32200  0.28770  Biso   1.000  C
  C112     1.0000 0.16230  0.35800  0.26380  Biso   1.000  C
  H75      1.0000 0.14320  0.31970  0.24880  Biso   1.000  H
  C113     1.0000 0.15730  0.45120  0.26270  Biso   1.000  C
  H76      1.0000 0.13430  0.47480  0.24670  Biso   1.000  H
  C114     1.0000 0.20440  0.22320  0.28570  Biso   1.000  C
  C115     1.0000 0.24140  0.09910  0.30490  Biso   1.000  C
  C116     1.0000 0.19030  0.09020  0.25030  Biso   1.000  C
  C117     1.0000 0.16620  0.03650  0.21490  Biso   1.000  C
  C118     1.0000 0.17590  0.94870  0.20420  Biso   1.000  C
  H77      1.0000 0.19810  0.92070  0.21970  Biso   1.000  H
  C119     1.0000 0.15230  0.90340  0.17040  Biso   1.000  C
  H78      1.0000 0.15920  0.84490  0.16320  Biso   1.000  H
  C120     1.0000 0.11000  0.02390  0.15860  Biso   1.000  C
  H79      1.0000 0.08700  0.04910  0.14350  Biso   1.000  H
  C121     1.0000 0.13250  0.07540  0.19150  Biso   1.000  C
  H80      1.0000 0.12520  0.13430  0.19760  Biso   1.000  H
  C122     1.0000 0.03650  0.02810  0.05140  Biso   1.000  C
  H81      1.0000 0.01750  0.01070  0.06690  Biso   1.000  H
  C123     1.0000 0.02990  0.10390  0.02430  Biso   1.000  C
  H82      1.0000 0.00700  0.13700  0.02200  Biso   1.000  H
  C124     1.0000 0.05800  0.12940  0.00070  Biso   1.000  C
  C125     1.0000 0.09140  0.07900  0.00540  Biso   1.000  C
  H83      1.0000 0.11070  0.09450  0.99000  Biso   1.000  H
  C126     1.0000 0.09620  0.00360  0.03370  Biso   1.000  C
  H84      1.0000 0.11900  0.96980  0.03680  Biso   1.000  H
  C127     1.0000 0.05200  0.20830  0.97040  Biso   1.000  C
  C128     1.0000 0.01840  0.33450  0.94520  Biso   1.000  C
  C129     1.0000 0.06790  0.28640  0.91410  Biso   1.000  C
  C130     1.0000 0.09270  0.29690  0.88110  Biso   1.000  C
  C131     1.0000 0.12890  0.25750  0.88610  Biso   1.000  C
  H85      1.0000 0.13770  0.21950  0.90980  Biso   1.000  H
  C132     1.0000 0.15230  0.27470  0.85540  Biso   1.000  C
  H86      1.0000 0.17740  0.25130  0.86020  Biso   1.000  H
  C133     1.0000 0.10410  0.35750  0.81380  Biso   1.000  C
  H87      1.0000 0.09480  0.39060  0.78850  Biso   1.000  H
  C134     1.0000 0.08000  0.34580  0.84360  Biso   1.000  C
  H88      1.0000 0.05520  0.37110  0.83840  Biso   1.000  H
  C135     1.0000 0.98600  0.39720  0.94450  Biso   1.000  C
  C136     1.0000 0.96730  0.40730  0.97850  Biso   1.000  C
  H89      1.0000 0.97530  0.37350  0.00380  Biso   1.000  H
  C137     1.0000 0.93700  0.46660  0.97590  Biso   1.000  C
  H90      1.0000 0.92540  0.47350  0.00030  Biso   1.000  H
  C138     1.0000 0.94070  0.50250  0.90590  Biso   1.000  C
  H91      1.0000 0.93140  0.53430  0.88020  Biso   1.000  H
  C139     1.0000 0.97140  0.44560  0.90690  Biso   1.000  C
  H92      1.0000 0.98260  0.43920  0.88230  Biso   1.000  H
  C140     1.0000 0.32140  0.04660  0.40080  Biso   1.000  C
  H93      1.0000 0.33270  0.07200  0.42760  Biso   1.000  H
  C141     1.0000 0.29220  0.09390  0.37390  Biso   1.000  C
  H94      1.0000 0.28470  0.15140  0.38180  Biso   1.000  H
  C142     1.0000 0.27430  0.05350  0.33480  Biso   1.000  C
  C143     1.0000 0.28720  0.96960  0.32380  Biso   1.000  C
  H95      1.0000 0.27550  0.94140  0.29780  Biso   1.000  H
  C144     1.0000 0.31770  0.92690  0.35160  Biso   1.000  C
  H96      1.0000 0.32660  0.87090  0.34350  Biso   1.000  H
  I37      1.0000 0.85040  0.62900  0.99850  Biso   1.000  I
  I38      1.0000 0.13300  0.77260  0.05850  Biso   1.000  I
  I39      1.0000 0.03070  0.82460  0.12180  Biso   1.000  I
  I40      1.0000 0.90150  0.72690  0.88900  Biso   1.000  I
  I41      1.0000 0.26420  0.76039  0.70390  Biso   1.000  I
  I42      1.0000 0.36921  0.83840  0.80150  Biso   1.000  I
  I43      1.0000 0.64587  0.89270  0.99441  Biso   1.000  I
  I44      1.0000 0.38310  0.74648  0.93692  Biso   1.000  I
  I45      1.0000 0.47701  0.66292  0.86496  Biso   1.000  I
  I46      1.0000 0.60616  0.75190  0.10575  Biso   1.000  I
  Zn13     1.0000 0.32629  0.85145  0.72601  Biso   1.000  Zn
  Zn14     1.0000 0.41821  0.62886  0.89994  Biso   1.000  Zn
  Zn15     1.0000 0.62329  0.89609  0.06750  Biso   1.000  Zn
  N49      1.0000 0.31620  0.99020  0.71620  Biso   1.000  N
  N50      1.0000 0.26540  0.31250  0.68720  Biso   1.000  N
  N51      1.0000 0.31940  0.32290  0.74560  Biso   1.000  N
  N52      1.0000 0.27890  0.45160  0.72600  Biso   1.000  N
  N53      1.0000 0.38010  0.56000  0.85240  Biso   1.000  N
  N54      1.0000 0.43070  0.52110  0.94390  Biso   1.000  N
  N55      1.0000 0.42470  0.28640  0.05830  Biso   1.000  N
  N56      1.0000 0.47650  0.23310  0.02540  Biso   1.000  N
  N57      1.0000 0.45950  0.15230  0.08510  Biso   1.000  N
  N58      1.0000 0.36020  0.17630  0.18070  Biso   1.000  N
  N59      1.0000 0.57690  0.98490  0.06000  Biso   1.000  N
  N60      1.0000 0.16560  0.53620  0.61050  Biso   1.000  N
  C145     1.0000 0.28410  0.02500  0.69290  Biso   1.000  C
  H97      1.0000 0.26550  0.98520  0.67800  Biso   1.000  H
  C146     1.0000 0.27670  0.11880  0.68950  Biso   1.000  C
  H98      1.0000 0.25410  0.14060  0.67200  Biso   1.000  H
  C147     1.0000 0.30330  0.17800  0.71230  Biso   1.000  C
  C148     1.0000 0.33770  0.14200  0.73620  Biso   1.000  C
  H99      1.0000 0.35680  0.18030  0.75120  Biso   1.000  H
  C149     1.0000 0.34270  0.04880  0.73730  Biso   1.000  C
  H100     1.0000 0.36570  0.02520  0.75330  Biso   1.000  H
  C150     1.0000 0.29560  0.27680  0.71430  Biso   1.000  C
  C151     1.0000 0.25860  0.40090  0.69510  Biso   1.000  C
  C152     1.0000 0.30970  0.40980  0.74970  Biso   1.000  C
  C153     1.0000 0.33380  0.46350  0.78510  Biso   1.000  C
  C154     1.0000 0.32410  0.55130  0.79580  Biso   1.000  C
  H101     1.0000 0.30190  0.57930  0.78030  Biso   1.000  H
  C155     1.0000 0.34770  0.59660  0.82960  Biso   1.000  C
  H102     1.0000 0.34080  0.65510  0.83680  Biso   1.000  H
  C156     1.0000 0.39000  0.47610  0.84140  Biso   1.000  C
  H103     1.0000 0.41300  0.45090  0.85650  Biso   1.000  H
  C157     1.0000 0.36750  0.42460  0.80850  Biso   1.000  C
  H104     1.0000 0.37480  0.36570  0.80240  Biso   1.000  H
  C158     1.0000 0.46350  0.47190  0.94860  Biso   1.000  C
  H105     1.0000 0.48250  0.48930  0.93310  Biso   1.000  H
  C159     1.0000 0.47010  0.39610  0.97570  Biso   1.000  C
  H106     1.0000 0.49300  0.36300  0.97800  Biso   1.000  H
  C160     1.0000 0.44200  0.37060  0.99930  Biso   1.000  C
  C161     1.0000 0.40860  0.42100  0.99460  Biso   1.000  C
  H107     1.0000 0.38930  0.40550  0.01000  Biso   1.000  H
  C162     1.0000 0.40380  0.49640  0.96630  Biso   1.000  C
  H108     1.0000 0.38100  0.53020  0.96320  Biso   1.000  H
  C163     1.0000 0.44800  0.29170  0.02960  Biso   1.000  C
  C164     1.0000 0.48160  0.16550  0.05480  Biso   1.000  C
  C165     1.0000 0.43210  0.21360  0.08590  Biso   1.000  C
  C166     1.0000 0.40730  0.20310  0.11890  Biso   1.000  C
  C167     1.0000 0.37110  0.24250  0.11390  Biso   1.000  C
  H109     1.0000 0.36230  0.28050  0.09020  Biso   1.000  H
  C168     1.0000 0.34770  0.22530  0.14460  Biso   1.000  C
  H110     1.0000 0.32260  0.24870  0.13980  Biso   1.000  H
  C169     1.0000 0.39590  0.14250  0.18620  Biso   1.000  C
  H111     1.0000 0.40520  0.10940  0.21150  Biso   1.000  H
  C170     1.0000 0.42000  0.15420  0.15640  Biso   1.000  C
  H112     1.0000 0.44480  0.12890  0.16160  Biso   1.000  H
  C171     1.0000 0.51400  0.10280  0.05550  Biso   1.000  C
  C172     1.0000 0.53270  0.09270  0.02150  Biso   1.000  C
  H113     1.0000 0.52470  0.12650  0.99620  Biso   1.000  H
  C173     1.0000 0.56300  0.03340  0.02410  Biso   1.000  C
  H114     1.0000 0.57460  0.02650  0.99970  Biso   1.000  H
  C174     1.0000 0.55930  0.99750  0.09410  Biso   1.000  C
  H115     1.0000 0.56860  0.96570  0.11980  Biso   1.000  H
  C175     1.0000 0.52860  0.05440  0.09310  Biso   1.000  C
  H116     1.0000 0.51740  0.06080  0.11770  Biso   1.000  H
  C176     1.0000 0.17860  0.45340  0.59920  Biso   1.000  C
  H117     1.0000 0.16730  0.42800  0.57240  Biso   1.000  H
  C177     1.0000 0.20780  0.40610  0.62610  Biso   1.000  C
  H118     1.0000 0.21530  0.34860  0.61820  Biso   1.000  H
  C178     1.0000 0.22570  0.44650  0.66520  Biso   1.000  C
  C179     1.0000 0.21280  0.53040  0.67620  Biso   1.000  C
  H119     1.0000 0.22450  0.55860  0.70220  Biso   1.000  H
  C180     1.0000 0.18230  0.57310  0.64840  Biso   1.000  C
  H120     1.0000 0.17340  0.62910  0.65650  Biso   1.000  H
  I47      1.0000 0.64960  0.87100  0.00150  Biso   1.000  I
  I48      1.0000 0.36700  0.72740  0.94150  Biso   1.000  I
  I49      1.0000 0.46930  0.67540  0.87820  Biso   1.000  I
  I50      1.0000 0.59850  0.77310  0.11100  Biso   1.000  I
  I51      1.0000 0.76420  0.26039  0.70390  Biso   1.000  I
  I52      1.0000 0.86921  0.33840  0.80150  Biso   1.000  I
  I53      1.0000 0.14587  0.39270  0.99441  Biso   1.000  I
  I54      1.0000 0.88310  0.24648  0.93692  Biso   1.000  I
  I55      1.0000 0.97701  0.16292  0.86496  Biso   1.000  I
  I56      1.0000 0.10616  0.25190  0.10575  Biso   1.000  I
  Zn16     1.0000 0.82629  0.35145  0.72601  Biso   1.000  Zn
  Zn17     1.0000 0.91821  0.12886  0.89994  Biso   1.000  Zn
  Zn18     1.0000 0.12329  0.39609  0.06750  Biso   1.000  Zn
  N61      1.0000 0.81620  0.49020  0.71620  Biso   1.000  N
  N62      1.0000 0.76540  0.81250  0.68720  Biso   1.000  N
  N63      1.0000 0.81940  0.82290  0.74560  Biso   1.000  N
  N64      1.0000 0.77890  0.95160  0.72600  Biso   1.000  N
  N65      1.0000 0.88010  0.06000  0.85240  Biso   1.000  N
  N66      1.0000 0.93070  0.02110  0.94390  Biso   1.000  N
  N67      1.0000 0.92470  0.78640  0.05830  Biso   1.000  N
  N68      1.0000 0.97650  0.73310  0.02540  Biso   1.000  N
  N69      1.0000 0.95950  0.65230  0.08510  Biso   1.000  N
  N70      1.0000 0.86020  0.67630  0.18070  Biso   1.000  N
  N71      1.0000 0.07690  0.48490  0.06000  Biso   1.000  N
  N72      1.0000 0.66560  0.03620  0.61050  Biso   1.000  N
  C181     1.0000 0.78410  0.52500  0.69290  Biso   1.000  C
  H121     1.0000 0.76550  0.48520  0.67800  Biso   1.000  H
  C182     1.0000 0.77670  0.61880  0.68950  Biso   1.000  C
  H122     1.0000 0.75410  0.64060  0.67200  Biso   1.000  H
  C183     1.0000 0.80330  0.67800  0.71230  Biso   1.000  C
  C184     1.0000 0.83770  0.64200  0.73620  Biso   1.000  C
  H123     1.0000 0.85680  0.68030  0.75120  Biso   1.000  H
  C185     1.0000 0.84270  0.54880  0.73730  Biso   1.000  C
  H124     1.0000 0.86570  0.52520  0.75330  Biso   1.000  H
  C186     1.0000 0.79560  0.77680  0.71430  Biso   1.000  C
  C187     1.0000 0.75860  0.90090  0.69510  Biso   1.000  C
  C188     1.0000 0.80970  0.90980  0.74970  Biso   1.000  C
  C189     1.0000 0.83380  0.96350  0.78510  Biso   1.000  C
  C190     1.0000 0.82410  0.05130  0.79580  Biso   1.000  C
  H125     1.0000 0.80190  0.07930  0.78030  Biso   1.000  H
  C191     1.0000 0.84770  0.09660  0.82960  Biso   1.000  C
  H126     1.0000 0.84080  0.15510  0.83680  Biso   1.000  H
  C192     1.0000 0.89000  0.97610  0.84140  Biso   1.000  C
  H127     1.0000 0.91300  0.95090  0.85650  Biso   1.000  H
  C193     1.0000 0.86750  0.92460  0.80850  Biso   1.000  C
  H128     1.0000 0.87480  0.86570  0.80240  Biso   1.000  H
  C194     1.0000 0.96350  0.97190  0.94860  Biso   1.000  C
  H129     1.0000 0.98250  0.98930  0.93310  Biso   1.000  H
  C195     1.0000 0.97010  0.89610  0.97570  Biso   1.000  C
  H130     1.0000 0.99300  0.86300  0.97800  Biso   1.000  H
  C196     1.0000 0.94200  0.87060  0.99930  Biso   1.000  C
  C197     1.0000 0.90860  0.92100  0.99460  Biso   1.000  C
  H131     1.0000 0.88930  0.90550  0.01000  Biso   1.000  H
  C198     1.0000 0.90380  0.99640  0.96630  Biso   1.000  C
  H132     1.0000 0.88100  0.03020  0.96320  Biso   1.000  H
  C199     1.0000 0.94800  0.79170  0.02960  Biso   1.000  C
  C200     1.0000 0.98160  0.66550  0.05480  Biso   1.000  C
  C201     1.0000 0.93210  0.71360  0.08590  Biso   1.000  C
  C202     1.0000 0.90730  0.70310  0.11890  Biso   1.000  C
  C203     1.0000 0.87110  0.74250  0.11390  Biso   1.000  C
  H133     1.0000 0.86230  0.78050  0.09020  Biso   1.000  H
  C204     1.0000 0.84770  0.72530  0.14460  Biso   1.000  C
  H134     1.0000 0.82260  0.74870  0.13980  Biso   1.000  H
  C205     1.0000 0.89590  0.64250  0.18620  Biso   1.000  C
  H135     1.0000 0.90520  0.60940  0.21150  Biso   1.000  H
  C206     1.0000 0.92000  0.65420  0.15640  Biso   1.000  C
  H136     1.0000 0.94480  0.62890  0.16160  Biso   1.000  H
  C207     1.0000 0.01400  0.60280  0.05550  Biso   1.000  C
  C208     1.0000 0.03270  0.59270  0.02150  Biso   1.000  C
  H137     1.0000 0.02470  0.62650  0.99620  Biso   1.000  H
  C209     1.0000 0.06300  0.53340  0.02410  Biso   1.000  C
  H138     1.0000 0.07460  0.52650  0.99970  Biso   1.000  H
  C210     1.0000 0.05930  0.49750  0.09410  Biso   1.000  C
  H139     1.0000 0.06860  0.46570  0.11980  Biso   1.000  H
  C211     1.0000 0.02860  0.55440  0.09310  Biso   1.000  C
  H140     1.0000 0.01740  0.56080  0.11770  Biso   1.000  H
  C212     1.0000 0.67860  0.95340  0.59920  Biso   1.000  C
  H141     1.0000 0.66730  0.92800  0.57240  Biso   1.000  H
  C213     1.0000 0.70780  0.90610  0.62610  Biso   1.000  C
  H142     1.0000 0.71530  0.84860  0.61820  Biso   1.000  H
  C214     1.0000 0.72570  0.94650  0.66520  Biso   1.000  C
  C215     1.0000 0.71280  0.03040  0.67620  Biso   1.000  C
  H143     1.0000 0.72450  0.05860  0.70220  Biso   1.000  H
  C216     1.0000 0.68230  0.07310  0.64840  Biso   1.000  C
  H144     1.0000 0.67340  0.12910  0.65650  Biso   1.000  H
  I57      1.0000 0.14960  0.37100  0.00150  Biso   1.000  I
  I58      1.0000 0.86700  0.22740  0.94150  Biso   1.000  I
  I59      1.0000 0.96930  0.17540  0.87820  Biso   1.000  I
  I60      1.0000 0.09850  0.27310  0.11100  Biso   1.000  I
  I61      1.0000 0.26420  0.23961  0.20390  Biso   1.000  I
  I62      1.0000 0.36921  0.16160  0.30150  Biso   1.000  I
  I63      1.0000 0.64587  0.10730  0.49441  Biso   1.000  I
  I64      1.0000 0.38310  0.25352  0.43692  Biso   1.000  I
  I65      1.0000 0.47701  0.33708  0.36496  Biso   1.000  I
  I66      1.0000 0.60616  0.24810  0.60575  Biso   1.000  I
  Zn19     1.0000 0.32629  0.14855  0.22601  Biso   1.000  Zn
  Zn20     1.0000 0.41821  0.37114  0.39994  Biso   1.000  Zn
  Zn21     1.0000 0.62329  0.10391  0.56750  Biso   1.000  Zn
  N73      1.0000 0.31620  0.00980  0.21620  Biso   1.000  N
  N74      1.0000 0.26540  0.68750  0.18720  Biso   1.000  N
  N75      1.0000 0.31940  0.67710  0.24560  Biso   1.000  N
  N76      1.0000 0.27890  0.54840  0.22600  Biso   1.000  N
  N77      1.0000 0.38010  0.44000  0.35240  Biso   1.000  N
  N78      1.0000 0.43070  0.47890  0.44390  Biso   1.000  N
  N79      1.0000 0.42470  0.71360  0.55830  Biso   1.000  N
  N80      1.0000 0.47650  0.76690  0.52540  Biso   1.000  N
  N81      1.0000 0.45950  0.84770  0.58510  Biso   1.000  N
  N82      1.0000 0.36020  0.82370  0.68070  Biso   1.000  N
  N83      1.0000 0.57690  0.01510  0.56000  Biso   1.000  N
  N84      1.0000 0.16560  0.46380  0.11050  Biso   1.000  N
  C217     1.0000 0.28410  0.97500  0.19290  Biso   1.000  C
  H145     1.0000 0.26550  0.01480  0.17800  Biso   1.000  H
  C218     1.0000 0.27670  0.88120  0.18950  Biso   1.000  C
  H146     1.0000 0.25410  0.85940  0.17200  Biso   1.000  H
  C219     1.0000 0.30330  0.82200  0.21230  Biso   1.000  C
  C220     1.0000 0.33770  0.85800  0.23620  Biso   1.000  C
  H147     1.0000 0.35680  0.81970  0.25120  Biso   1.000  H
  C221     1.0000 0.34270  0.95120  0.23730  Biso   1.000  C
  H148     1.0000 0.36570  0.97480  0.25330  Biso   1.000  H
  C222     1.0000 0.29560  0.72320  0.21430  Biso   1.000  C
  C223     1.0000 0.25860  0.59910  0.19510  Biso   1.000  C
  C224     1.0000 0.30970  0.59020  0.24970  Biso   1.000  C
  C225     1.0000 0.33380  0.53650  0.28510  Biso   1.000  C
  C226     1.0000 0.32410  0.44870  0.29580  Biso   1.000  C
  H149     1.0000 0.30190  0.42070  0.28030  Biso   1.000  H
  C227     1.0000 0.34770  0.40340  0.32960  Biso   1.000  C
  H150     1.0000 0.34080  0.34490  0.33680  Biso   1.000  H
  C228     1.0000 0.39000  0.52390  0.34140  Biso   1.000  C
  H151     1.0000 0.41300  0.54910  0.35650  Biso   1.000  H
  C229     1.0000 0.36750  0.57540  0.30850  Biso   1.000  C
  H152     1.0000 0.37480  0.63430  0.30240  Biso   1.000  H
  C230     1.0000 0.46350  0.52810  0.44860  Biso   1.000  C
  H153     1.0000 0.48250  0.51070  0.43310  Biso   1.000  H
  C231     1.0000 0.47010  0.60390  0.47570  Biso   1.000  C
  H154     1.0000 0.49300  0.63700  0.47800  Biso   1.000  H
  C232     1.0000 0.44200  0.62940  0.49930  Biso   1.000  C
  C233     1.0000 0.40860  0.57900  0.49460  Biso   1.000  C
  H155     1.0000 0.38930  0.59450  0.51000  Biso   1.000  H
  C234     1.0000 0.40380  0.50360  0.46630  Biso   1.000  C
  H156     1.0000 0.38100  0.46980  0.46320  Biso   1.000  H
  C235     1.0000 0.44800  0.70830  0.52960  Biso   1.000  C
  C236     1.0000 0.48160  0.83450  0.55480  Biso   1.000  C
  C237     1.0000 0.43210  0.78640  0.58590  Biso   1.000  C
  C238     1.0000 0.40730  0.79690  0.61890  Biso   1.000  C
  C239     1.0000 0.37110  0.75750  0.61390  Biso   1.000  C
  H157     1.0000 0.36230  0.71950  0.59020  Biso   1.000  H
  C240     1.0000 0.34770  0.77470  0.64460  Biso   1.000  C
  H158     1.0000 0.32260  0.75130  0.63980  Biso   1.000  H
  C241     1.0000 0.39590  0.85750  0.68620  Biso   1.000  C
  H159     1.0000 0.40520  0.89060  0.71150  Biso   1.000  H
  C242     1.0000 0.42000  0.84580  0.65640  Biso   1.000  C
  H160     1.0000 0.44480  0.87110  0.66160  Biso   1.000  H
  C243     1.0000 0.51400  0.89720  0.55550  Biso   1.000  C
  C244     1.0000 0.53270  0.90730  0.52150  Biso   1.000  C
  H161     1.0000 0.52470  0.87350  0.49620  Biso   1.000  H
  C245     1.0000 0.56300  0.96660  0.52410  Biso   1.000  C
  H162     1.0000 0.57460  0.97350  0.49970  Biso   1.000  H
  C246     1.0000 0.55930  0.00250  0.59410  Biso   1.000  C
  H163     1.0000 0.56860  0.03430  0.61980  Biso   1.000  H
  C247     1.0000 0.52860  0.94560  0.59310  Biso   1.000  C
  H164     1.0000 0.51740  0.93920  0.61770  Biso   1.000  H
  C248     1.0000 0.17860  0.54660  0.09920  Biso   1.000  C
  H165     1.0000 0.16730  0.57200  0.07240  Biso   1.000  H
  C249     1.0000 0.20780  0.59390  0.12610  Biso   1.000  C
  H166     1.0000 0.21530  0.65140  0.11820  Biso   1.000  H
  C250     1.0000 0.22570  0.55350  0.16520  Biso   1.000  C
  C251     1.0000 0.21280  0.46960  0.17620  Biso   1.000  C
  H167     1.0000 0.22450  0.44140  0.20220  Biso   1.000  H
  C252     1.0000 0.18230  0.42690  0.14840  Biso   1.000  C
  H168     1.0000 0.17340  0.37090  0.15650  Biso   1.000  H
  I67      1.0000 0.64960  0.12900  0.50150  Biso   1.000  I
  I68      1.0000 0.36700  0.27260  0.44150  Biso   1.000  I
  I69      1.0000 0.46930  0.32460  0.37820  Biso   1.000  I
  I70      1.0000 0.59850  0.22690  0.61100  Biso   1.000  I
  I71      1.0000 0.76420  0.73961  0.20390  Biso   1.000  I
  I72      1.0000 0.86921  0.66160  0.30150  Biso   1.000  I
  I73      1.0000 0.14587  0.60730  0.49441  Biso   1.000  I
  I74      1.0000 0.88310  0.75352  0.43692  Biso   1.000  I
  I75      1.0000 0.97701  0.83708  0.36496  Biso   1.000  I
  I76      1.0000 0.10616  0.74810  0.60575  Biso   1.000  I
  Zn22     1.0000 0.82629  0.64855  0.22601  Biso   1.000  Zn
  Zn23     1.0000 0.91821  0.87114  0.39994  Biso   1.000  Zn
  Zn24     1.0000 0.12329  0.60391  0.56750  Biso   1.000  Zn
  N85      1.0000 0.81620  0.50980  0.21620  Biso   1.000  N
  N86      1.0000 0.76540  0.18750  0.18720  Biso   1.000  N
  N87      1.0000 0.81940  0.17710  0.24560  Biso   1.000  N
  N88      1.0000 0.77890  0.04840  0.22600  Biso   1.000  N
  N89      1.0000 0.88010  0.94000  0.35240  Biso   1.000  N
  N90      1.0000 0.93070  0.97890  0.44390  Biso   1.000  N
  N91      1.0000 0.92470  0.21360  0.55830  Biso   1.000  N
  N92      1.0000 0.97650  0.26690  0.52540  Biso   1.000  N
  N93      1.0000 0.95950  0.34770  0.58510  Biso   1.000  N
  N94      1.0000 0.86020  0.32370  0.68070  Biso   1.000  N
  N95      1.0000 0.07690  0.51510  0.56000  Biso   1.000  N
  N96      1.0000 0.66560  0.96380  0.11050  Biso   1.000  N
  C253     1.0000 0.78410  0.47500  0.19290  Biso   1.000  C
  H169     1.0000 0.76550  0.51480  0.17800  Biso   1.000  H
  C254     1.0000 0.77670  0.38120  0.18950  Biso   1.000  C
  H170     1.0000 0.75410  0.35940  0.17200  Biso   1.000  H
  C255     1.0000 0.80330  0.32200  0.21230  Biso   1.000  C
  C256     1.0000 0.83770  0.35800  0.23620  Biso   1.000  C
  H171     1.0000 0.85680  0.31970  0.25120  Biso   1.000  H
  C257     1.0000 0.84270  0.45120  0.23730  Biso   1.000  C
  H172     1.0000 0.86570  0.47480  0.25330  Biso   1.000  H
  C258     1.0000 0.79560  0.22320  0.21430  Biso   1.000  C
  C259     1.0000 0.75860  0.09910  0.19510  Biso   1.000  C
  C260     1.0000 0.80970  0.09020  0.24970  Biso   1.000  C
  C261     1.0000 0.83380  0.03650  0.28510  Biso   1.000  C
  C262     1.0000 0.82410  0.94870  0.29580  Biso   1.000  C
  H173     1.0000 0.80190  0.92070  0.28030  Biso   1.000  H
  C263     1.0000 0.84770  0.90340  0.32960  Biso   1.000  C
  H174     1.0000 0.84080  0.84490  0.33680  Biso   1.000  H
  C264     1.0000 0.89000  0.02390  0.34140  Biso   1.000  C
  H175     1.0000 0.91300  0.04910  0.35650  Biso   1.000  H
  C265     1.0000 0.86750  0.07540  0.30850  Biso   1.000  C
  H176     1.0000 0.87480  0.13430  0.30240  Biso   1.000  H
  C266     1.0000 0.96350  0.02810  0.44860  Biso   1.000  C
  H177     1.0000 0.98250  0.01070  0.43310  Biso   1.000  H
  C267     1.0000 0.97010  0.10390  0.47570  Biso   1.000  C
  H178     1.0000 0.99300  0.13700  0.47800  Biso   1.000  H
  C268     1.0000 0.94200  0.12940  0.49930  Biso   1.000  C
  C269     1.0000 0.90860  0.07900  0.49460  Biso   1.000  C
  H179     1.0000 0.88930  0.09450  0.51000  Biso   1.000  H
  C270     1.0000 0.90380  0.00360  0.46630  Biso   1.000  C
  H180     1.0000 0.88100  0.96980  0.46320  Biso   1.000  H
  C271     1.0000 0.94800  0.20830  0.52960  Biso   1.000  C
  C272     1.0000 0.98160  0.33450  0.55480  Biso   1.000  C
  C273     1.0000 0.93210  0.28640  0.58590  Biso   1.000  C
  C274     1.0000 0.90730  0.29690  0.61890  Biso   1.000  C
  C275     1.0000 0.87110  0.25750  0.61390  Biso   1.000  C
  H181     1.0000 0.86230  0.21950  0.59020  Biso   1.000  H
  C276     1.0000 0.84770  0.27470  0.64460  Biso   1.000  C
  H182     1.0000 0.82260  0.25130  0.63980  Biso   1.000  H
  C277     1.0000 0.89590  0.35750  0.68620  Biso   1.000  C
  H183     1.0000 0.90520  0.39060  0.71150  Biso   1.000  H
  C278     1.0000 0.92000  0.34580  0.65640  Biso   1.000  C
  H184     1.0000 0.94480  0.37110  0.66160  Biso   1.000  H
  C279     1.0000 0.01400  0.39720  0.55550  Biso   1.000  C
  C280     1.0000 0.03270  0.40730  0.52150  Biso   1.000  C
  H185     1.0000 0.02470  0.37350  0.49620  Biso   1.000  H
  C281     1.0000 0.06300  0.46660  0.52410  Biso   1.000  C
  H186     1.0000 0.07460  0.47350  0.49970  Biso   1.000  H
  C282     1.0000 0.05930  0.50250  0.59410  Biso   1.000  C
  H187     1.0000 0.06860  0.53430  0.61980  Biso   1.000  H
  C283     1.0000 0.02860  0.44560  0.59310  Biso   1.000  C
  H188     1.0000 0.01740  0.43920  0.61770  Biso   1.000  H
  C284     1.0000 0.67860  0.04660  0.09920  Biso   1.000  C
  H189     1.0000 0.66730  0.07200  0.07240  Biso   1.000  H
  C285     1.0000 0.70780  0.09390  0.12610  Biso   1.000  C
  H190     1.0000 0.71530  0.15140  0.11820  Biso   1.000  H
  C286     1.0000 0.72570  0.05350  0.16520  Biso   1.000  C
  C287     1.0000 0.71280  0.96960  0.17620  Biso   1.000  C
  H191     1.0000 0.72450  0.94140  0.20220  Biso   1.000  H
  C288     1.0000 0.68230  0.92690  0.14840  Biso   1.000  C
  H192     1.0000 0.67340  0.87090  0.15650  Biso   1.000  H
  I77      1.0000 0.14960  0.62900  0.50150  Biso   1.000  I
  I78      1.0000 0.86700  0.77260  0.44150  Biso   1.000  I
  I79      1.0000 0.96930  0.82460  0.37820  Biso   1.000  I
  I80      1.0000 0.09850  0.72690  0.61100  Biso   1.000  I
