data_image0
_cell_length_a       27.86
_cell_length_b       27.86
_cell_length_c       53.54
_cell_angle_alpha    90
_cell_angle_beta     90
_cell_angle_gamma    90

_symmetry_space_group_name_H-M    "P 1"
_symmetry_int_tables_number       1

loop_
  _symmetry_equiv_pos_as_xyz
  'x, y, z'

loop_
  _atom_site_label
  _atom_site_occupancy
  _atom_site_fract_x
  _atom_site_fract_y
  _atom_site_fract_z
  _atom_site_thermal_displace_type
  _atom_site_B_iso_or_equiv
  _atom_site_type_symbol
  O1       1.0000 0.54969  0.29924  0.14609  Biso   1.000  O
  O2       1.0000 0.78782  0.69996  0.22367  Biso   1.000  O
  O3       1.0000 0.70859  0.70004  0.22489  Biso   1.000  O
  C1       1.0000 0.74807  0.68440  0.21668  Biso   1.000  C
  C2       1.0000 0.74662  0.64550  0.19861  Biso   1.000  C
  C3       1.0000 0.78790  0.62490  0.18901  Biso   1.000  C
  H1       1.0000 0.81730  0.63630  0.19470  Biso   1.000  H
  C4       1.0000 0.78780  0.58930  0.17180  Biso   1.000  C
  H2       1.0000 0.81690  0.57670  0.16640  Biso   1.000  H
  C5       1.0000 0.74630  0.57170  0.16227  Biso   1.000  C
  C6       1.0000 0.70520  0.58960  0.17203  Biso   1.000  C
  H3       1.0000 0.67590  0.57670  0.16710  Biso   1.000  H
  C7       1.0000 0.70580  0.62630  0.18910  Biso   1.000  C
  C8       1.0000 0.74570  0.53370  0.14296  Biso   1.000  C
  C9       1.0000 0.71050  0.49760  0.14286  Biso   1.000  C
  H4       1.0000 0.68640  0.49780  0.15490  Biso   1.000  H
  C10      1.0000 0.65480  0.40550  0.10280  Biso   1.000  C
  H5       1.0000 0.66620  0.41680  0.08760  Biso   1.000  H
  C11      1.0000 0.62010  0.37170  0.10297  Biso   1.000  C
  N1       1.0000 0.60320  0.36290  0.07760  Biso   1.000  N
  N2       1.0000 0.65820  0.64640  0.19410  Biso   1.000  N
  C12      1.0000 0.89820  0.79060  0.24920  Biso   1.000  C
  H6       1.0000 0.88160  0.81960  0.24970  Biso   1.000  H
  C13      1.0000 0.94760  0.79120  0.24930  Biso   1.000  C
  H7       1.0000 0.96370  0.82040  0.25010  Biso   1.000  H
  C14      1.0000 0.89800  0.73130  0.22787  Biso   1.000  C
  H8       1.0000 0.88110  0.71920  0.21430  Biso   1.000  H
  C15      1.0000 0.94790  0.73070  0.22780  Biso   1.000  C
  H9       1.0000 0.96440  0.71790  0.21430  Biso   1.000  H
  C16      1.0000 0.94850  0.76690  0.26863  Biso   1.000  C
  H10      1.0000 0.96540  0.77830  0.28240  Biso   1.000  H
  C17      1.0000 0.89860  0.76750  0.26871  Biso   1.000  C
  H11      1.0000 0.88220  0.77960  0.28240  Biso   1.000  H
  O4       1.0000 0.04969  0.79924  0.64609  Biso   1.000  O
  O5       1.0000 0.28782  0.19996  0.72367  Biso   1.000  O
  O6       1.0000 0.20859  0.20004  0.72489  Biso   1.000  O
  C18      1.0000 0.24807  0.18440  0.71668  Biso   1.000  C
  C19      1.0000 0.24662  0.14550  0.69861  Biso   1.000  C
  C20      1.0000 0.28790  0.12490  0.68901  Biso   1.000  C
  H12      1.0000 0.31730  0.13630  0.69470  Biso   1.000  H
  C21      1.0000 0.28780  0.08930  0.67180  Biso   1.000  C
  H13      1.0000 0.31690  0.07670  0.66640  Biso   1.000  H
  C22      1.0000 0.24630  0.07170  0.66227  Biso   1.000  C
  C23      1.0000 0.20520  0.08960  0.67203  Biso   1.000  C
  H14      1.0000 0.17590  0.07670  0.66710  Biso   1.000  H
  C24      1.0000 0.20580  0.12630  0.68910  Biso   1.000  C
  C25      1.0000 0.24570  0.03370  0.64296  Biso   1.000  C
  C26      1.0000 0.21050  0.99760  0.64286  Biso   1.000  C
  H15      1.0000 0.18640  0.99780  0.65490  Biso   1.000  H
  C27      1.0000 0.15480  0.90550  0.60280  Biso   1.000  C
  H16      1.0000 0.16620  0.91680  0.58760  Biso   1.000  H
  C28      1.0000 0.12010  0.87170  0.60297  Biso   1.000  C
  N3       1.0000 0.10320  0.86290  0.57760  Biso   1.000  N
  N4       1.0000 0.15820  0.14640  0.69410  Biso   1.000  N
  C29      1.0000 0.39820  0.29060  0.74920  Biso   1.000  C
  H17      1.0000 0.38160  0.31960  0.74970  Biso   1.000  H
  C30      1.0000 0.44760  0.29120  0.74930  Biso   1.000  C
  H18      1.0000 0.46370  0.32040  0.75010  Biso   1.000  H
  C31      1.0000 0.39800  0.23130  0.72787  Biso   1.000  C
  H19      1.0000 0.38110  0.21920  0.71430  Biso   1.000  H
  C32      1.0000 0.44790  0.23070  0.72780  Biso   1.000  C
  H20      1.0000 0.46440  0.21790  0.71430  Biso   1.000  H
  C33      1.0000 0.44850  0.26690  0.76863  Biso   1.000  C
  H21      1.0000 0.46540  0.27830  0.78240  Biso   1.000  H
  C34      1.0000 0.39860  0.26750  0.76871  Biso   1.000  C
  H22      1.0000 0.38220  0.27960  0.78240  Biso   1.000  H
  O7       1.0000 0.95031  0.70076  0.64609  Biso   1.000  O
  O8       1.0000 0.71218  0.30004  0.72367  Biso   1.000  O
  O9       1.0000 0.79141  0.29996  0.72489  Biso   1.000  O
  C35      1.0000 0.75193  0.31560  0.71668  Biso   1.000  C
  C36      1.0000 0.75338  0.35450  0.69861  Biso   1.000  C
  C37      1.0000 0.71210  0.37510  0.68901  Biso   1.000  C
  H23      1.0000 0.68270  0.36370  0.69470  Biso   1.000  H
  C38      1.0000 0.71220  0.41070  0.67180  Biso   1.000  C
  H24      1.0000 0.68310  0.42330  0.66640  Biso   1.000  H
  C39      1.0000 0.75370  0.42830  0.66227  Biso   1.000  C
  C40      1.0000 0.79480  0.41040  0.67203  Biso   1.000  C
  H25      1.0000 0.82410  0.42330  0.66710  Biso   1.000  H
  C41      1.0000 0.79420  0.37370  0.68910  Biso   1.000  C
  C42      1.0000 0.75430  0.46630  0.64296  Biso   1.000  C
  C43      1.0000 0.78950  0.50240  0.64286  Biso   1.000  C
  H26      1.0000 0.81360  0.50220  0.65490  Biso   1.000  H
  C44      1.0000 0.84520  0.59450  0.60280  Biso   1.000  C
  H27      1.0000 0.83380  0.58320  0.58760  Biso   1.000  H
  C45      1.0000 0.87990  0.62830  0.60297  Biso   1.000  C
  N5       1.0000 0.89680  0.63710  0.57760  Biso   1.000  N
  N6       1.0000 0.84180  0.35360  0.69410  Biso   1.000  N
  C46      1.0000 0.60180  0.20940  0.74920  Biso   1.000  C
  H28      1.0000 0.61840  0.18040  0.74970  Biso   1.000  H
  C47      1.0000 0.55240  0.20880  0.74930  Biso   1.000  C
  H29      1.0000 0.53630  0.17960  0.75010  Biso   1.000  H
  C48      1.0000 0.60200  0.26870  0.72787  Biso   1.000  C
  H30      1.0000 0.61890  0.28080  0.71430  Biso   1.000  H
  C49      1.0000 0.55210  0.26930  0.72780  Biso   1.000  C
  H31      1.0000 0.53560  0.28210  0.71430  Biso   1.000  H
  C50      1.0000 0.55150  0.23310  0.76863  Biso   1.000  C
  H32      1.0000 0.53460  0.22170  0.78240  Biso   1.000  H
  C51      1.0000 0.60140  0.23250  0.76871  Biso   1.000  C
  H33      1.0000 0.61780  0.22040  0.78240  Biso   1.000  H
  O10      1.0000 0.45031  0.20076  0.14609  Biso   1.000  O
  O11      1.0000 0.21218  0.80004  0.22367  Biso   1.000  O
  O12      1.0000 0.29141  0.79996  0.22489  Biso   1.000  O
  C52      1.0000 0.25193  0.81560  0.21668  Biso   1.000  C
  C53      1.0000 0.25338  0.85450  0.19861  Biso   1.000  C
  C54      1.0000 0.21210  0.87510  0.18901  Biso   1.000  C
  H34      1.0000 0.18270  0.86370  0.19470  Biso   1.000  H
  C55      1.0000 0.21220  0.91070  0.17180  Biso   1.000  C
  H35      1.0000 0.18310  0.92330  0.16640  Biso   1.000  H
  C56      1.0000 0.25370  0.92830  0.16227  Biso   1.000  C
  C57      1.0000 0.29480  0.91040  0.17203  Biso   1.000  C
  H36      1.0000 0.32410  0.92330  0.16710  Biso   1.000  H
  C58      1.0000 0.29420  0.87370  0.18910  Biso   1.000  C
  C59      1.0000 0.25430  0.96630  0.14296  Biso   1.000  C
  C60      1.0000 0.28950  0.00240  0.14286  Biso   1.000  C
  H37      1.0000 0.31360  0.00220  0.15490  Biso   1.000  H
  C61      1.0000 0.34520  0.09450  0.10280  Biso   1.000  C
  H38      1.0000 0.33380  0.08320  0.08760  Biso   1.000  H
  C62      1.0000 0.37990  0.12830  0.10297  Biso   1.000  C
  N7       1.0000 0.39680  0.13710  0.07760  Biso   1.000  N
  N8       1.0000 0.34180  0.85360  0.19410  Biso   1.000  N
  C63      1.0000 0.10180  0.70940  0.24920  Biso   1.000  C
  H39      1.0000 0.11840  0.68040  0.24970  Biso   1.000  H
  C64      1.0000 0.05240  0.70880  0.24930  Biso   1.000  C
  H40      1.0000 0.03630  0.67960  0.25010  Biso   1.000  H
  C65      1.0000 0.10200  0.76870  0.22787  Biso   1.000  C
  H41      1.0000 0.11890  0.78080  0.21430  Biso   1.000  H
  C66      1.0000 0.05210  0.76930  0.22780  Biso   1.000  C
  H42      1.0000 0.03560  0.78210  0.21430  Biso   1.000  H
  C67      1.0000 0.05150  0.73310  0.26863  Biso   1.000  C
  H43      1.0000 0.03460  0.72170  0.28240  Biso   1.000  H
  C68      1.0000 0.10140  0.73250  0.26871  Biso   1.000  C
  H44      1.0000 0.11780  0.72040  0.28240  Biso   1.000  H
  O13      1.0000 0.95076  0.29969  0.39609  Biso   1.000  O
  O14      1.0000 0.55004  0.53782  0.47367  Biso   1.000  O
  O15      1.0000 0.54996  0.45859  0.47489  Biso   1.000  O
  C69      1.0000 0.56560  0.49807  0.46668  Biso   1.000  C
  C70      1.0000 0.60450  0.49662  0.44861  Biso   1.000  C
  C71      1.0000 0.62510  0.53790  0.43901  Biso   1.000  C
  H45      1.0000 0.61370  0.56730  0.44470  Biso   1.000  H
  C72      1.0000 0.66070  0.53780  0.42180  Biso   1.000  C
  H46      1.0000 0.67330  0.56690  0.41640  Biso   1.000  H
  C73      1.0000 0.67830  0.49630  0.41227  Biso   1.000  C
  C74      1.0000 0.66040  0.45520  0.42203  Biso   1.000  C
  H47      1.0000 0.67330  0.42590  0.41710  Biso   1.000  H
  C75      1.0000 0.62370  0.45580  0.43910  Biso   1.000  C
  C76      1.0000 0.71630  0.49570  0.39296  Biso   1.000  C
  C77      1.0000 0.75240  0.46050  0.39286  Biso   1.000  C
  H48      1.0000 0.75220  0.43640  0.40490  Biso   1.000  H
  C78      1.0000 0.84450  0.40480  0.35280  Biso   1.000  C
  H49      1.0000 0.83320  0.41620  0.33760  Biso   1.000  H
  C79      1.0000 0.87830  0.37010  0.35297  Biso   1.000  C
  N9       1.0000 0.88710  0.35320  0.32760  Biso   1.000  N
  N10      1.0000 0.60360  0.40820  0.44410  Biso   1.000  N
  C80      1.0000 0.45940  0.64820  0.49920  Biso   1.000  C
  H50      1.0000 0.43040  0.63160  0.49970  Biso   1.000  H
  C81      1.0000 0.45880  0.69760  0.49930  Biso   1.000  C
  H51      1.0000 0.42960  0.71370  0.50010  Biso   1.000  H
  C82      1.0000 0.51870  0.64800  0.47787  Biso   1.000  C
  H52      1.0000 0.53080  0.63110  0.46430  Biso   1.000  H
  C83      1.0000 0.51930  0.69790  0.47780  Biso   1.000  C
  H53      1.0000 0.53210  0.71440  0.46430  Biso   1.000  H
  C84      1.0000 0.48310  0.69850  0.51863  Biso   1.000  C
  H54      1.0000 0.47170  0.71540  0.53240  Biso   1.000  H
  C85      1.0000 0.48250  0.64860  0.51871  Biso   1.000  C
  H55      1.0000 0.47040  0.63220  0.53240  Biso   1.000  H
  O16      1.0000 0.45076  0.79969  0.89609  Biso   1.000  O
  O17      1.0000 0.05004  0.03782  0.97367  Biso   1.000  O
  O18      1.0000 0.04996  0.95859  0.97489  Biso   1.000  O
  C86      1.0000 0.06560  0.99807  0.96668  Biso   1.000  C
  C87      1.0000 0.10450  0.99662  0.94861  Biso   1.000  C
  C88      1.0000 0.12510  0.03790  0.93901  Biso   1.000  C
  H56      1.0000 0.11370  0.06730  0.94470  Biso   1.000  H
  C89      1.0000 0.16070  0.03780  0.92180  Biso   1.000  C
  H57      1.0000 0.17330  0.06690  0.91640  Biso   1.000  H
  C90      1.0000 0.17830  0.99630  0.91227  Biso   1.000  C
  C91      1.0000 0.16040  0.95520  0.92203  Biso   1.000  C
  H58      1.0000 0.17330  0.92590  0.91710  Biso   1.000  H
  C92      1.0000 0.12370  0.95580  0.93910  Biso   1.000  C
  C93      1.0000 0.21630  0.99570  0.89296  Biso   1.000  C
  C94      1.0000 0.25240  0.96050  0.89286  Biso   1.000  C
  H59      1.0000 0.25220  0.93640  0.90490  Biso   1.000  H
  C95      1.0000 0.34450  0.90480  0.85280  Biso   1.000  C
  H60      1.0000 0.33320  0.91620  0.83760  Biso   1.000  H
  C96      1.0000 0.37830  0.87010  0.85297  Biso   1.000  C
  N11      1.0000 0.38710  0.85320  0.82760  Biso   1.000  N
  N12      1.0000 0.10360  0.90820  0.94410  Biso   1.000  N
  C97      1.0000 0.95940  0.14820  0.99920  Biso   1.000  C
  H61      1.0000 0.93040  0.13160  0.99970  Biso   1.000  H
  C98      1.0000 0.95880  0.19760  0.99930  Biso   1.000  C
  H62      1.0000 0.92960  0.21370  0.00010  Biso   1.000  H
  C99      1.0000 0.01870  0.14800  0.97787  Biso   1.000  C
  H63      1.0000 0.03080  0.13110  0.96430  Biso   1.000  H
  C100     1.0000 0.01930  0.19790  0.97780  Biso   1.000  C
  H64      1.0000 0.03210  0.21440  0.96430  Biso   1.000  H
  C101     1.0000 0.98310  0.19850  0.01863  Biso   1.000  C
  H65      1.0000 0.97170  0.21540  0.03240  Biso   1.000  H
  C102     1.0000 0.98250  0.14860  0.01871  Biso   1.000  C
  H66      1.0000 0.97040  0.13220  0.03240  Biso   1.000  H
  O19      1.0000 0.54924  0.70031  0.89609  Biso   1.000  O
  O20      1.0000 0.94996  0.46218  0.97367  Biso   1.000  O
  O21      1.0000 0.95004  0.54141  0.97489  Biso   1.000  O
  C103     1.0000 0.93440  0.50193  0.96668  Biso   1.000  C
  C104     1.0000 0.89550  0.50338  0.94861  Biso   1.000  C
  C105     1.0000 0.87490  0.46210  0.93901  Biso   1.000  C
  H67      1.0000 0.88630  0.43270  0.94470  Biso   1.000  H
  C106     1.0000 0.83930  0.46220  0.92180  Biso   1.000  C
  H68      1.0000 0.82670  0.43310  0.91640  Biso   1.000  H
  C107     1.0000 0.82170  0.50370  0.91227  Biso   1.000  C
  C108     1.0000 0.83960  0.54480  0.92203  Biso   1.000  C
  H69      1.0000 0.82670  0.57410  0.91710  Biso   1.000  H
  C109     1.0000 0.87630  0.54420  0.93910  Biso   1.000  C
  C110     1.0000 0.78370  0.50430  0.89296  Biso   1.000  C
  C111     1.0000 0.74760  0.53950  0.89286  Biso   1.000  C
  H70      1.0000 0.74780  0.56360  0.90490  Biso   1.000  H
  C112     1.0000 0.65550  0.59520  0.85280  Biso   1.000  C
  H71      1.0000 0.66680  0.58380  0.83760  Biso   1.000  H
  C113     1.0000 0.62170  0.62990  0.85297  Biso   1.000  C
  N13      1.0000 0.61290  0.64680  0.82760  Biso   1.000  N
  N14      1.0000 0.89640  0.59180  0.94410  Biso   1.000  N
  C114     1.0000 0.04060  0.35180  0.99920  Biso   1.000  C
  H72      1.0000 0.06960  0.36840  0.99970  Biso   1.000  H
  C115     1.0000 0.04120  0.30240  0.99930  Biso   1.000  C
  H73      1.0000 0.07040  0.28630  0.00010  Biso   1.000  H
  C116     1.0000 0.98130  0.35200  0.97787  Biso   1.000  C
  H74      1.0000 0.96920  0.36890  0.96430  Biso   1.000  H
  C117     1.0000 0.98070  0.30210  0.97780  Biso   1.000  C
  H75      1.0000 0.96790  0.28560  0.96430  Biso   1.000  H
  C118     1.0000 0.01690  0.30150  0.01863  Biso   1.000  C
  H76      1.0000 0.02830  0.28460  0.03240  Biso   1.000  H
  C119     1.0000 0.01750  0.35140  0.01871  Biso   1.000  C
  H77      1.0000 0.02960  0.36780  0.03240  Biso   1.000  H
  O22      1.0000 0.04924  0.20031  0.39609  Biso   1.000  O
  O23      1.0000 0.44996  0.96218  0.47367  Biso   1.000  O
  O24      1.0000 0.45004  0.04141  0.47489  Biso   1.000  O
  C120     1.0000 0.43440  0.00193  0.46668  Biso   1.000  C
  C121     1.0000 0.39550  0.00338  0.44861  Biso   1.000  C
  C122     1.0000 0.37490  0.96210  0.43901  Biso   1.000  C
  H78      1.0000 0.38630  0.93270  0.44470  Biso   1.000  H
  C123     1.0000 0.33930  0.96220  0.42180  Biso   1.000  C
  H79      1.0000 0.32670  0.93310  0.41640  Biso   1.000  H
  C124     1.0000 0.32170  0.00370  0.41227  Biso   1.000  C
  C125     1.0000 0.33960  0.04480  0.42203  Biso   1.000  C
  H80      1.0000 0.32670  0.07410  0.41710  Biso   1.000  H
  C126     1.0000 0.37630  0.04420  0.43910  Biso   1.000  C
  C127     1.0000 0.28370  0.00430  0.39296  Biso   1.000  C
  C128     1.0000 0.24760  0.03950  0.39286  Biso   1.000  C
  H81      1.0000 0.24780  0.06360  0.40490  Biso   1.000  H
  C129     1.0000 0.15550  0.09520  0.35280  Biso   1.000  C
  H82      1.0000 0.16680  0.08380  0.33760  Biso   1.000  H
  C130     1.0000 0.12170  0.12990  0.35297  Biso   1.000  C
  N15      1.0000 0.11290  0.14680  0.32760  Biso   1.000  N
  N16      1.0000 0.39640  0.09180  0.44410  Biso   1.000  N
  C131     1.0000 0.54060  0.85180  0.49920  Biso   1.000  C
  H83      1.0000 0.56960  0.86840  0.49970  Biso   1.000  H
  C132     1.0000 0.54120  0.80240  0.49930  Biso   1.000  C
  H84      1.0000 0.57040  0.78630  0.50010  Biso   1.000  H
  C133     1.0000 0.48130  0.85200  0.47787  Biso   1.000  C
  H85      1.0000 0.46920  0.86890  0.46430  Biso   1.000  H
  C134     1.0000 0.48070  0.80210  0.47780  Biso   1.000  C
  H86      1.0000 0.46790  0.78560  0.46430  Biso   1.000  H
  C135     1.0000 0.51690  0.80150  0.51863  Biso   1.000  C
  H87      1.0000 0.52830  0.78460  0.53240  Biso   1.000  H
  C136     1.0000 0.51750  0.85140  0.51871  Biso   1.000  C
  H88      1.0000 0.52960  0.86780  0.53240  Biso   1.000  H
  O25      1.0000 0.95031  0.29924  0.35391  Biso   1.000  O
  O26      1.0000 0.71218  0.69996  0.27633  Biso   1.000  O
  O27      1.0000 0.79141  0.70004  0.27511  Biso   1.000  O
  C137     1.0000 0.75193  0.68440  0.28332  Biso   1.000  C
  C138     1.0000 0.75338  0.64550  0.30139  Biso   1.000  C
  C139     1.0000 0.71210  0.62490  0.31099  Biso   1.000  C
  H89      1.0000 0.68270  0.63630  0.30530  Biso   1.000  H
  C140     1.0000 0.71220  0.58930  0.32820  Biso   1.000  C
  H90      1.0000 0.68310  0.57670  0.33360  Biso   1.000  H
  C141     1.0000 0.75370  0.57170  0.33773  Biso   1.000  C
  C142     1.0000 0.79480  0.58960  0.32797  Biso   1.000  C
  H91      1.0000 0.82410  0.57670  0.33290  Biso   1.000  H
  C143     1.0000 0.79420  0.62630  0.31090  Biso   1.000  C
  C144     1.0000 0.75430  0.53370  0.35704  Biso   1.000  C
  C145     1.0000 0.78950  0.49760  0.35714  Biso   1.000  C
  H92      1.0000 0.81360  0.49780  0.34510  Biso   1.000  H
  C146     1.0000 0.84520  0.40550  0.39720  Biso   1.000  C
  H93      1.0000 0.83380  0.41680  0.41240  Biso   1.000  H
  C147     1.0000 0.87990  0.37170  0.39703  Biso   1.000  C
  N17      1.0000 0.89680  0.36290  0.42240  Biso   1.000  N
  N18      1.0000 0.84180  0.64640  0.30590  Biso   1.000  N
  C148     1.0000 0.60180  0.79060  0.25080  Biso   1.000  C
  H94      1.0000 0.61840  0.81960  0.25030  Biso   1.000  H
  C149     1.0000 0.55240  0.79120  0.25070  Biso   1.000  C
  H95      1.0000 0.53630  0.82040  0.24990  Biso   1.000  H
  C150     1.0000 0.60200  0.73130  0.27213  Biso   1.000  C
  H96      1.0000 0.61890  0.71920  0.28570  Biso   1.000  H
  C151     1.0000 0.55210  0.73070  0.27220  Biso   1.000  C
  H97      1.0000 0.53560  0.71790  0.28570  Biso   1.000  H
  C152     1.0000 0.55150  0.76690  0.23137  Biso   1.000  C
  H98      1.0000 0.53460  0.77830  0.21760  Biso   1.000  H
  C153     1.0000 0.60140  0.76750  0.23129  Biso   1.000  C
  H99      1.0000 0.61780  0.77960  0.21760  Biso   1.000  H
  O28      1.0000 0.45031  0.79924  0.85391  Biso   1.000  O
  O29      1.0000 0.21218  0.19996  0.77633  Biso   1.000  O
  O30      1.0000 0.29141  0.20004  0.77511  Biso   1.000  O
  C154     1.0000 0.25193  0.18440  0.78332  Biso   1.000  C
  C155     1.0000 0.25338  0.14550  0.80139  Biso   1.000  C
  C156     1.0000 0.21210  0.12490  0.81099  Biso   1.000  C
  H100     1.0000 0.18270  0.13630  0.80530  Biso   1.000  H
  C157     1.0000 0.21220  0.08930  0.82820  Biso   1.000  C
  H101     1.0000 0.18310  0.07670  0.83360  Biso   1.000  H
  C158     1.0000 0.25370  0.07170  0.83773  Biso   1.000  C
  C159     1.0000 0.29480  0.08960  0.82797  Biso   1.000  C
  H102     1.0000 0.32410  0.07670  0.83290  Biso   1.000  H
  C160     1.0000 0.29420  0.12630  0.81090  Biso   1.000  C
  C161     1.0000 0.25430  0.03370  0.85704  Biso   1.000  C
  C162     1.0000 0.28950  0.99760  0.85714  Biso   1.000  C
  H103     1.0000 0.31360  0.99780  0.84510  Biso   1.000  H
  C163     1.0000 0.34520  0.90550  0.89720  Biso   1.000  C
  H104     1.0000 0.33380  0.91680  0.91240  Biso   1.000  H
  C164     1.0000 0.37990  0.87170  0.89703  Biso   1.000  C
  N19      1.0000 0.39680  0.86290  0.92240  Biso   1.000  N
  N20      1.0000 0.34180  0.14640  0.80590  Biso   1.000  N
  C165     1.0000 0.10180  0.29060  0.75080  Biso   1.000  C
  H105     1.0000 0.11840  0.31960  0.75030  Biso   1.000  H
  C166     1.0000 0.05240  0.29120  0.75070  Biso   1.000  C
  H106     1.0000 0.03630  0.32040  0.74990  Biso   1.000  H
  C167     1.0000 0.10200  0.23130  0.77213  Biso   1.000  C
  H107     1.0000 0.11890  0.21920  0.78570  Biso   1.000  H
  C168     1.0000 0.05210  0.23070  0.77220  Biso   1.000  C
  H108     1.0000 0.03560  0.21790  0.78570  Biso   1.000  H
  C169     1.0000 0.05150  0.26690  0.73137  Biso   1.000  C
  H109     1.0000 0.03460  0.27830  0.71760  Biso   1.000  H
  C170     1.0000 0.10140  0.26750  0.73129  Biso   1.000  C
  H110     1.0000 0.11780  0.27960  0.71760  Biso   1.000  H
  O31      1.0000 0.54969  0.70076  0.85391  Biso   1.000  O
  O32      1.0000 0.78782  0.30004  0.77633  Biso   1.000  O
  O33      1.0000 0.70859  0.29996  0.77511  Biso   1.000  O
  C171     1.0000 0.74807  0.31560  0.78332  Biso   1.000  C
  C172     1.0000 0.74662  0.35450  0.80139  Biso   1.000  C
  C173     1.0000 0.78790  0.37510  0.81099  Biso   1.000  C
  H111     1.0000 0.81730  0.36370  0.80530  Biso   1.000  H
  C174     1.0000 0.78780  0.41070  0.82820  Biso   1.000  C
  H112     1.0000 0.81690  0.42330  0.83360  Biso   1.000  H
  C175     1.0000 0.74630  0.42830  0.83773  Biso   1.000  C
  C176     1.0000 0.70520  0.41040  0.82797  Biso   1.000  C
  H113     1.0000 0.67590  0.42330  0.83290  Biso   1.000  H
  C177     1.0000 0.70580  0.37370  0.81090  Biso   1.000  C
  C178     1.0000 0.74570  0.46630  0.85704  Biso   1.000  C
  C179     1.0000 0.71050  0.50240  0.85714  Biso   1.000  C
  H114     1.0000 0.68640  0.50220  0.84510  Biso   1.000  H
  C180     1.0000 0.65480  0.59450  0.89720  Biso   1.000  C
  H115     1.0000 0.66620  0.58320  0.91240  Biso   1.000  H
  C181     1.0000 0.62010  0.62830  0.89703  Biso   1.000  C
  N21      1.0000 0.60320  0.63710  0.92240  Biso   1.000  N
  N22      1.0000 0.65820  0.35360  0.80590  Biso   1.000  N
  C182     1.0000 0.89820  0.20940  0.75080  Biso   1.000  C
  H116     1.0000 0.88160  0.18040  0.75030  Biso   1.000  H
  C183     1.0000 0.94760  0.20880  0.75070  Biso   1.000  C
  H117     1.0000 0.96370  0.17960  0.74990  Biso   1.000  H
  C184     1.0000 0.89800  0.26870  0.77213  Biso   1.000  C
  H118     1.0000 0.88110  0.28080  0.78570  Biso   1.000  H
  C185     1.0000 0.94790  0.26930  0.77220  Biso   1.000  C
  H119     1.0000 0.96440  0.28210  0.78570  Biso   1.000  H
  C186     1.0000 0.94850  0.23310  0.73137  Biso   1.000  C
  H120     1.0000 0.96540  0.22170  0.71760  Biso   1.000  H
  C187     1.0000 0.89860  0.23250  0.73129  Biso   1.000  C
  H121     1.0000 0.88220  0.22040  0.71760  Biso   1.000  H
  O34      1.0000 0.04969  0.20076  0.35391  Biso   1.000  O
  O35      1.0000 0.28782  0.80004  0.27633  Biso   1.000  O
  O36      1.0000 0.20859  0.79996  0.27511  Biso   1.000  O
  C188     1.0000 0.24807  0.81560  0.28332  Biso   1.000  C
  C189     1.0000 0.24662  0.85450  0.30139  Biso   1.000  C
  C190     1.0000 0.28790  0.87510  0.31099  Biso   1.000  C
  H122     1.0000 0.31730  0.86370  0.30530  Biso   1.000  H
  C191     1.0000 0.28780  0.91070  0.32820  Biso   1.000  C
  H123     1.0000 0.31690  0.92330  0.33360  Biso   1.000  H
  C192     1.0000 0.24630  0.92830  0.33773  Biso   1.000  C
  C193     1.0000 0.20520  0.91040  0.32797  Biso   1.000  C
  H124     1.0000 0.17590  0.92330  0.33290  Biso   1.000  H
  C194     1.0000 0.20580  0.87370  0.31090  Biso   1.000  C
  C195     1.0000 0.24570  0.96630  0.35704  Biso   1.000  C
  C196     1.0000 0.21050  0.00240  0.35714  Biso   1.000  C
  H125     1.0000 0.18640  0.00220  0.34510  Biso   1.000  H
  C197     1.0000 0.15480  0.09450  0.39720  Biso   1.000  C
  H126     1.0000 0.16620  0.08320  0.41240  Biso   1.000  H
  C198     1.0000 0.12010  0.12830  0.39703  Biso   1.000  C
  N23      1.0000 0.10320  0.13710  0.42240  Biso   1.000  N
  N24      1.0000 0.15820  0.85360  0.30590  Biso   1.000  N
  C199     1.0000 0.39820  0.70940  0.25080  Biso   1.000  C
  H127     1.0000 0.38160  0.68040  0.25030  Biso   1.000  H
  C200     1.0000 0.44760  0.70880  0.25070  Biso   1.000  C
  H128     1.0000 0.46370  0.67960  0.24990  Biso   1.000  H
  C201     1.0000 0.39800  0.76870  0.27213  Biso   1.000  C
  H129     1.0000 0.38110  0.78080  0.28570  Biso   1.000  H
  C202     1.0000 0.44790  0.76930  0.27220  Biso   1.000  C
  H130     1.0000 0.46440  0.78210  0.28570  Biso   1.000  H
  C203     1.0000 0.44850  0.73310  0.23137  Biso   1.000  C
  H131     1.0000 0.46540  0.72170  0.21760  Biso   1.000  H
  C204     1.0000 0.39860  0.73250  0.23129  Biso   1.000  C
  H132     1.0000 0.38220  0.72040  0.21760  Biso   1.000  H
  O37      1.0000 0.54924  0.29969  0.10391  Biso   1.000  O
  O38      1.0000 0.94996  0.53782  0.02633  Biso   1.000  O
  O39      1.0000 0.95004  0.45859  0.02511  Biso   1.000  O
  C205     1.0000 0.93440  0.49807  0.03332  Biso   1.000  C
  C206     1.0000 0.89550  0.49662  0.05139  Biso   1.000  C
  C207     1.0000 0.87490  0.53790  0.06099  Biso   1.000  C
  H133     1.0000 0.88630  0.56730  0.05530  Biso   1.000  H
  C208     1.0000 0.83930  0.53780  0.07820  Biso   1.000  C
  H134     1.0000 0.82670  0.56690  0.08360  Biso   1.000  H
  C209     1.0000 0.82170  0.49630  0.08773  Biso   1.000  C
  C210     1.0000 0.83960  0.45520  0.07797  Biso   1.000  C
  H135     1.0000 0.82670  0.42590  0.08290  Biso   1.000  H
  C211     1.0000 0.87630  0.45580  0.06090  Biso   1.000  C
  C212     1.0000 0.78370  0.49570  0.10704  Biso   1.000  C
  C213     1.0000 0.74760  0.46050  0.10714  Biso   1.000  C
  H136     1.0000 0.74780  0.43640  0.09510  Biso   1.000  H
  C214     1.0000 0.65550  0.40480  0.14720  Biso   1.000  C
  H137     1.0000 0.66680  0.41620  0.16240  Biso   1.000  H
  C215     1.0000 0.62170  0.37010  0.14703  Biso   1.000  C
  N25      1.0000 0.61290  0.35320  0.17240  Biso   1.000  N
  N26      1.0000 0.89640  0.40820  0.05590  Biso   1.000  N
  C216     1.0000 0.04060  0.64820  0.00080  Biso   1.000  C
  H138     1.0000 0.06960  0.63160  0.00030  Biso   1.000  H
  C217     1.0000 0.04120  0.69760  0.00070  Biso   1.000  C
  H139     1.0000 0.07040  0.71370  0.99990  Biso   1.000  H
  C218     1.0000 0.98130  0.64800  0.02213  Biso   1.000  C
  H140     1.0000 0.96920  0.63110  0.03570  Biso   1.000  H
  C219     1.0000 0.98070  0.69790  0.02220  Biso   1.000  C
  H141     1.0000 0.96790  0.71440  0.03570  Biso   1.000  H
  C220     1.0000 0.01690  0.69850  0.98137  Biso   1.000  C
  H142     1.0000 0.02830  0.71540  0.96760  Biso   1.000  H
  C221     1.0000 0.01750  0.64860  0.98129  Biso   1.000  C
  H143     1.0000 0.02960  0.63220  0.96760  Biso   1.000  H
  O40      1.0000 0.04924  0.79969  0.60391  Biso   1.000  O
  O41      1.0000 0.44996  0.03782  0.52633  Biso   1.000  O
  O42      1.0000 0.45004  0.95859  0.52511  Biso   1.000  O
  C222     1.0000 0.43440  0.99807  0.53332  Biso   1.000  C
  C223     1.0000 0.39550  0.99662  0.55139  Biso   1.000  C
  C224     1.0000 0.37490  0.03790  0.56099  Biso   1.000  C
  H144     1.0000 0.38630  0.06730  0.55530  Biso   1.000  H
  C225     1.0000 0.33930  0.03780  0.57820  Biso   1.000  C
  H145     1.0000 0.32670  0.06690  0.58360  Biso   1.000  H
  C226     1.0000 0.32170  0.99630  0.58773  Biso   1.000  C
  C227     1.0000 0.33960  0.95520  0.57797  Biso   1.000  C
  H146     1.0000 0.32670  0.92590  0.58290  Biso   1.000  H
  C228     1.0000 0.37630  0.95580  0.56090  Biso   1.000  C
  C229     1.0000 0.28370  0.99570  0.60704  Biso   1.000  C
  C230     1.0000 0.24760  0.96050  0.60714  Biso   1.000  C
  H147     1.0000 0.24780  0.93640  0.59510  Biso   1.000  H
  C231     1.0000 0.15550  0.90480  0.64720  Biso   1.000  C
  H148     1.0000 0.16680  0.91620  0.66240  Biso   1.000  H
  C232     1.0000 0.12170  0.87010  0.64703  Biso   1.000  C
  N27      1.0000 0.11290  0.85320  0.67240  Biso   1.000  N
  N28      1.0000 0.39640  0.90820  0.55590  Biso   1.000  N
  C233     1.0000 0.54060  0.14820  0.50080  Biso   1.000  C
  H149     1.0000 0.56960  0.13160  0.50030  Biso   1.000  H
  C234     1.0000 0.54120  0.19760  0.50070  Biso   1.000  C
  H150     1.0000 0.57040  0.21370  0.49990  Biso   1.000  H
  C235     1.0000 0.48130  0.14800  0.52213  Biso   1.000  C
  H151     1.0000 0.46920  0.13110  0.53570  Biso   1.000  H
  C236     1.0000 0.48070  0.19790  0.52220  Biso   1.000  C
  H152     1.0000 0.46790  0.21440  0.53570  Biso   1.000  H
  C237     1.0000 0.51690  0.19850  0.48137  Biso   1.000  C
  H153     1.0000 0.52830  0.21540  0.46760  Biso   1.000  H
  C238     1.0000 0.51750  0.14860  0.48129  Biso   1.000  C
  H154     1.0000 0.52960  0.13220  0.46760  Biso   1.000  H
  O43      1.0000 0.95076  0.70031  0.60391  Biso   1.000  O
  O44      1.0000 0.55004  0.46218  0.52633  Biso   1.000  O
  O45      1.0000 0.54996  0.54141  0.52511  Biso   1.000  O
  C239     1.0000 0.56560  0.50193  0.53332  Biso   1.000  C
  C240     1.0000 0.60450  0.50338  0.55139  Biso   1.000  C
  C241     1.0000 0.62510  0.46210  0.56099  Biso   1.000  C
  H155     1.0000 0.61370  0.43270  0.55530  Biso   1.000  H
  C242     1.0000 0.66070  0.46220  0.57820  Biso   1.000  C
  H156     1.0000 0.67330  0.43310  0.58360  Biso   1.000  H
  C243     1.0000 0.67830  0.50370  0.58773  Biso   1.000  C
  C244     1.0000 0.66040  0.54480  0.57797  Biso   1.000  C
  H157     1.0000 0.67330  0.57410  0.58290  Biso   1.000  H
  C245     1.0000 0.62370  0.54420  0.56090  Biso   1.000  C
  C246     1.0000 0.71630  0.50430  0.60704  Biso   1.000  C
  C247     1.0000 0.75240  0.53950  0.60714  Biso   1.000  C
  H158     1.0000 0.75220  0.56360  0.59510  Biso   1.000  H
  C248     1.0000 0.84450  0.59520  0.64720  Biso   1.000  C
  H159     1.0000 0.83320  0.58380  0.66240  Biso   1.000  H
  C249     1.0000 0.87830  0.62990  0.64703  Biso   1.000  C
  N29      1.0000 0.88710  0.64680  0.67240  Biso   1.000  N
  N30      1.0000 0.60360  0.59180  0.55590  Biso   1.000  N
  C250     1.0000 0.45940  0.35180  0.50080  Biso   1.000  C
  H160     1.0000 0.43040  0.36840  0.50030  Biso   1.000  H
  C251     1.0000 0.45880  0.30240  0.50070  Biso   1.000  C
  H161     1.0000 0.42960  0.28630  0.49990  Biso   1.000  H
  C252     1.0000 0.51870  0.35200  0.52213  Biso   1.000  C
  H162     1.0000 0.53080  0.36890  0.53570  Biso   1.000  H
  C253     1.0000 0.51930  0.30210  0.52220  Biso   1.000  C
  H163     1.0000 0.53210  0.28560  0.53570  Biso   1.000  H
  C254     1.0000 0.48310  0.30150  0.48137  Biso   1.000  C
  H164     1.0000 0.47170  0.28460  0.46760  Biso   1.000  H
  C255     1.0000 0.48250  0.35140  0.48129  Biso   1.000  C
  H165     1.0000 0.47040  0.36780  0.46760  Biso   1.000  H
  O46      1.0000 0.45076  0.20031  0.10391  Biso   1.000  O
  O47      1.0000 0.05004  0.96218  0.02633  Biso   1.000  O
  O48      1.0000 0.04996  0.04141  0.02511  Biso   1.000  O
  C256     1.0000 0.06560  0.00193  0.03332  Biso   1.000  C
  C257     1.0000 0.10450  0.00338  0.05139  Biso   1.000  C
  C258     1.0000 0.12510  0.96210  0.06099  Biso   1.000  C
  H166     1.0000 0.11370  0.93270  0.05530  Biso   1.000  H
  C259     1.0000 0.16070  0.96220  0.07820  Biso   1.000  C
  H167     1.0000 0.17330  0.93310  0.08360  Biso   1.000  H
  C260     1.0000 0.17830  0.00370  0.08773  Biso   1.000  C
  C261     1.0000 0.16040  0.04480  0.07797  Biso   1.000  C
  H168     1.0000 0.17330  0.07410  0.08290  Biso   1.000  H
  C262     1.0000 0.12370  0.04420  0.06090  Biso   1.000  C
  C263     1.0000 0.21630  0.00430  0.10704  Biso   1.000  C
  C264     1.0000 0.25240  0.03950  0.10714  Biso   1.000  C
  H169     1.0000 0.25220  0.06360  0.09510  Biso   1.000  H
  C265     1.0000 0.34450  0.09520  0.14720  Biso   1.000  C
  H170     1.0000 0.33320  0.08380  0.16240  Biso   1.000  H
  C266     1.0000 0.37830  0.12990  0.14703  Biso   1.000  C
  N31      1.0000 0.38710  0.14680  0.17240  Biso   1.000  N
  N32      1.0000 0.10360  0.09180  0.05590  Biso   1.000  N
  C267     1.0000 0.95940  0.85180  0.00080  Biso   1.000  C
  H171     1.0000 0.93040  0.86840  0.00030  Biso   1.000  H
  C268     1.0000 0.95880  0.80240  0.00070  Biso   1.000  C
  H172     1.0000 0.92960  0.78630  0.99990  Biso   1.000  H
  C269     1.0000 0.01870  0.85200  0.02213  Biso   1.000  C
  H173     1.0000 0.03080  0.86890  0.03570  Biso   1.000  H
  C270     1.0000 0.01930  0.80210  0.02220  Biso   1.000  C
  H174     1.0000 0.03210  0.78560  0.03570  Biso   1.000  H
  C271     1.0000 0.98310  0.80150  0.98137  Biso   1.000  C
  H175     1.0000 0.97170  0.78460  0.96760  Biso   1.000  H
  C272     1.0000 0.98250  0.85140  0.98129  Biso   1.000  C
  H176     1.0000 0.97040  0.86780  0.96760  Biso   1.000  H
  O49      1.0000 0.45031  0.70076  0.85391  Biso   1.000  O
  O50      1.0000 0.21218  0.30004  0.77633  Biso   1.000  O
  O51      1.0000 0.29141  0.29996  0.77511  Biso   1.000  O
  C273     1.0000 0.25193  0.31560  0.78332  Biso   1.000  C
  C274     1.0000 0.25338  0.35450  0.80139  Biso   1.000  C
  C275     1.0000 0.21210  0.37510  0.81099  Biso   1.000  C
  H177     1.0000 0.18270  0.36370  0.80530  Biso   1.000  H
  C276     1.0000 0.21220  0.41070  0.82820  Biso   1.000  C
  H178     1.0000 0.18310  0.42330  0.83360  Biso   1.000  H
  C277     1.0000 0.25370  0.42830  0.83773  Biso   1.000  C
  C278     1.0000 0.29480  0.41040  0.82797  Biso   1.000  C
  H179     1.0000 0.32410  0.42330  0.83290  Biso   1.000  H
  C279     1.0000 0.29420  0.37370  0.81090  Biso   1.000  C
  C280     1.0000 0.25430  0.46630  0.85704  Biso   1.000  C
  C281     1.0000 0.28950  0.50240  0.85714  Biso   1.000  C
  H180     1.0000 0.31360  0.50220  0.84510  Biso   1.000  H
  C282     1.0000 0.34520  0.59450  0.89720  Biso   1.000  C
  H181     1.0000 0.33380  0.58320  0.91240  Biso   1.000  H
  C283     1.0000 0.37990  0.62830  0.89703  Biso   1.000  C
  N33      1.0000 0.39680  0.63710  0.92240  Biso   1.000  N
  N34      1.0000 0.34180  0.35360  0.80590  Biso   1.000  N
  C284     1.0000 0.10180  0.20940  0.75080  Biso   1.000  C
  H182     1.0000 0.11840  0.18040  0.75030  Biso   1.000  H
  C285     1.0000 0.05240  0.20880  0.75070  Biso   1.000  C
  H183     1.0000 0.03630  0.17960  0.74990  Biso   1.000  H
  C286     1.0000 0.10200  0.26870  0.77213  Biso   1.000  C
  H184     1.0000 0.11890  0.28080  0.78570  Biso   1.000  H
  C287     1.0000 0.05210  0.26930  0.77220  Biso   1.000  C
  H185     1.0000 0.03560  0.28210  0.78570  Biso   1.000  H
  C288     1.0000 0.05150  0.23310  0.73137  Biso   1.000  C
  H186     1.0000 0.03460  0.22170  0.71760  Biso   1.000  H
  C289     1.0000 0.10140  0.23250  0.73129  Biso   1.000  C
  H187     1.0000 0.11780  0.22040  0.71760  Biso   1.000  H
  O52      1.0000 0.95031  0.20076  0.35391  Biso   1.000  O
  O53      1.0000 0.71218  0.80004  0.27633  Biso   1.000  O
  O54      1.0000 0.79141  0.79996  0.27511  Biso   1.000  O
  C290     1.0000 0.75193  0.81560  0.28332  Biso   1.000  C
  C291     1.0000 0.75338  0.85450  0.30139  Biso   1.000  C
  C292     1.0000 0.71210  0.87510  0.31099  Biso   1.000  C
  H188     1.0000 0.68270  0.86370  0.30530  Biso   1.000  H
  C293     1.0000 0.71220  0.91070  0.32820  Biso   1.000  C
  H189     1.0000 0.68310  0.92330  0.33360  Biso   1.000  H
  C294     1.0000 0.75370  0.92830  0.33773  Biso   1.000  C
  C295     1.0000 0.79480  0.91040  0.32797  Biso   1.000  C
  H190     1.0000 0.82410  0.92330  0.33290  Biso   1.000  H
  C296     1.0000 0.79420  0.87370  0.31090  Biso   1.000  C
  C297     1.0000 0.75430  0.96630  0.35704  Biso   1.000  C
  C298     1.0000 0.78950  0.00240  0.35714  Biso   1.000  C
  H191     1.0000 0.81360  0.00220  0.34510  Biso   1.000  H
  C299     1.0000 0.84520  0.09450  0.39720  Biso   1.000  C
  H192     1.0000 0.83380  0.08320  0.41240  Biso   1.000  H
  C300     1.0000 0.87990  0.12830  0.39703  Biso   1.000  C
  N35      1.0000 0.89680  0.13710  0.42240  Biso   1.000  N
  N36      1.0000 0.84180  0.85360  0.30590  Biso   1.000  N
  C301     1.0000 0.60180  0.70940  0.25080  Biso   1.000  C
  H193     1.0000 0.61840  0.68040  0.25030  Biso   1.000  H
  C302     1.0000 0.55240  0.70880  0.25070  Biso   1.000  C
  H194     1.0000 0.53630  0.67960  0.24990  Biso   1.000  H
  C303     1.0000 0.60200  0.76870  0.27213  Biso   1.000  C
  H195     1.0000 0.61890  0.78080  0.28570  Biso   1.000  H
  C304     1.0000 0.55210  0.76930  0.27220  Biso   1.000  C
  H196     1.0000 0.53560  0.78210  0.28570  Biso   1.000  H
  C305     1.0000 0.55150  0.73310  0.23137  Biso   1.000  C
  H197     1.0000 0.53460  0.72170  0.21760  Biso   1.000  H
  C306     1.0000 0.60140  0.73250  0.23129  Biso   1.000  C
  H198     1.0000 0.61780  0.72040  0.21760  Biso   1.000  H
  O55      1.0000 0.04969  0.29924  0.35391  Biso   1.000  O
  O56      1.0000 0.28782  0.69996  0.27633  Biso   1.000  O
  O57      1.0000 0.20859  0.70004  0.27511  Biso   1.000  O
  C307     1.0000 0.24807  0.68440  0.28332  Biso   1.000  C
  C308     1.0000 0.24662  0.64550  0.30139  Biso   1.000  C
  C309     1.0000 0.28790  0.62490  0.31099  Biso   1.000  C
  H199     1.0000 0.31730  0.63630  0.30530  Biso   1.000  H
  C310     1.0000 0.28780  0.58930  0.32820  Biso   1.000  C
  H200     1.0000 0.31690  0.57670  0.33360  Biso   1.000  H
  C311     1.0000 0.24630  0.57170  0.33773  Biso   1.000  C
  C312     1.0000 0.20520  0.58960  0.32797  Biso   1.000  C
  H201     1.0000 0.17590  0.57670  0.33290  Biso   1.000  H
  C313     1.0000 0.20580  0.62630  0.31090  Biso   1.000  C
  C314     1.0000 0.24570  0.53370  0.35704  Biso   1.000  C
  C315     1.0000 0.21050  0.49760  0.35714  Biso   1.000  C
  H202     1.0000 0.18640  0.49780  0.34510  Biso   1.000  H
  C316     1.0000 0.15480  0.40550  0.39720  Biso   1.000  C
  H203     1.0000 0.16620  0.41680  0.41240  Biso   1.000  H
  C317     1.0000 0.12010  0.37170  0.39703  Biso   1.000  C
  N37      1.0000 0.10320  0.36290  0.42240  Biso   1.000  N
  N38      1.0000 0.15820  0.64640  0.30590  Biso   1.000  N
  C318     1.0000 0.39820  0.79060  0.25080  Biso   1.000  C
  H204     1.0000 0.38160  0.81960  0.25030  Biso   1.000  H
  C319     1.0000 0.44760  0.79120  0.25070  Biso   1.000  C
  H205     1.0000 0.46370  0.82040  0.24990  Biso   1.000  H
  C320     1.0000 0.39800  0.73130  0.27213  Biso   1.000  C
  H206     1.0000 0.38110  0.71920  0.28570  Biso   1.000  H
  C321     1.0000 0.44790  0.73070  0.27220  Biso   1.000  C
  H207     1.0000 0.46440  0.71790  0.28570  Biso   1.000  H
  C322     1.0000 0.44850  0.76690  0.23137  Biso   1.000  C
  H208     1.0000 0.46540  0.77830  0.21760  Biso   1.000  H
  C323     1.0000 0.39860  0.76750  0.23129  Biso   1.000  C
  H209     1.0000 0.38220  0.77960  0.21760  Biso   1.000  H
  O58      1.0000 0.54969  0.79924  0.85391  Biso   1.000  O
  O59      1.0000 0.78782  0.19996  0.77633  Biso   1.000  O
  O60      1.0000 0.70859  0.20004  0.77511  Biso   1.000  O
  C324     1.0000 0.74807  0.18440  0.78332  Biso   1.000  C
  C325     1.0000 0.74662  0.14550  0.80139  Biso   1.000  C
  C326     1.0000 0.78790  0.12490  0.81099  Biso   1.000  C
  H210     1.0000 0.81730  0.13630  0.80530  Biso   1.000  H
  C327     1.0000 0.78780  0.08930  0.82820  Biso   1.000  C
  H211     1.0000 0.81690  0.07670  0.83360  Biso   1.000  H
  C328     1.0000 0.74630  0.07170  0.83773  Biso   1.000  C
  C329     1.0000 0.70520  0.08960  0.82797  Biso   1.000  C
  H212     1.0000 0.67590  0.07670  0.83290  Biso   1.000  H
  C330     1.0000 0.70580  0.12630  0.81090  Biso   1.000  C
  C331     1.0000 0.74570  0.03370  0.85704  Biso   1.000  C
  C332     1.0000 0.71050  0.99760  0.85714  Biso   1.000  C
  H213     1.0000 0.68640  0.99780  0.84510  Biso   1.000  H
  C333     1.0000 0.65480  0.90550  0.89720  Biso   1.000  C
  H214     1.0000 0.66620  0.91680  0.91240  Biso   1.000  H
  C334     1.0000 0.62010  0.87170  0.89703  Biso   1.000  C
  N39      1.0000 0.60320  0.86290  0.92240  Biso   1.000  N
  N40      1.0000 0.65820  0.14640  0.80590  Biso   1.000  N
  C335     1.0000 0.89820  0.29060  0.75080  Biso   1.000  C
  H215     1.0000 0.88160  0.31960  0.75030  Biso   1.000  H
  C336     1.0000 0.94760  0.29120  0.75070  Biso   1.000  C
  H216     1.0000 0.96370  0.32040  0.74990  Biso   1.000  H
  C337     1.0000 0.89800  0.23130  0.77213  Biso   1.000  C
  H217     1.0000 0.88110  0.21920  0.78570  Biso   1.000  H
  C338     1.0000 0.94790  0.23070  0.77220  Biso   1.000  C
  H218     1.0000 0.96440  0.21790  0.78570  Biso   1.000  H
  C339     1.0000 0.94850  0.26690  0.73137  Biso   1.000  C
  H219     1.0000 0.96540  0.27830  0.71760  Biso   1.000  H
  C340     1.0000 0.89860  0.26750  0.73129  Biso   1.000  C
  H220     1.0000 0.88220  0.27960  0.71760  Biso   1.000  H
  O61      1.0000 0.04924  0.70031  0.60391  Biso   1.000  O
  O62      1.0000 0.44996  0.46218  0.52633  Biso   1.000  O
  O63      1.0000 0.45004  0.54141  0.52511  Biso   1.000  O
  C341     1.0000 0.43440  0.50193  0.53332  Biso   1.000  C
  C342     1.0000 0.39550  0.50338  0.55139  Biso   1.000  C
  C343     1.0000 0.37490  0.46210  0.56099  Biso   1.000  C
  H221     1.0000 0.38630  0.43270  0.55530  Biso   1.000  H
  C344     1.0000 0.33930  0.46220  0.57820  Biso   1.000  C
  H222     1.0000 0.32670  0.43310  0.58360  Biso   1.000  H
  C345     1.0000 0.32170  0.50370  0.58773  Biso   1.000  C
  C346     1.0000 0.33960  0.54480  0.57797  Biso   1.000  C
  H223     1.0000 0.32670  0.57410  0.58290  Biso   1.000  H
  C347     1.0000 0.37630  0.54420  0.56090  Biso   1.000  C
  C348     1.0000 0.28370  0.50430  0.60704  Biso   1.000  C
  C349     1.0000 0.24760  0.53950  0.60714  Biso   1.000  C
  H224     1.0000 0.24780  0.56360  0.59510  Biso   1.000  H
  C350     1.0000 0.15550  0.59520  0.64720  Biso   1.000  C
  H225     1.0000 0.16680  0.58380  0.66240  Biso   1.000  H
  C351     1.0000 0.12170  0.62990  0.64703  Biso   1.000  C
  N41      1.0000 0.11290  0.64680  0.67240  Biso   1.000  N
  N42      1.0000 0.39640  0.59180  0.55590  Biso   1.000  N
  C352     1.0000 0.54060  0.35180  0.50080  Biso   1.000  C
  H226     1.0000 0.56960  0.36840  0.50030  Biso   1.000  H
  C353     1.0000 0.54120  0.30240  0.50070  Biso   1.000  C
  H227     1.0000 0.57040  0.28630  0.49990  Biso   1.000  H
  C354     1.0000 0.48130  0.35200  0.52213  Biso   1.000  C
  H228     1.0000 0.46920  0.36890  0.53570  Biso   1.000  H
  C355     1.0000 0.48070  0.30210  0.52220  Biso   1.000  C
  H229     1.0000 0.46790  0.28560  0.53570  Biso   1.000  H
  C356     1.0000 0.51690  0.30150  0.48137  Biso   1.000  C
  H230     1.0000 0.52830  0.28460  0.46760  Biso   1.000  H
  C357     1.0000 0.51750  0.35140  0.48129  Biso   1.000  C
  H231     1.0000 0.52960  0.36780  0.46760  Biso   1.000  H
  O64      1.0000 0.54924  0.20031  0.10391  Biso   1.000  O
  O65      1.0000 0.94996  0.96218  0.02633  Biso   1.000  O
  O66      1.0000 0.95004  0.04141  0.02511  Biso   1.000  O
  C358     1.0000 0.93440  0.00193  0.03332  Biso   1.000  C
  C359     1.0000 0.89550  0.00338  0.05139  Biso   1.000  C
  C360     1.0000 0.87490  0.96210  0.06099  Biso   1.000  C
  H232     1.0000 0.88630  0.93270  0.05530  Biso   1.000  H
  C361     1.0000 0.83930  0.96220  0.07820  Biso   1.000  C
  H233     1.0000 0.82670  0.93310  0.08360  Biso   1.000  H
  C362     1.0000 0.82170  0.00370  0.08773  Biso   1.000  C
  C363     1.0000 0.83960  0.04480  0.07797  Biso   1.000  C
  H234     1.0000 0.82670  0.07410  0.08290  Biso   1.000  H
  C364     1.0000 0.87630  0.04420  0.06090  Biso   1.000  C
  C365     1.0000 0.78370  0.00430  0.10704  Biso   1.000  C
  C366     1.0000 0.74760  0.03950  0.10714  Biso   1.000  C
  H235     1.0000 0.74780  0.06360  0.09510  Biso   1.000  H
  C367     1.0000 0.65550  0.09520  0.14720  Biso   1.000  C
  H236     1.0000 0.66680  0.08380  0.16240  Biso   1.000  H
  C368     1.0000 0.62170  0.12990  0.14703  Biso   1.000  C
  N43      1.0000 0.61290  0.14680  0.17240  Biso   1.000  N
  N44      1.0000 0.89640  0.09180  0.05590  Biso   1.000  N
  C369     1.0000 0.04060  0.85180  0.00080  Biso   1.000  C
  H237     1.0000 0.06960  0.86840  0.00030  Biso   1.000  H
  C370     1.0000 0.04120  0.80240  0.00070  Biso   1.000  C
  H238     1.0000 0.07040  0.78630  0.99990  Biso   1.000  H
  C371     1.0000 0.98130  0.85200  0.02213  Biso   1.000  C
  H239     1.0000 0.96920  0.86890  0.03570  Biso   1.000  H
  C372     1.0000 0.98070  0.80210  0.02220  Biso   1.000  C
  H240     1.0000 0.96790  0.78560  0.03570  Biso   1.000  H
  C373     1.0000 0.01690  0.80150  0.98137  Biso   1.000  C
  H241     1.0000 0.02830  0.78460  0.96760  Biso   1.000  H
  C374     1.0000 0.01750  0.85140  0.98129  Biso   1.000  C
  H242     1.0000 0.02960  0.86780  0.96760  Biso   1.000  H
  O67      1.0000 0.45076  0.29969  0.10391  Biso   1.000  O
  O68      1.0000 0.05004  0.53782  0.02633  Biso   1.000  O
  O69      1.0000 0.04996  0.45859  0.02511  Biso   1.000  O
  C375     1.0000 0.06560  0.49807  0.03332  Biso   1.000  C
  C376     1.0000 0.10450  0.49662  0.05139  Biso   1.000  C
  C377     1.0000 0.12510  0.53790  0.06099  Biso   1.000  C
  H243     1.0000 0.11370  0.56730  0.05530  Biso   1.000  H
  C378     1.0000 0.16070  0.53780  0.07820  Biso   1.000  C
  H244     1.0000 0.17330  0.56690  0.08360  Biso   1.000  H
  C379     1.0000 0.17830  0.49630  0.08773  Biso   1.000  C
  C380     1.0000 0.16040  0.45520  0.07797  Biso   1.000  C
  H245     1.0000 0.17330  0.42590  0.08290  Biso   1.000  H
  C381     1.0000 0.12370  0.45580  0.06090  Biso   1.000  C
  C382     1.0000 0.21630  0.49570  0.10704  Biso   1.000  C
  C383     1.0000 0.25240  0.46050  0.10714  Biso   1.000  C
  H246     1.0000 0.25220  0.43640  0.09510  Biso   1.000  H
  C384     1.0000 0.34450  0.40480  0.14720  Biso   1.000  C
  H247     1.0000 0.33320  0.41620  0.16240  Biso   1.000  H
  C385     1.0000 0.37830  0.37010  0.14703  Biso   1.000  C
  N45      1.0000 0.38710  0.35320  0.17240  Biso   1.000  N
  N46      1.0000 0.10360  0.40820  0.05590  Biso   1.000  N
  C386     1.0000 0.95940  0.64820  0.00080  Biso   1.000  C
  H248     1.0000 0.93040  0.63160  0.00030  Biso   1.000  H
  C387     1.0000 0.95880  0.69760  0.00070  Biso   1.000  C
  H249     1.0000 0.92960  0.71370  0.99990  Biso   1.000  H
  C388     1.0000 0.01870  0.64800  0.02213  Biso   1.000  C
  H250     1.0000 0.03080  0.63110  0.03570  Biso   1.000  H
  C389     1.0000 0.01930  0.69790  0.02220  Biso   1.000  C
  H251     1.0000 0.03210  0.71440  0.03570  Biso   1.000  H
  C390     1.0000 0.98310  0.69850  0.98137  Biso   1.000  C
  H252     1.0000 0.97170  0.71540  0.96760  Biso   1.000  H
  C391     1.0000 0.98250  0.64860  0.98129  Biso   1.000  C
  H253     1.0000 0.97040  0.63220  0.96760  Biso   1.000  H
  O70      1.0000 0.95076  0.79969  0.60391  Biso   1.000  O
  O71      1.0000 0.55004  0.03782  0.52633  Biso   1.000  O
  O72      1.0000 0.54996  0.95859  0.52511  Biso   1.000  O
  C392     1.0000 0.56560  0.99807  0.53332  Biso   1.000  C
  C393     1.0000 0.60450  0.99662  0.55139  Biso   1.000  C
  C394     1.0000 0.62510  0.03790  0.56099  Biso   1.000  C
  H254     1.0000 0.61370  0.06730  0.55530  Biso   1.000  H
  C395     1.0000 0.66070  0.03780  0.57820  Biso   1.000  C
  H255     1.0000 0.67330  0.06690  0.58360  Biso   1.000  H
  C396     1.0000 0.67830  0.99630  0.58773  Biso   1.000  C
  C397     1.0000 0.66040  0.95520  0.57797  Biso   1.000  C
  H256     1.0000 0.67330  0.92590  0.58290  Biso   1.000  H
  C398     1.0000 0.62370  0.95580  0.56090  Biso   1.000  C
  C399     1.0000 0.71630  0.99570  0.60704  Biso   1.000  C
  C400     1.0000 0.75240  0.96050  0.60714  Biso   1.000  C
  H257     1.0000 0.75220  0.93640  0.59510  Biso   1.000  H
  C401     1.0000 0.84450  0.90480  0.64720  Biso   1.000  C
  H258     1.0000 0.83320  0.91620  0.66240  Biso   1.000  H
  C402     1.0000 0.87830  0.87010  0.64703  Biso   1.000  C
  N47      1.0000 0.88710  0.85320  0.67240  Biso   1.000  N
  N48      1.0000 0.60360  0.90820  0.55590  Biso   1.000  N
  C403     1.0000 0.45940  0.14820  0.50080  Biso   1.000  C
  H259     1.0000 0.43040  0.13160  0.50030  Biso   1.000  H
  C404     1.0000 0.45880  0.19760  0.50070  Biso   1.000  C
  H260     1.0000 0.42960  0.21370  0.49990  Biso   1.000  H
  C405     1.0000 0.51870  0.14800  0.52213  Biso   1.000  C
  H261     1.0000 0.53080  0.13110  0.53570  Biso   1.000  H
  C406     1.0000 0.51930  0.19790  0.52220  Biso   1.000  C
  H262     1.0000 0.53210  0.21440  0.53570  Biso   1.000  H
  C407     1.0000 0.48310  0.19850  0.48137  Biso   1.000  C
  H263     1.0000 0.47170  0.21540  0.46760  Biso   1.000  H
  C408     1.0000 0.48250  0.14860  0.48129  Biso   1.000  C
  H264     1.0000 0.47040  0.13220  0.46760  Biso   1.000  H
  O73      1.0000 0.04969  0.70076  0.64609  Biso   1.000  O
  O74      1.0000 0.28782  0.30004  0.72367  Biso   1.000  O
  O75      1.0000 0.20859  0.29996  0.72489  Biso   1.000  O
  C409     1.0000 0.24807  0.31560  0.71668  Biso   1.000  C
  C410     1.0000 0.24662  0.35450  0.69861  Biso   1.000  C
  C411     1.0000 0.28790  0.37510  0.68901  Biso   1.000  C
  H265     1.0000 0.31730  0.36370  0.69470  Biso   1.000  H
  C412     1.0000 0.28780  0.41070  0.67180  Biso   1.000  C
  H266     1.0000 0.31690  0.42330  0.66640  Biso   1.000  H
  C413     1.0000 0.24630  0.42830  0.66227  Biso   1.000  C
  C414     1.0000 0.20520  0.41040  0.67203  Biso   1.000  C
  H267     1.0000 0.17590  0.42330  0.66710  Biso   1.000  H
  C415     1.0000 0.20580  0.37370  0.68910  Biso   1.000  C
  C416     1.0000 0.24570  0.46630  0.64296  Biso   1.000  C
  C417     1.0000 0.21050  0.50240  0.64286  Biso   1.000  C
  H268     1.0000 0.18640  0.50220  0.65490  Biso   1.000  H
  C418     1.0000 0.15480  0.59450  0.60280  Biso   1.000  C
  H269     1.0000 0.16620  0.58320  0.58760  Biso   1.000  H
  C419     1.0000 0.12010  0.62830  0.60297  Biso   1.000  C
  N49      1.0000 0.10320  0.63710  0.57760  Biso   1.000  N
  N50      1.0000 0.15820  0.35360  0.69410  Biso   1.000  N
  C420     1.0000 0.39820  0.20940  0.74920  Biso   1.000  C
  H270     1.0000 0.38160  0.18040  0.74970  Biso   1.000  H
  C421     1.0000 0.44760  0.20880  0.74930  Biso   1.000  C
  H271     1.0000 0.46370  0.17960  0.75010  Biso   1.000  H
  C422     1.0000 0.39800  0.26870  0.72787  Biso   1.000  C
  H272     1.0000 0.38110  0.28080  0.71430  Biso   1.000  H
  C423     1.0000 0.44790  0.26930  0.72780  Biso   1.000  C
  H273     1.0000 0.46440  0.28210  0.71430  Biso   1.000  H
  C424     1.0000 0.44850  0.23310  0.76863  Biso   1.000  C
  H274     1.0000 0.46540  0.22170  0.78240  Biso   1.000  H
  C425     1.0000 0.39860  0.23250  0.76871  Biso   1.000  C
  H275     1.0000 0.38220  0.22040  0.78240  Biso   1.000  H
  O76      1.0000 0.54969  0.20076  0.14609  Biso   1.000  O
  O77      1.0000 0.78782  0.80004  0.22367  Biso   1.000  O
  O78      1.0000 0.70859  0.79996  0.22489  Biso   1.000  O
  C426     1.0000 0.74807  0.81560  0.21668  Biso   1.000  C
  C427     1.0000 0.74662  0.85450  0.19861  Biso   1.000  C
  C428     1.0000 0.78790  0.87510  0.18901  Biso   1.000  C
  H276     1.0000 0.81730  0.86370  0.19470  Biso   1.000  H
  C429     1.0000 0.78780  0.91070  0.17180  Biso   1.000  C
  H277     1.0000 0.81690  0.92330  0.16640  Biso   1.000  H
  C430     1.0000 0.74630  0.92830  0.16227  Biso   1.000  C
  C431     1.0000 0.70520  0.91040  0.17203  Biso   1.000  C
  H278     1.0000 0.67590  0.92330  0.16710  Biso   1.000  H
  C432     1.0000 0.70580  0.87370  0.18910  Biso   1.000  C
  C433     1.0000 0.74570  0.96630  0.14296  Biso   1.000  C
  C434     1.0000 0.71050  0.00240  0.14286  Biso   1.000  C
  H279     1.0000 0.68640  0.00220  0.15490  Biso   1.000  H
  C435     1.0000 0.65480  0.09450  0.10280  Biso   1.000  C
  H280     1.0000 0.66620  0.08320  0.08760  Biso   1.000  H
  C436     1.0000 0.62010  0.12830  0.10297  Biso   1.000  C
  N51      1.0000 0.60320  0.13710  0.07760  Biso   1.000  N
  N52      1.0000 0.65820  0.85360  0.19410  Biso   1.000  N
  C437     1.0000 0.89820  0.70940  0.24920  Biso   1.000  C
  H281     1.0000 0.88160  0.68040  0.24970  Biso   1.000  H
  C438     1.0000 0.94760  0.70880  0.24930  Biso   1.000  C
  H282     1.0000 0.96370  0.67960  0.25010  Biso   1.000  H
  C439     1.0000 0.89800  0.76870  0.22787  Biso   1.000  C
  H283     1.0000 0.88110  0.78080  0.21430  Biso   1.000  H
  C440     1.0000 0.94790  0.76930  0.22780  Biso   1.000  C
  H284     1.0000 0.96440  0.78210  0.21430  Biso   1.000  H
  C441     1.0000 0.94850  0.73310  0.26863  Biso   1.000  C
  H285     1.0000 0.96540  0.72170  0.28240  Biso   1.000  H
  C442     1.0000 0.89860  0.73250  0.26871  Biso   1.000  C
  H286     1.0000 0.88220  0.72040  0.28240  Biso   1.000  H
  O79      1.0000 0.45031  0.29924  0.14609  Biso   1.000  O
  O80      1.0000 0.21218  0.69996  0.22367  Biso   1.000  O
  O81      1.0000 0.29141  0.70004  0.22489  Biso   1.000  O
  C443     1.0000 0.25193  0.68440  0.21668  Biso   1.000  C
  C444     1.0000 0.25338  0.64550  0.19861  Biso   1.000  C
  C445     1.0000 0.21210  0.62490  0.18901  Biso   1.000  C
  H287     1.0000 0.18270  0.63630  0.19470  Biso   1.000  H
  C446     1.0000 0.21220  0.58930  0.17180  Biso   1.000  C
  H288     1.0000 0.18310  0.57670  0.16640  Biso   1.000  H
  C447     1.0000 0.25370  0.57170  0.16227  Biso   1.000  C
  C448     1.0000 0.29480  0.58960  0.17203  Biso   1.000  C
  H289     1.0000 0.32410  0.57670  0.16710  Biso   1.000  H
  C449     1.0000 0.29420  0.62630  0.18910  Biso   1.000  C
  C450     1.0000 0.25430  0.53370  0.14296  Biso   1.000  C
  C451     1.0000 0.28950  0.49760  0.14286  Biso   1.000  C
  H290     1.0000 0.31360  0.49780  0.15490  Biso   1.000  H
  C452     1.0000 0.34520  0.40550  0.10280  Biso   1.000  C
  H291     1.0000 0.33380  0.41680  0.08760  Biso   1.000  H
  C453     1.0000 0.37990  0.37170  0.10297  Biso   1.000  C
  N53      1.0000 0.39680  0.36290  0.07760  Biso   1.000  N
  N54      1.0000 0.34180  0.64640  0.19410  Biso   1.000  N
  C454     1.0000 0.10180  0.79060  0.24920  Biso   1.000  C
  H292     1.0000 0.11840  0.81960  0.24970  Biso   1.000  H
  C455     1.0000 0.05240  0.79120  0.24930  Biso   1.000  C
  H293     1.0000 0.03630  0.82040  0.25010  Biso   1.000  H
  C456     1.0000 0.10200  0.73130  0.22787  Biso   1.000  C
  H294     1.0000 0.11890  0.71920  0.21430  Biso   1.000  H
  C457     1.0000 0.05210  0.73070  0.22780  Biso   1.000  C
  H295     1.0000 0.03560  0.71790  0.21430  Biso   1.000  H
  C458     1.0000 0.05150  0.76690  0.26863  Biso   1.000  C
  H296     1.0000 0.03460  0.77830  0.28240  Biso   1.000  H
  C459     1.0000 0.10140  0.76750  0.26871  Biso   1.000  C
  H297     1.0000 0.11780  0.77960  0.28240  Biso   1.000  H
  O82      1.0000 0.95031  0.79924  0.64609  Biso   1.000  O
  O83      1.0000 0.71218  0.19996  0.72367  Biso   1.000  O
  O84      1.0000 0.79141  0.20004  0.72489  Biso   1.000  O
  C460     1.0000 0.75193  0.18440  0.71668  Biso   1.000  C
  C461     1.0000 0.75338  0.14550  0.69861  Biso   1.000  C
  C462     1.0000 0.71210  0.12490  0.68901  Biso   1.000  C
  H298     1.0000 0.68270  0.13630  0.69470  Biso   1.000  H
  C463     1.0000 0.71220  0.08930  0.67180  Biso   1.000  C
  H299     1.0000 0.68310  0.07670  0.66640  Biso   1.000  H
  C464     1.0000 0.75370  0.07170  0.66227  Biso   1.000  C
  C465     1.0000 0.79480  0.08960  0.67203  Biso   1.000  C
  H300     1.0000 0.82410  0.07670  0.66710  Biso   1.000  H
  C466     1.0000 0.79420  0.12630  0.68910  Biso   1.000  C
  C467     1.0000 0.75430  0.03370  0.64296  Biso   1.000  C
  C468     1.0000 0.78950  0.99760  0.64286  Biso   1.000  C
  H301     1.0000 0.81360  0.99780  0.65490  Biso   1.000  H
  C469     1.0000 0.84520  0.90550  0.60280  Biso   1.000  C
  H302     1.0000 0.83380  0.91680  0.58760  Biso   1.000  H
  C470     1.0000 0.87990  0.87170  0.60297  Biso   1.000  C
  N55      1.0000 0.89680  0.86290  0.57760  Biso   1.000  N
  N56      1.0000 0.84180  0.14640  0.69410  Biso   1.000  N
  C471     1.0000 0.60180  0.29060  0.74920  Biso   1.000  C
  H303     1.0000 0.61840  0.31960  0.74970  Biso   1.000  H
  C472     1.0000 0.55240  0.29120  0.74930  Biso   1.000  C
  H304     1.0000 0.53630  0.32040  0.75010  Biso   1.000  H
  C473     1.0000 0.60200  0.23130  0.72787  Biso   1.000  C
  H305     1.0000 0.61890  0.21920  0.71430  Biso   1.000  H
  C474     1.0000 0.55210  0.23070  0.72780  Biso   1.000  C
  H306     1.0000 0.53560  0.21790  0.71430  Biso   1.000  H
  C475     1.0000 0.55150  0.26690  0.76863  Biso   1.000  C
  H307     1.0000 0.53460  0.27830  0.78240  Biso   1.000  H
  C476     1.0000 0.60140  0.26750  0.76871  Biso   1.000  C
  H308     1.0000 0.61780  0.27960  0.78240  Biso   1.000  H
  O85      1.0000 0.45076  0.70031  0.89609  Biso   1.000  O
  O86      1.0000 0.05004  0.46218  0.97367  Biso   1.000  O
  O87      1.0000 0.04996  0.54141  0.97489  Biso   1.000  O
  C477     1.0000 0.06560  0.50193  0.96668  Biso   1.000  C
  C478     1.0000 0.10450  0.50338  0.94861  Biso   1.000  C
  C479     1.0000 0.12510  0.46210  0.93901  Biso   1.000  C
  H309     1.0000 0.11370  0.43270  0.94470  Biso   1.000  H
  C480     1.0000 0.16070  0.46220  0.92180  Biso   1.000  C
  H310     1.0000 0.17330  0.43310  0.91640  Biso   1.000  H
  C481     1.0000 0.17830  0.50370  0.91227  Biso   1.000  C
  C482     1.0000 0.16040  0.54480  0.92203  Biso   1.000  C
  H311     1.0000 0.17330  0.57410  0.91710  Biso   1.000  H
  C483     1.0000 0.12370  0.54420  0.93910  Biso   1.000  C
  C484     1.0000 0.21630  0.50430  0.89296  Biso   1.000  C
  C485     1.0000 0.25240  0.53950  0.89286  Biso   1.000  C
  H312     1.0000 0.25220  0.56360  0.90490  Biso   1.000  H
  C486     1.0000 0.34450  0.59520  0.85280  Biso   1.000  C
  H313     1.0000 0.33320  0.58380  0.83760  Biso   1.000  H
  C487     1.0000 0.37830  0.62990  0.85297  Biso   1.000  C
  N57      1.0000 0.38710  0.64680  0.82760  Biso   1.000  N
  N58      1.0000 0.10360  0.59180  0.94410  Biso   1.000  N
  C488     1.0000 0.95940  0.35180  0.99920  Biso   1.000  C
  H314     1.0000 0.93040  0.36840  0.99970  Biso   1.000  H
  C489     1.0000 0.95880  0.30240  0.99930  Biso   1.000  C
  H315     1.0000 0.92960  0.28630  0.00010  Biso   1.000  H
  C490     1.0000 0.01870  0.35200  0.97787  Biso   1.000  C
  H316     1.0000 0.03080  0.36890  0.96430  Biso   1.000  H
  C491     1.0000 0.01930  0.30210  0.97780  Biso   1.000  C
  H317     1.0000 0.03210  0.28560  0.96430  Biso   1.000  H
  C492     1.0000 0.98310  0.30150  0.01863  Biso   1.000  C
  H318     1.0000 0.97170  0.28460  0.03240  Biso   1.000  H
  C493     1.0000 0.98250  0.35140  0.01871  Biso   1.000  C
  H319     1.0000 0.97040  0.36780  0.03240  Biso   1.000  H
  O88      1.0000 0.95076  0.20031  0.39609  Biso   1.000  O
  O89      1.0000 0.55004  0.96218  0.47367  Biso   1.000  O
  O90      1.0000 0.54996  0.04141  0.47489  Biso   1.000  O
  C494     1.0000 0.56560  0.00193  0.46668  Biso   1.000  C
  C495     1.0000 0.60450  0.00338  0.44861  Biso   1.000  C
  C496     1.0000 0.62510  0.96210  0.43901  Biso   1.000  C
  H320     1.0000 0.61370  0.93270  0.44470  Biso   1.000  H
  C497     1.0000 0.66070  0.96220  0.42180  Biso   1.000  C
  H321     1.0000 0.67330  0.93310  0.41640  Biso   1.000  H
  C498     1.0000 0.67830  0.00370  0.41227  Biso   1.000  C
  C499     1.0000 0.66040  0.04480  0.42203  Biso   1.000  C
  H322     1.0000 0.67330  0.07410  0.41710  Biso   1.000  H
  C500     1.0000 0.62370  0.04420  0.43910  Biso   1.000  C
  C501     1.0000 0.71630  0.00430  0.39296  Biso   1.000  C
  C502     1.0000 0.75240  0.03950  0.39286  Biso   1.000  C
  H323     1.0000 0.75220  0.06360  0.40490  Biso   1.000  H
  C503     1.0000 0.84450  0.09520  0.35280  Biso   1.000  C
  H324     1.0000 0.83320  0.08380  0.33760  Biso   1.000  H
  C504     1.0000 0.87830  0.12990  0.35297  Biso   1.000  C
  N59      1.0000 0.88710  0.14680  0.32760  Biso   1.000  N
  N60      1.0000 0.60360  0.09180  0.44410  Biso   1.000  N
  C505     1.0000 0.45940  0.85180  0.49920  Biso   1.000  C
  H325     1.0000 0.43040  0.86840  0.49970  Biso   1.000  H
  C506     1.0000 0.45880  0.80240  0.49930  Biso   1.000  C
  H326     1.0000 0.42960  0.78630  0.50010  Biso   1.000  H
  C507     1.0000 0.51870  0.85200  0.47787  Biso   1.000  C
  H327     1.0000 0.53080  0.86890  0.46430  Biso   1.000  H
  C508     1.0000 0.51930  0.80210  0.47780  Biso   1.000  C
  H328     1.0000 0.53210  0.78560  0.46430  Biso   1.000  H
  C509     1.0000 0.48310  0.80150  0.51863  Biso   1.000  C
  H329     1.0000 0.47170  0.78460  0.53240  Biso   1.000  H
  C510     1.0000 0.48250  0.85140  0.51871  Biso   1.000  C
  H330     1.0000 0.47040  0.86780  0.53240  Biso   1.000  H
  O91      1.0000 0.04924  0.29969  0.39609  Biso   1.000  O
  O92      1.0000 0.44996  0.53782  0.47367  Biso   1.000  O
  O93      1.0000 0.45004  0.45859  0.47489  Biso   1.000  O
  C511     1.0000 0.43440  0.49807  0.46668  Biso   1.000  C
  C512     1.0000 0.39550  0.49662  0.44861  Biso   1.000  C
  C513     1.0000 0.37490  0.53790  0.43901  Biso   1.000  C
  H331     1.0000 0.38630  0.56730  0.44470  Biso   1.000  H
  C514     1.0000 0.33930  0.53780  0.42180  Biso   1.000  C
  H332     1.0000 0.32670  0.56690  0.41640  Biso   1.000  H
  C515     1.0000 0.32170  0.49630  0.41227  Biso   1.000  C
  C516     1.0000 0.33960  0.45520  0.42203  Biso   1.000  C
  H333     1.0000 0.32670  0.42590  0.41710  Biso   1.000  H
  C517     1.0000 0.37630  0.45580  0.43910  Biso   1.000  C
  C518     1.0000 0.28370  0.49570  0.39296  Biso   1.000  C
  C519     1.0000 0.24760  0.46050  0.39286  Biso   1.000  C
  H334     1.0000 0.24780  0.43640  0.40490  Biso   1.000  H
  C520     1.0000 0.15550  0.40480  0.35280  Biso   1.000  C
  H335     1.0000 0.16680  0.41620  0.33760  Biso   1.000  H
  C521     1.0000 0.12170  0.37010  0.35297  Biso   1.000  C
  N61      1.0000 0.11290  0.35320  0.32760  Biso   1.000  N
  N62      1.0000 0.39640  0.40820  0.44410  Biso   1.000  N
  C522     1.0000 0.54060  0.64820  0.49920  Biso   1.000  C
  H336     1.0000 0.56960  0.63160  0.49970  Biso   1.000  H
  C523     1.0000 0.54120  0.69760  0.49930  Biso   1.000  C
  H337     1.0000 0.57040  0.71370  0.50010  Biso   1.000  H
  C524     1.0000 0.48130  0.64800  0.47787  Biso   1.000  C
  H338     1.0000 0.46920  0.63110  0.46430  Biso   1.000  H
  C525     1.0000 0.48070  0.69790  0.47780  Biso   1.000  C
  H339     1.0000 0.46790  0.71440  0.46430  Biso   1.000  H
  C526     1.0000 0.51690  0.69850  0.51863  Biso   1.000  C
  H340     1.0000 0.52830  0.71540  0.53240  Biso   1.000  H
  C527     1.0000 0.51750  0.64860  0.51871  Biso   1.000  C
  H341     1.0000 0.52960  0.63220  0.53240  Biso   1.000  H
  O94      1.0000 0.54924  0.79969  0.89609  Biso   1.000  O
  O95      1.0000 0.94996  0.03782  0.97367  Biso   1.000  O
  O96      1.0000 0.95004  0.95859  0.97489  Biso   1.000  O
  C528     1.0000 0.93440  0.99807  0.96668  Biso   1.000  C
  C529     1.0000 0.89550  0.99662  0.94861  Biso   1.000  C
  C530     1.0000 0.87490  0.03790  0.93901  Biso   1.000  C
  H342     1.0000 0.88630  0.06730  0.94470  Biso   1.000  H
  C531     1.0000 0.83930  0.03780  0.92180  Biso   1.000  C
  H343     1.0000 0.82670  0.06690  0.91640  Biso   1.000  H
  C532     1.0000 0.82170  0.99630  0.91227  Biso   1.000  C
  C533     1.0000 0.83960  0.95520  0.92203  Biso   1.000  C
  H344     1.0000 0.82670  0.92590  0.91710  Biso   1.000  H
  C534     1.0000 0.87630  0.95580  0.93910  Biso   1.000  C
  C535     1.0000 0.78370  0.99570  0.89296  Biso   1.000  C
  C536     1.0000 0.74760  0.96050  0.89286  Biso   1.000  C
  H345     1.0000 0.74780  0.93640  0.90490  Biso   1.000  H
  C537     1.0000 0.65550  0.90480  0.85280  Biso   1.000  C
  H346     1.0000 0.66680  0.91620  0.83760  Biso   1.000  H
  C538     1.0000 0.62170  0.87010  0.85297  Biso   1.000  C
  N63      1.0000 0.61290  0.85320  0.82760  Biso   1.000  N
  N64      1.0000 0.89640  0.90820  0.94410  Biso   1.000  N
  C539     1.0000 0.04060  0.14820  0.99920  Biso   1.000  C
  H347     1.0000 0.06960  0.13160  0.99970  Biso   1.000  H
  C540     1.0000 0.04120  0.19760  0.99930  Biso   1.000  C
  H348     1.0000 0.07040  0.21370  0.00010  Biso   1.000  H
  C541     1.0000 0.98130  0.14800  0.97787  Biso   1.000  C
  H349     1.0000 0.96920  0.13110  0.96430  Biso   1.000  H
  C542     1.0000 0.98070  0.19790  0.97780  Biso   1.000  C
  H350     1.0000 0.96790  0.21440  0.96430  Biso   1.000  H
  C543     1.0000 0.01690  0.19850  0.01863  Biso   1.000  C
  H351     1.0000 0.02830  0.21540  0.03240  Biso   1.000  H
  C544     1.0000 0.01750  0.14860  0.01871  Biso   1.000  C
  H352     1.0000 0.02960  0.13220  0.03240  Biso   1.000  H
  Cu1      1.0000 0.79728  0.75000  0.24924  Biso   1.000  Cu
  N65      1.0000 0.87338  0.75000  0.24833  Biso   1.000  N
  C545     1.0000 0.97316  0.75000  0.24818  Biso   1.000  C
  Cu2      1.0000 0.70272  0.25000  0.74924  Biso   1.000  Cu
  N66      1.0000 0.62662  0.25000  0.74833  Biso   1.000  N
  C546     1.0000 0.52684  0.25000  0.74818  Biso   1.000  C
  Cu3      1.0000 0.50000  0.54728  0.49924  Biso   1.000  Cu
  N67      1.0000 0.50000  0.62338  0.49833  Biso   1.000  N
  C547     1.0000 0.50000  0.72316  0.49818  Biso   1.000  C
  Cu4      1.0000 0.00000  0.04728  0.99924  Biso   1.000  Cu
  N68      1.0000 0.00000  0.12338  0.99833  Biso   1.000  N
  C548     1.0000 0.00000  0.22316  0.99818  Biso   1.000  C
  Cu5      1.0000 0.00000  0.45272  0.99924  Biso   1.000  Cu
  N69      1.0000 0.00000  0.37662  0.99833  Biso   1.000  N
  C549     1.0000 0.00000  0.27684  0.99818  Biso   1.000  C
  Cu6      1.0000 0.50000  0.95272  0.49924  Biso   1.000  Cu
  N70      1.0000 0.50000  0.87662  0.49833  Biso   1.000  N
  C550     1.0000 0.50000  0.77684  0.49818  Biso   1.000  C
  Cu7      1.0000 0.70272  0.75000  0.25076  Biso   1.000  Cu
  N71      1.0000 0.62662  0.75000  0.25167  Biso   1.000  N
  C551     1.0000 0.52684  0.75000  0.25182  Biso   1.000  C
  Cu8      1.0000 0.79728  0.25000  0.75076  Biso   1.000  Cu
  N72      1.0000 0.87338  0.25000  0.75167  Biso   1.000  N
  C552     1.0000 0.97316  0.25000  0.75182  Biso   1.000  C
  Cu9      1.0000 0.00000  0.54728  0.00076  Biso   1.000  Cu
  N73      1.0000 0.00000  0.62338  0.00167  Biso   1.000  N
  C553     1.0000 0.00000  0.72316  0.00182  Biso   1.000  C
  Cu10     1.0000 0.50000  0.04728  0.50076  Biso   1.000  Cu
  N74      1.0000 0.50000  0.12338  0.50167  Biso   1.000  N
  C554     1.0000 0.50000  0.22316  0.50182  Biso   1.000  C
  Cu11     1.0000 0.50000  0.45272  0.50076  Biso   1.000  Cu
  N75      1.0000 0.50000  0.37662  0.50167  Biso   1.000  N
  C555     1.0000 0.50000  0.27684  0.50182  Biso   1.000  C
  Cu12     1.0000 0.00000  0.95272  0.00076  Biso   1.000  Cu
  N76      1.0000 0.00000  0.87662  0.00167  Biso   1.000  N
  C556     1.0000 0.00000  0.77684  0.00182  Biso   1.000  C
  Cu13     1.0000 0.20272  0.25000  0.75076  Biso   1.000  Cu
  N77      1.0000 0.12662  0.25000  0.75167  Biso   1.000  N
  C557     1.0000 0.02684  0.25000  0.75182  Biso   1.000  C
  Cu14     1.0000 0.29728  0.75000  0.25076  Biso   1.000  Cu
  N78      1.0000 0.37338  0.75000  0.25167  Biso   1.000  N
  C558     1.0000 0.47316  0.75000  0.25182  Biso   1.000  C
  Cu15     1.0000 0.29728  0.25000  0.74924  Biso   1.000  Cu
  N79      1.0000 0.37338  0.25000  0.74833  Biso   1.000  N
  C559     1.0000 0.47316  0.25000  0.74818  Biso   1.000  C
  Cu16     1.0000 0.20272  0.75000  0.24924  Biso   1.000  Cu
  N80      1.0000 0.12662  0.75000  0.24833  Biso   1.000  N
  C560     1.0000 0.02684  0.75000  0.24818  Biso   1.000  C
  Cu17     1.0000 0.50000  0.25000  0.14968  Biso   1.000  Cu
  Cu18     1.0000 0.00000  0.75000  0.64968  Biso   1.000  Cu
  Cu19     1.0000 0.00000  0.25000  0.39968  Biso   1.000  Cu
  Cu20     1.0000 0.50000  0.75000  0.89968  Biso   1.000  Cu
  Cu21     1.0000 0.00000  0.25000  0.35032  Biso   1.000  Cu
  Cu22     1.0000 0.50000  0.75000  0.85032  Biso   1.000  Cu
  Cu23     1.0000 0.50000  0.25000  0.10032  Biso   1.000  Cu
  Cu24     1.0000 0.00000  0.75000  0.60032  Biso   1.000  Cu
  C561     1.0000 0.78170  0.53170  0.12500  Biso   1.000  C
  H353     1.0000 0.80530  0.55530  0.12500  Biso   1.000  H
  C562     1.0000 0.71150  0.46150  0.12500  Biso   1.000  C
  C563     1.0000 0.67380  0.42380  0.12500  Biso   1.000  C
  C564     1.0000 0.60170  0.35170  0.12500  Biso   1.000  C
  C565     1.0000 0.56430  0.31430  0.12500  Biso   1.000  C
  C566     1.0000 0.28170  0.03170  0.62500  Biso   1.000  C
  H354     1.0000 0.30530  0.05530  0.62500  Biso   1.000  H
  C567     1.0000 0.21150  0.96150  0.62500  Biso   1.000  C
  C568     1.0000 0.17380  0.92380  0.62500  Biso   1.000  C
  C569     1.0000 0.10170  0.85170  0.62500  Biso   1.000  C
  C570     1.0000 0.06430  0.81430  0.62500  Biso   1.000  C
  C571     1.0000 0.71830  0.46830  0.62500  Biso   1.000  C
  H355     1.0000 0.69470  0.44470  0.62500  Biso   1.000  H
  C572     1.0000 0.78850  0.53850  0.62500  Biso   1.000  C
  C573     1.0000 0.82620  0.57620  0.62500  Biso   1.000  C
  C574     1.0000 0.89830  0.64830  0.62500  Biso   1.000  C
  C575     1.0000 0.93570  0.68570  0.62500  Biso   1.000  C
  C576     1.0000 0.21830  0.96830  0.12500  Biso   1.000  C
  H356     1.0000 0.19470  0.94470  0.12500  Biso   1.000  H
  C577     1.0000 0.28850  0.03850  0.12500  Biso   1.000  C
  C578     1.0000 0.32620  0.07620  0.12500  Biso   1.000  C
  C579     1.0000 0.39830  0.14830  0.12500  Biso   1.000  C
  C580     1.0000 0.43570  0.18570  0.12500  Biso   1.000  C
  C581     1.0000 0.71830  0.53170  0.37500  Biso   1.000  C
  H357     1.0000 0.69470  0.55530  0.37500  Biso   1.000  H
  C582     1.0000 0.78850  0.46150  0.37500  Biso   1.000  C
  C583     1.0000 0.82620  0.42380  0.37500  Biso   1.000  C
  C584     1.0000 0.89830  0.35170  0.37500  Biso   1.000  C
  C585     1.0000 0.93570  0.31430  0.37500  Biso   1.000  C
  C586     1.0000 0.21830  0.03170  0.87500  Biso   1.000  C
  H358     1.0000 0.19470  0.05530  0.87500  Biso   1.000  H
  C587     1.0000 0.28850  0.96150  0.87500  Biso   1.000  C
  C588     1.0000 0.32620  0.92380  0.87500  Biso   1.000  C
  C589     1.0000 0.39830  0.85170  0.87500  Biso   1.000  C
  C590     1.0000 0.43570  0.81430  0.87500  Biso   1.000  C
  C591     1.0000 0.78170  0.46830  0.87500  Biso   1.000  C
  H359     1.0000 0.80530  0.44470  0.87500  Biso   1.000  H
  C592     1.0000 0.71150  0.53850  0.87500  Biso   1.000  C
  C593     1.0000 0.67380  0.57620  0.87500  Biso   1.000  C
  C594     1.0000 0.60170  0.64830  0.87500  Biso   1.000  C
  C595     1.0000 0.56430  0.68570  0.87500  Biso   1.000  C
  C596     1.0000 0.28170  0.96830  0.37500  Biso   1.000  C
  H360     1.0000 0.30530  0.94470  0.37500  Biso   1.000  H
  C597     1.0000 0.21150  0.03850  0.37500  Biso   1.000  C
  C598     1.0000 0.17380  0.07620  0.37500  Biso   1.000  C
  C599     1.0000 0.10170  0.14830  0.37500  Biso   1.000  C
  C600     1.0000 0.06430  0.18570  0.37500  Biso   1.000  C
  C601     1.0000 0.21830  0.46830  0.87500  Biso   1.000  C
  H361     1.0000 0.19470  0.44470  0.87500  Biso   1.000  H
  C602     1.0000 0.28850  0.53850  0.87500  Biso   1.000  C
  C603     1.0000 0.32620  0.57620  0.87500  Biso   1.000  C
  C604     1.0000 0.39830  0.64830  0.87500  Biso   1.000  C
  C605     1.0000 0.43570  0.68570  0.87500  Biso   1.000  C
  C606     1.0000 0.71830  0.96830  0.37500  Biso   1.000  C
  H362     1.0000 0.69470  0.94470  0.37500  Biso   1.000  H
  C607     1.0000 0.78850  0.03850  0.37500  Biso   1.000  C
  C608     1.0000 0.82620  0.07620  0.37500  Biso   1.000  C
  C609     1.0000 0.89830  0.14830  0.37500  Biso   1.000  C
  C610     1.0000 0.93570  0.18570  0.37500  Biso   1.000  C
  C611     1.0000 0.28170  0.53170  0.37500  Biso   1.000  C
  H363     1.0000 0.30530  0.55530  0.37500  Biso   1.000  H
  C612     1.0000 0.21150  0.46150  0.37500  Biso   1.000  C
  C613     1.0000 0.17380  0.42380  0.37500  Biso   1.000  C
  C614     1.0000 0.10170  0.35170  0.37500  Biso   1.000  C
  C615     1.0000 0.06430  0.31430  0.37500  Biso   1.000  C
  C616     1.0000 0.78170  0.03170  0.87500  Biso   1.000  C
  H364     1.0000 0.80530  0.05530  0.87500  Biso   1.000  H
  C617     1.0000 0.71150  0.96150  0.87500  Biso   1.000  C
  C618     1.0000 0.67380  0.92380  0.87500  Biso   1.000  C
  C619     1.0000 0.60170  0.85170  0.87500  Biso   1.000  C
  C620     1.0000 0.56430  0.81430  0.87500  Biso   1.000  C
  C621     1.0000 0.28170  0.46830  0.62500  Biso   1.000  C
  H365     1.0000 0.30530  0.44470  0.62500  Biso   1.000  H
  C622     1.0000 0.21150  0.53850  0.62500  Biso   1.000  C
  C623     1.0000 0.17380  0.57620  0.62500  Biso   1.000  C
  C624     1.0000 0.10170  0.64830  0.62500  Biso   1.000  C
  C625     1.0000 0.06430  0.68570  0.62500  Biso   1.000  C
  C626     1.0000 0.78170  0.96830  0.12500  Biso   1.000  C
  H366     1.0000 0.80530  0.94470  0.12500  Biso   1.000  H
  C627     1.0000 0.71150  0.03850  0.12500  Biso   1.000  C
  C628     1.0000 0.67380  0.07620  0.12500  Biso   1.000  C
  C629     1.0000 0.60170  0.14830  0.12500  Biso   1.000  C
  C630     1.0000 0.56430  0.18570  0.12500  Biso   1.000  C
  C631     1.0000 0.21830  0.53170  0.12500  Biso   1.000  C
  H367     1.0000 0.19470  0.55530  0.12500  Biso   1.000  H
  C632     1.0000 0.28850  0.46150  0.12500  Biso   1.000  C
  C633     1.0000 0.32620  0.42380  0.12500  Biso   1.000  C
  C634     1.0000 0.39830  0.35170  0.12500  Biso   1.000  C
  C635     1.0000 0.43570  0.31430  0.12500  Biso   1.000  C
  C636     1.0000 0.71830  0.03170  0.62500  Biso   1.000  C
  H368     1.0000 0.69470  0.05530  0.62500  Biso   1.000  H
  C637     1.0000 0.78850  0.96150  0.62500  Biso   1.000  C
  C638     1.0000 0.82620  0.92380  0.62500  Biso   1.000  C
  C639     1.0000 0.89830  0.85170  0.62500  Biso   1.000  C
  C640     1.0000 0.93570  0.81430  0.62500  Biso   1.000  C
