data_image0
_cell_length_a       44.271
_cell_length_b       44.271
_cell_length_c       44.271
_cell_angle_alpha    90
_cell_angle_beta     90
_cell_angle_gamma    90

_symmetry_space_group_name_H-M    "P 1"
_symmetry_int_tables_number       1

loop_
  _symmetry_equiv_pos_as_xyz
  'x, y, z'

loop_
  _atom_site_label
  _atom_site_occupancy
  _atom_site_fract_x
  _atom_site_fract_y
  _atom_site_fract_z
  _atom_site_thermal_displace_type
  _atom_site_B_iso_or_equiv
  _atom_site_type_symbol
  O1       1.0000 0.64409  0.53066  0.18761  Biso   1.000  O
  O2       1.0000 0.60851  0.53121  0.15170  Biso   1.000  O
  C1       1.0000 0.61934  0.54073  0.17559  Biso   1.000  C
  C2       1.0000 0.60341  0.56450  0.19177  Biso   1.000  C
  C3       1.0000 0.60840  0.57180  0.22272  Biso   1.000  C
  H1       1.0000 0.62320  0.56060  0.23300  Biso   1.000  H
  C4       1.0000 0.58980  0.62310  0.28800  Biso   1.000  C
  N1       1.0000 0.60560  0.62550  0.31350  Biso   1.000  N
  C5       1.0000 0.60020  0.63370  0.27650  Biso   1.000  C
  H2       1.0000 0.58340  0.64550  0.27110  Biso   1.000  H
  N2       1.0000 0.61610  0.63620  0.30200  Biso   1.000  N
  C6       1.0000 0.61600  0.57710  0.21710  Biso   1.000  C
  H3       1.0000 0.63340  0.56880  0.22590  Biso   1.000  H
  H4       1.0000 0.57240  0.63430  0.28310  Biso   1.000  H
  N3       1.0000 0.62310  0.58980  0.28800  Biso   1.000  N
  O3       1.0000 0.64409  0.03066  0.68761  Biso   1.000  O
  O4       1.0000 0.60851  0.03121  0.65170  Biso   1.000  O
  C7       1.0000 0.61934  0.04073  0.67559  Biso   1.000  C
  C8       1.0000 0.60341  0.06450  0.69177  Biso   1.000  C
  C9       1.0000 0.60840  0.07180  0.72272  Biso   1.000  C
  H5       1.0000 0.62320  0.06060  0.73300  Biso   1.000  H
  C10      1.0000 0.58980  0.12310  0.78800  Biso   1.000  C
  N4       1.0000 0.60560  0.12550  0.81350  Biso   1.000  N
  C11      1.0000 0.60020  0.13370  0.77650  Biso   1.000  C
  H6       1.0000 0.58340  0.14550  0.77110  Biso   1.000  H
  N5       1.0000 0.61610  0.13620  0.80200  Biso   1.000  N
  C12      1.0000 0.61600  0.07710  0.71710  Biso   1.000  C
  H7       1.0000 0.63340  0.06880  0.72590  Biso   1.000  H
  H8       1.0000 0.57240  0.13430  0.78310  Biso   1.000  H
  N6       1.0000 0.62310  0.08980  0.78800  Biso   1.000  N
  O5       1.0000 0.14409  0.53066  0.68761  Biso   1.000  O
  O6       1.0000 0.10851  0.53121  0.65170  Biso   1.000  O
  C13      1.0000 0.11934  0.54073  0.67559  Biso   1.000  C
  C14      1.0000 0.10341  0.56450  0.69177  Biso   1.000  C
  C15      1.0000 0.10840  0.57180  0.72272  Biso   1.000  C
  H9       1.0000 0.12320  0.56060  0.73300  Biso   1.000  H
  C16      1.0000 0.08980  0.62310  0.78800  Biso   1.000  C
  N7       1.0000 0.10560  0.62550  0.81350  Biso   1.000  N
  C17      1.0000 0.10020  0.63370  0.77650  Biso   1.000  C
  H10      1.0000 0.08340  0.64550  0.77110  Biso   1.000  H
  N8       1.0000 0.11610  0.63620  0.80200  Biso   1.000  N
  C18      1.0000 0.11600  0.57710  0.71710  Biso   1.000  C
  H11      1.0000 0.13340  0.56880  0.72590  Biso   1.000  H
  H12      1.0000 0.07240  0.63430  0.78310  Biso   1.000  H
  N9       1.0000 0.12310  0.58980  0.78800  Biso   1.000  N
  O7       1.0000 0.14409  0.03066  0.18761  Biso   1.000  O
  O8       1.0000 0.10851  0.03121  0.15170  Biso   1.000  O
  C19      1.0000 0.11934  0.04073  0.17559  Biso   1.000  C
  C20      1.0000 0.10341  0.06450  0.19177  Biso   1.000  C
  C21      1.0000 0.10840  0.07180  0.22272  Biso   1.000  C
  H13      1.0000 0.12320  0.06060  0.23300  Biso   1.000  H
  C22      1.0000 0.08980  0.12310  0.28800  Biso   1.000  C
  N10      1.0000 0.10560  0.12550  0.31350  Biso   1.000  N
  C23      1.0000 0.10020  0.13370  0.27650  Biso   1.000  C
  H14      1.0000 0.08340  0.14550  0.27110  Biso   1.000  H
  N11      1.0000 0.11610  0.13620  0.30200  Biso   1.000  N
  C24      1.0000 0.11600  0.07710  0.21710  Biso   1.000  C
  H15      1.0000 0.13340  0.06880  0.22590  Biso   1.000  H
  H16      1.0000 0.07240  0.13430  0.28310  Biso   1.000  H
  N12      1.0000 0.12310  0.08980  0.28800  Biso   1.000  N
  O9       1.0000 0.35591  0.46934  0.18761  Biso   1.000  O
  O10      1.0000 0.39149  0.46879  0.15170  Biso   1.000  O
  C25      1.0000 0.38066  0.45927  0.17559  Biso   1.000  C
  C26      1.0000 0.39659  0.43550  0.19177  Biso   1.000  C
  C27      1.0000 0.39160  0.42820  0.22272  Biso   1.000  C
  H17      1.0000 0.37680  0.43940  0.23300  Biso   1.000  H
  C28      1.0000 0.41020  0.37690  0.28800  Biso   1.000  C
  N13      1.0000 0.39440  0.37450  0.31350  Biso   1.000  N
  C29      1.0000 0.39980  0.36630  0.27650  Biso   1.000  C
  H18      1.0000 0.41660  0.35450  0.27110  Biso   1.000  H
  N14      1.0000 0.38390  0.36380  0.30200  Biso   1.000  N
  C30      1.0000 0.38400  0.42290  0.21710  Biso   1.000  C
  H19      1.0000 0.36660  0.43120  0.22590  Biso   1.000  H
  H20      1.0000 0.42760  0.36570  0.28310  Biso   1.000  H
  N15      1.0000 0.37690  0.41020  0.28800  Biso   1.000  N
  O11      1.0000 0.35591  0.96934  0.68761  Biso   1.000  O
  O12      1.0000 0.39149  0.96879  0.65170  Biso   1.000  O
  C31      1.0000 0.38066  0.95927  0.67559  Biso   1.000  C
  C32      1.0000 0.39659  0.93550  0.69177  Biso   1.000  C
  C33      1.0000 0.39160  0.92820  0.72272  Biso   1.000  C
  H21      1.0000 0.37680  0.93940  0.73300  Biso   1.000  H
  C34      1.0000 0.41020  0.87690  0.78800  Biso   1.000  C
  N16      1.0000 0.39440  0.87450  0.81350  Biso   1.000  N
  C35      1.0000 0.39980  0.86630  0.77650  Biso   1.000  C
  H22      1.0000 0.41660  0.85450  0.77110  Biso   1.000  H
  N17      1.0000 0.38390  0.86380  0.80200  Biso   1.000  N
  C36      1.0000 0.38400  0.92290  0.71710  Biso   1.000  C
  H23      1.0000 0.36660  0.93120  0.72590  Biso   1.000  H
  H24      1.0000 0.42760  0.86570  0.78310  Biso   1.000  H
  N18      1.0000 0.37690  0.91020  0.78800  Biso   1.000  N
  O13      1.0000 0.85591  0.46934  0.68761  Biso   1.000  O
  O14      1.0000 0.89149  0.46879  0.65170  Biso   1.000  O
  C37      1.0000 0.88066  0.45927  0.67559  Biso   1.000  C
  C38      1.0000 0.89659  0.43550  0.69177  Biso   1.000  C
  C39      1.0000 0.89160  0.42820  0.72272  Biso   1.000  C
  H25      1.0000 0.87680  0.43940  0.73300  Biso   1.000  H
  C40      1.0000 0.91020  0.37690  0.78800  Biso   1.000  C
  N19      1.0000 0.89440  0.37450  0.81350  Biso   1.000  N
  C41      1.0000 0.89980  0.36630  0.77650  Biso   1.000  C
  H26      1.0000 0.91660  0.35450  0.77110  Biso   1.000  H
  N20      1.0000 0.88390  0.36380  0.80200  Biso   1.000  N
  C42      1.0000 0.88400  0.42290  0.71710  Biso   1.000  C
  H27      1.0000 0.86660  0.43120  0.72590  Biso   1.000  H
  H28      1.0000 0.92760  0.36570  0.78310  Biso   1.000  H
  N21      1.0000 0.87690  0.41020  0.78800  Biso   1.000  N
  O15      1.0000 0.85591  0.96934  0.18761  Biso   1.000  O
  O16      1.0000 0.89149  0.96879  0.15170  Biso   1.000  O
  C43      1.0000 0.88066  0.95927  0.17559  Biso   1.000  C
  C44      1.0000 0.89659  0.93550  0.19177  Biso   1.000  C
  C45      1.0000 0.89160  0.92820  0.22272  Biso   1.000  C
  H29      1.0000 0.87680  0.93940  0.23300  Biso   1.000  H
  C46      1.0000 0.91020  0.87690  0.28800  Biso   1.000  C
  N22      1.0000 0.89440  0.87450  0.31350  Biso   1.000  N
  C47      1.0000 0.89980  0.86630  0.27650  Biso   1.000  C
  H30      1.0000 0.91660  0.85450  0.27110  Biso   1.000  H
  N23      1.0000 0.88390  0.86380  0.30200  Biso   1.000  N
  C48      1.0000 0.88400  0.92290  0.21710  Biso   1.000  C
  H31      1.0000 0.86660  0.93120  0.22590  Biso   1.000  H
  H32      1.0000 0.92760  0.86570  0.28310  Biso   1.000  H
  N24      1.0000 0.87690  0.91020  0.28800  Biso   1.000  N
  O17      1.0000 0.35591  0.53066  0.81239  Biso   1.000  O
  O18      1.0000 0.39149  0.53121  0.84830  Biso   1.000  O
  C49      1.0000 0.38066  0.54073  0.82441  Biso   1.000  C
  C50      1.0000 0.39659  0.56450  0.80823  Biso   1.000  C
  C51      1.0000 0.39160  0.57180  0.77728  Biso   1.000  C
  H33      1.0000 0.37680  0.56060  0.76700  Biso   1.000  H
  C52      1.0000 0.41020  0.62310  0.71200  Biso   1.000  C
  N25      1.0000 0.39440  0.62550  0.68650  Biso   1.000  N
  C53      1.0000 0.39980  0.63370  0.72350  Biso   1.000  C
  H34      1.0000 0.41660  0.64550  0.72890  Biso   1.000  H
  N26      1.0000 0.38390  0.63620  0.69800  Biso   1.000  N
  C54      1.0000 0.38400  0.57710  0.78290  Biso   1.000  C
  H35      1.0000 0.36660  0.56880  0.77410  Biso   1.000  H
  H36      1.0000 0.42760  0.63430  0.71690  Biso   1.000  H
  N27      1.0000 0.37690  0.58980  0.71200  Biso   1.000  N
  O19      1.0000 0.35591  0.03066  0.31239  Biso   1.000  O
  O20      1.0000 0.39149  0.03121  0.34830  Biso   1.000  O
  C55      1.0000 0.38066  0.04073  0.32441  Biso   1.000  C
  C56      1.0000 0.39659  0.06450  0.30823  Biso   1.000  C
  C57      1.0000 0.39160  0.07180  0.27728  Biso   1.000  C
  H37      1.0000 0.37680  0.06060  0.26700  Biso   1.000  H
  C58      1.0000 0.41020  0.12310  0.21200  Biso   1.000  C
  N28      1.0000 0.39440  0.12550  0.18650  Biso   1.000  N
  C59      1.0000 0.39980  0.13370  0.22350  Biso   1.000  C
  H38      1.0000 0.41660  0.14550  0.22890  Biso   1.000  H
  N29      1.0000 0.38390  0.13620  0.19800  Biso   1.000  N
  C60      1.0000 0.38400  0.07710  0.28290  Biso   1.000  C
  H39      1.0000 0.36660  0.06880  0.27410  Biso   1.000  H
  H40      1.0000 0.42760  0.13430  0.21690  Biso   1.000  H
  N30      1.0000 0.37690  0.08980  0.21200  Biso   1.000  N
  O21      1.0000 0.85591  0.53066  0.31239  Biso   1.000  O
  O22      1.0000 0.89149  0.53121  0.34830  Biso   1.000  O
  C61      1.0000 0.88066  0.54073  0.32441  Biso   1.000  C
  C62      1.0000 0.89659  0.56450  0.30823  Biso   1.000  C
  C63      1.0000 0.89160  0.57180  0.27728  Biso   1.000  C
  H41      1.0000 0.87680  0.56060  0.26700  Biso   1.000  H
  C64      1.0000 0.91020  0.62310  0.21200  Biso   1.000  C
  N31      1.0000 0.89440  0.62550  0.18650  Biso   1.000  N
  C65      1.0000 0.89980  0.63370  0.22350  Biso   1.000  C
  H42      1.0000 0.91660  0.64550  0.22890  Biso   1.000  H
  N32      1.0000 0.88390  0.63620  0.19800  Biso   1.000  N
  C66      1.0000 0.88400  0.57710  0.28290  Biso   1.000  C
  H43      1.0000 0.86660  0.56880  0.27410  Biso   1.000  H
  H44      1.0000 0.92760  0.63430  0.21690  Biso   1.000  H
  N33      1.0000 0.87690  0.58980  0.21200  Biso   1.000  N
  O23      1.0000 0.85591  0.03066  0.81239  Biso   1.000  O
  O24      1.0000 0.89149  0.03121  0.84830  Biso   1.000  O
  C67      1.0000 0.88066  0.04073  0.82441  Biso   1.000  C
  C68      1.0000 0.89659  0.06450  0.80823  Biso   1.000  C
  C69      1.0000 0.89160  0.07180  0.77728  Biso   1.000  C
  H45      1.0000 0.87680  0.06060  0.76700  Biso   1.000  H
  C70      1.0000 0.91020  0.12310  0.71200  Biso   1.000  C
  N34      1.0000 0.89440  0.12550  0.68650  Biso   1.000  N
  C71      1.0000 0.89980  0.13370  0.72350  Biso   1.000  C
  H46      1.0000 0.91660  0.14550  0.72890  Biso   1.000  H
  N35      1.0000 0.88390  0.13620  0.69800  Biso   1.000  N
  C72      1.0000 0.88400  0.07710  0.78290  Biso   1.000  C
  H47      1.0000 0.86660  0.06880  0.77410  Biso   1.000  H
  H48      1.0000 0.92760  0.13430  0.71690  Biso   1.000  H
  N36      1.0000 0.87690  0.08980  0.71200  Biso   1.000  N
  O25      1.0000 0.64409  0.46934  0.81239  Biso   1.000  O
  O26      1.0000 0.60851  0.46879  0.84830  Biso   1.000  O
  C73      1.0000 0.61934  0.45927  0.82441  Biso   1.000  C
  C74      1.0000 0.60341  0.43550  0.80823  Biso   1.000  C
  C75      1.0000 0.60840  0.42820  0.77728  Biso   1.000  C
  H49      1.0000 0.62320  0.43940  0.76700  Biso   1.000  H
  C76      1.0000 0.58980  0.37690  0.71200  Biso   1.000  C
  N37      1.0000 0.60560  0.37450  0.68650  Biso   1.000  N
  C77      1.0000 0.60020  0.36630  0.72350  Biso   1.000  C
  H50      1.0000 0.58340  0.35450  0.72890  Biso   1.000  H
  N38      1.0000 0.61610  0.36380  0.69800  Biso   1.000  N
  C78      1.0000 0.61600  0.42290  0.78290  Biso   1.000  C
  H51      1.0000 0.63340  0.43120  0.77410  Biso   1.000  H
  H52      1.0000 0.57240  0.36570  0.71690  Biso   1.000  H
  N39      1.0000 0.62310  0.41020  0.71200  Biso   1.000  N
  O27      1.0000 0.64409  0.96934  0.31239  Biso   1.000  O
  O28      1.0000 0.60851  0.96879  0.34830  Biso   1.000  O
  C79      1.0000 0.61934  0.95927  0.32441  Biso   1.000  C
  C80      1.0000 0.60341  0.93550  0.30823  Biso   1.000  C
  C81      1.0000 0.60840  0.92820  0.27728  Biso   1.000  C
  H53      1.0000 0.62320  0.93940  0.26700  Biso   1.000  H
  C82      1.0000 0.58980  0.87690  0.21200  Biso   1.000  C
  N40      1.0000 0.60560  0.87450  0.18650  Biso   1.000  N
  C83      1.0000 0.60020  0.86630  0.22350  Biso   1.000  C
  H54      1.0000 0.58340  0.85450  0.22890  Biso   1.000  H
  N41      1.0000 0.61610  0.86380  0.19800  Biso   1.000  N
  C84      1.0000 0.61600  0.92290  0.28290  Biso   1.000  C
  H55      1.0000 0.63340  0.93120  0.27410  Biso   1.000  H
  H56      1.0000 0.57240  0.86570  0.21690  Biso   1.000  H
  N42      1.0000 0.62310  0.91020  0.21200  Biso   1.000  N
  O29      1.0000 0.14409  0.46934  0.31239  Biso   1.000  O
  O30      1.0000 0.10851  0.46879  0.34830  Biso   1.000  O
  C85      1.0000 0.11934  0.45927  0.32441  Biso   1.000  C
  C86      1.0000 0.10341  0.43550  0.30823  Biso   1.000  C
  C87      1.0000 0.10840  0.42820  0.27728  Biso   1.000  C
  H57      1.0000 0.12320  0.43940  0.26700  Biso   1.000  H
  C88      1.0000 0.08980  0.37690  0.21200  Biso   1.000  C
  N43      1.0000 0.10560  0.37450  0.18650  Biso   1.000  N
  C89      1.0000 0.10020  0.36630  0.22350  Biso   1.000  C
  H58      1.0000 0.08340  0.35450  0.22890  Biso   1.000  H
  N44      1.0000 0.11610  0.36380  0.19800  Biso   1.000  N
  C90      1.0000 0.11600  0.42290  0.28290  Biso   1.000  C
  H59      1.0000 0.13340  0.43120  0.27410  Biso   1.000  H
  H60      1.0000 0.07240  0.36570  0.21690  Biso   1.000  H
  N45      1.0000 0.12310  0.41020  0.21200  Biso   1.000  N
  O31      1.0000 0.14409  0.96934  0.81239  Biso   1.000  O
  O32      1.0000 0.10851  0.96879  0.84830  Biso   1.000  O
  C91      1.0000 0.11934  0.95927  0.82441  Biso   1.000  C
  C92      1.0000 0.10341  0.93550  0.80823  Biso   1.000  C
  C93      1.0000 0.10840  0.92820  0.77728  Biso   1.000  C
  H61      1.0000 0.12320  0.93940  0.76700  Biso   1.000  H
  C94      1.0000 0.08980  0.87690  0.71200  Biso   1.000  C
  N46      1.0000 0.10560  0.87450  0.68650  Biso   1.000  N
  C95      1.0000 0.10020  0.86630  0.72350  Biso   1.000  C
  H62      1.0000 0.08340  0.85450  0.72890  Biso   1.000  H
  N47      1.0000 0.11610  0.86380  0.69800  Biso   1.000  N
  C96      1.0000 0.11600  0.92290  0.78290  Biso   1.000  C
  H63      1.0000 0.13340  0.93120  0.77410  Biso   1.000  H
  H64      1.0000 0.07240  0.86570  0.71690  Biso   1.000  H
  N48      1.0000 0.12310  0.91020  0.71200  Biso   1.000  N
  O33      1.0000 0.18761  0.64409  0.53066  Biso   1.000  O
  O34      1.0000 0.15170  0.60851  0.53121  Biso   1.000  O
  C97      1.0000 0.17559  0.61934  0.54073  Biso   1.000  C
  C98      1.0000 0.19177  0.60341  0.56450  Biso   1.000  C
  C99      1.0000 0.22272  0.60840  0.57180  Biso   1.000  C
  H65      1.0000 0.23300  0.62320  0.56060  Biso   1.000  H
  C100     1.0000 0.28800  0.58980  0.62310  Biso   1.000  C
  N49      1.0000 0.31350  0.60560  0.62550  Biso   1.000  N
  C101     1.0000 0.27650  0.60020  0.63370  Biso   1.000  C
  H66      1.0000 0.27110  0.58340  0.64550  Biso   1.000  H
  N50      1.0000 0.30200  0.61610  0.63620  Biso   1.000  N
  C102     1.0000 0.21710  0.61600  0.57710  Biso   1.000  C
  H67      1.0000 0.22590  0.63340  0.56880  Biso   1.000  H
  H68      1.0000 0.28310  0.57240  0.63430  Biso   1.000  H
  N51      1.0000 0.28800  0.62310  0.58980  Biso   1.000  N
  O35      1.0000 0.18761  0.14409  0.03066  Biso   1.000  O
  O36      1.0000 0.15170  0.10851  0.03121  Biso   1.000  O
  C103     1.0000 0.17559  0.11934  0.04073  Biso   1.000  C
  C104     1.0000 0.19177  0.10341  0.06450  Biso   1.000  C
  C105     1.0000 0.22272  0.10840  0.07180  Biso   1.000  C
  H69      1.0000 0.23300  0.12320  0.06060  Biso   1.000  H
  C106     1.0000 0.28800  0.08980  0.12310  Biso   1.000  C
  N52      1.0000 0.31350  0.10560  0.12550  Biso   1.000  N
  C107     1.0000 0.27650  0.10020  0.13370  Biso   1.000  C
  H70      1.0000 0.27110  0.08340  0.14550  Biso   1.000  H
  N53      1.0000 0.30200  0.11610  0.13620  Biso   1.000  N
  C108     1.0000 0.21710  0.11600  0.07710  Biso   1.000  C
  H71      1.0000 0.22590  0.13340  0.06880  Biso   1.000  H
  H72      1.0000 0.28310  0.07240  0.13430  Biso   1.000  H
  N54      1.0000 0.28800  0.12310  0.08980  Biso   1.000  N
  O37      1.0000 0.68761  0.64409  0.03066  Biso   1.000  O
  O38      1.0000 0.65170  0.60851  0.03121  Biso   1.000  O
  C109     1.0000 0.67559  0.61934  0.04073  Biso   1.000  C
  C110     1.0000 0.69177  0.60341  0.06450  Biso   1.000  C
  C111     1.0000 0.72272  0.60840  0.07180  Biso   1.000  C
  H73      1.0000 0.73300  0.62320  0.06060  Biso   1.000  H
  C112     1.0000 0.78800  0.58980  0.12310  Biso   1.000  C
  N55      1.0000 0.81350  0.60560  0.12550  Biso   1.000  N
  C113     1.0000 0.77650  0.60020  0.13370  Biso   1.000  C
  H74      1.0000 0.77110  0.58340  0.14550  Biso   1.000  H
  N56      1.0000 0.80200  0.61610  0.13620  Biso   1.000  N
  C114     1.0000 0.71710  0.61600  0.07710  Biso   1.000  C
  H75      1.0000 0.72590  0.63340  0.06880  Biso   1.000  H
  H76      1.0000 0.78310  0.57240  0.13430  Biso   1.000  H
  N57      1.0000 0.78800  0.62310  0.08980  Biso   1.000  N
  O39      1.0000 0.68761  0.14409  0.53066  Biso   1.000  O
  O40      1.0000 0.65170  0.10851  0.53121  Biso   1.000  O
  C115     1.0000 0.67559  0.11934  0.54073  Biso   1.000  C
  C116     1.0000 0.69177  0.10341  0.56450  Biso   1.000  C
  C117     1.0000 0.72272  0.10840  0.57180  Biso   1.000  C
  H77      1.0000 0.73300  0.12320  0.56060  Biso   1.000  H
  C118     1.0000 0.78800  0.08980  0.62310  Biso   1.000  C
  N58      1.0000 0.81350  0.10560  0.62550  Biso   1.000  N
  C119     1.0000 0.77650  0.10020  0.63370  Biso   1.000  C
  H78      1.0000 0.77110  0.08340  0.64550  Biso   1.000  H
  N59      1.0000 0.80200  0.11610  0.63620  Biso   1.000  N
  C120     1.0000 0.71710  0.11600  0.57710  Biso   1.000  C
  H79      1.0000 0.72590  0.13340  0.56880  Biso   1.000  H
  H80      1.0000 0.78310  0.07240  0.63430  Biso   1.000  H
  N60      1.0000 0.78800  0.12310  0.58980  Biso   1.000  N
  O41      1.0000 0.18761  0.35591  0.46934  Biso   1.000  O
  O42      1.0000 0.15170  0.39149  0.46879  Biso   1.000  O
  C121     1.0000 0.17559  0.38066  0.45927  Biso   1.000  C
  C122     1.0000 0.19177  0.39659  0.43550  Biso   1.000  C
  C123     1.0000 0.22272  0.39160  0.42820  Biso   1.000  C
  H81      1.0000 0.23300  0.37680  0.43940  Biso   1.000  H
  C124     1.0000 0.28800  0.41020  0.37690  Biso   1.000  C
  N61      1.0000 0.31350  0.39440  0.37450  Biso   1.000  N
  C125     1.0000 0.27650  0.39980  0.36630  Biso   1.000  C
  H82      1.0000 0.27110  0.41660  0.35450  Biso   1.000  H
  N62      1.0000 0.30200  0.38390  0.36380  Biso   1.000  N
  C126     1.0000 0.21710  0.38400  0.42290  Biso   1.000  C
  H83      1.0000 0.22590  0.36660  0.43120  Biso   1.000  H
  H84      1.0000 0.28310  0.42760  0.36570  Biso   1.000  H
  N63      1.0000 0.28800  0.37690  0.41020  Biso   1.000  N
  O43      1.0000 0.18761  0.85591  0.96934  Biso   1.000  O
  O44      1.0000 0.15170  0.89149  0.96879  Biso   1.000  O
  C127     1.0000 0.17559  0.88066  0.95927  Biso   1.000  C
  C128     1.0000 0.19177  0.89659  0.93550  Biso   1.000  C
  C129     1.0000 0.22272  0.89160  0.92820  Biso   1.000  C
  H85      1.0000 0.23300  0.87680  0.93940  Biso   1.000  H
  C130     1.0000 0.28800  0.91020  0.87690  Biso   1.000  C
  N64      1.0000 0.31350  0.89440  0.87450  Biso   1.000  N
  C131     1.0000 0.27650  0.89980  0.86630  Biso   1.000  C
  H86      1.0000 0.27110  0.91660  0.85450  Biso   1.000  H
  N65      1.0000 0.30200  0.88390  0.86380  Biso   1.000  N
  C132     1.0000 0.21710  0.88400  0.92290  Biso   1.000  C
  H87      1.0000 0.22590  0.86660  0.93120  Biso   1.000  H
  H88      1.0000 0.28310  0.92760  0.86570  Biso   1.000  H
  N66      1.0000 0.28800  0.87690  0.91020  Biso   1.000  N
  O45      1.0000 0.68761  0.35591  0.96934  Biso   1.000  O
  O46      1.0000 0.65170  0.39149  0.96879  Biso   1.000  O
  C133     1.0000 0.67559  0.38066  0.95927  Biso   1.000  C
  C134     1.0000 0.69177  0.39659  0.93550  Biso   1.000  C
  C135     1.0000 0.72272  0.39160  0.92820  Biso   1.000  C
  H89      1.0000 0.73300  0.37680  0.93940  Biso   1.000  H
  C136     1.0000 0.78800  0.41020  0.87690  Biso   1.000  C
  N67      1.0000 0.81350  0.39440  0.87450  Biso   1.000  N
  C137     1.0000 0.77650  0.39980  0.86630  Biso   1.000  C
  H90      1.0000 0.77110  0.41660  0.85450  Biso   1.000  H
  N68      1.0000 0.80200  0.38390  0.86380  Biso   1.000  N
  C138     1.0000 0.71710  0.38400  0.92290  Biso   1.000  C
  H91      1.0000 0.72590  0.36660  0.93120  Biso   1.000  H
  H92      1.0000 0.78310  0.42760  0.86570  Biso   1.000  H
  N69      1.0000 0.78800  0.37690  0.91020  Biso   1.000  N
  O47      1.0000 0.68761  0.85591  0.46934  Biso   1.000  O
  O48      1.0000 0.65170  0.89149  0.46879  Biso   1.000  O
  C139     1.0000 0.67559  0.88066  0.45927  Biso   1.000  C
  C140     1.0000 0.69177  0.89659  0.43550  Biso   1.000  C
  C141     1.0000 0.72272  0.89160  0.42820  Biso   1.000  C
  H93      1.0000 0.73300  0.87680  0.43940  Biso   1.000  H
  C142     1.0000 0.78800  0.91020  0.37690  Biso   1.000  C
  N70      1.0000 0.81350  0.89440  0.37450  Biso   1.000  N
  C143     1.0000 0.77650  0.89980  0.36630  Biso   1.000  C
  H94      1.0000 0.77110  0.91660  0.35450  Biso   1.000  H
  N71      1.0000 0.80200  0.88390  0.36380  Biso   1.000  N
  C144     1.0000 0.71710  0.88400  0.42290  Biso   1.000  C
  H95      1.0000 0.72590  0.86660  0.43120  Biso   1.000  H
  H96      1.0000 0.78310  0.92760  0.36570  Biso   1.000  H
  N72      1.0000 0.78800  0.87690  0.41020  Biso   1.000  N
  O49      1.0000 0.81239  0.35591  0.53066  Biso   1.000  O
  O50      1.0000 0.84830  0.39149  0.53121  Biso   1.000  O
  C145     1.0000 0.82441  0.38066  0.54073  Biso   1.000  C
  C146     1.0000 0.80823  0.39659  0.56450  Biso   1.000  C
  C147     1.0000 0.77728  0.39160  0.57180  Biso   1.000  C
  H97      1.0000 0.76700  0.37680  0.56060  Biso   1.000  H
  C148     1.0000 0.71200  0.41020  0.62310  Biso   1.000  C
  N73      1.0000 0.68650  0.39440  0.62550  Biso   1.000  N
  C149     1.0000 0.72350  0.39980  0.63370  Biso   1.000  C
  H98      1.0000 0.72890  0.41660  0.64550  Biso   1.000  H
  N74      1.0000 0.69800  0.38390  0.63620  Biso   1.000  N
  C150     1.0000 0.78290  0.38400  0.57710  Biso   1.000  C
  H99      1.0000 0.77410  0.36660  0.56880  Biso   1.000  H
  H100     1.0000 0.71690  0.42760  0.63430  Biso   1.000  H
  N75      1.0000 0.71200  0.37690  0.58980  Biso   1.000  N
  O51      1.0000 0.81239  0.85591  0.03066  Biso   1.000  O
  O52      1.0000 0.84830  0.89149  0.03121  Biso   1.000  O
  C151     1.0000 0.82441  0.88066  0.04073  Biso   1.000  C
  C152     1.0000 0.80823  0.89659  0.06450  Biso   1.000  C
  C153     1.0000 0.77728  0.89160  0.07180  Biso   1.000  C
  H101     1.0000 0.76700  0.87680  0.06060  Biso   1.000  H
  C154     1.0000 0.71200  0.91020  0.12310  Biso   1.000  C
  N76      1.0000 0.68650  0.89440  0.12550  Biso   1.000  N
  C155     1.0000 0.72350  0.89980  0.13370  Biso   1.000  C
  H102     1.0000 0.72890  0.91660  0.14550  Biso   1.000  H
  N77      1.0000 0.69800  0.88390  0.13620  Biso   1.000  N
  C156     1.0000 0.78290  0.88400  0.07710  Biso   1.000  C
  H103     1.0000 0.77410  0.86660  0.06880  Biso   1.000  H
  H104     1.0000 0.71690  0.92760  0.13430  Biso   1.000  H
  N78      1.0000 0.71200  0.87690  0.08980  Biso   1.000  N
  O53      1.0000 0.31239  0.35591  0.03066  Biso   1.000  O
  O54      1.0000 0.34830  0.39149  0.03121  Biso   1.000  O
  C157     1.0000 0.32441  0.38066  0.04073  Biso   1.000  C
  C158     1.0000 0.30823  0.39659  0.06450  Biso   1.000  C
  C159     1.0000 0.27728  0.39160  0.07180  Biso   1.000  C
  H105     1.0000 0.26700  0.37680  0.06060  Biso   1.000  H
  C160     1.0000 0.21200  0.41020  0.12310  Biso   1.000  C
  N79      1.0000 0.18650  0.39440  0.12550  Biso   1.000  N
  C161     1.0000 0.22350  0.39980  0.13370  Biso   1.000  C
  H106     1.0000 0.22890  0.41660  0.14550  Biso   1.000  H
  N80      1.0000 0.19800  0.38390  0.13620  Biso   1.000  N
  C162     1.0000 0.28290  0.38400  0.07710  Biso   1.000  C
  H107     1.0000 0.27410  0.36660  0.06880  Biso   1.000  H
  H108     1.0000 0.21690  0.42760  0.13430  Biso   1.000  H
  N81      1.0000 0.21200  0.37690  0.08980  Biso   1.000  N
  O55      1.0000 0.31239  0.85591  0.53066  Biso   1.000  O
  O56      1.0000 0.34830  0.89149  0.53121  Biso   1.000  O
  C163     1.0000 0.32441  0.88066  0.54073  Biso   1.000  C
  C164     1.0000 0.30823  0.89659  0.56450  Biso   1.000  C
  C165     1.0000 0.27728  0.89160  0.57180  Biso   1.000  C
  H109     1.0000 0.26700  0.87680  0.56060  Biso   1.000  H
  C166     1.0000 0.21200  0.91020  0.62310  Biso   1.000  C
  N82      1.0000 0.18650  0.89440  0.62550  Biso   1.000  N
  C167     1.0000 0.22350  0.89980  0.63370  Biso   1.000  C
  H110     1.0000 0.22890  0.91660  0.64550  Biso   1.000  H
  N83      1.0000 0.19800  0.88390  0.63620  Biso   1.000  N
  C168     1.0000 0.28290  0.88400  0.57710  Biso   1.000  C
  H111     1.0000 0.27410  0.86660  0.56880  Biso   1.000  H
  H112     1.0000 0.21690  0.92760  0.63430  Biso   1.000  H
  N84      1.0000 0.21200  0.87690  0.58980  Biso   1.000  N
  O57      1.0000 0.81239  0.64409  0.46934  Biso   1.000  O
  O58      1.0000 0.84830  0.60851  0.46879  Biso   1.000  O
  C169     1.0000 0.82441  0.61934  0.45927  Biso   1.000  C
  C170     1.0000 0.80823  0.60341  0.43550  Biso   1.000  C
  C171     1.0000 0.77728  0.60840  0.42820  Biso   1.000  C
  H113     1.0000 0.76700  0.62320  0.43940  Biso   1.000  H
  C172     1.0000 0.71200  0.58980  0.37690  Biso   1.000  C
  N85      1.0000 0.68650  0.60560  0.37450  Biso   1.000  N
  C173     1.0000 0.72350  0.60020  0.36630  Biso   1.000  C
  H114     1.0000 0.72890  0.58340  0.35450  Biso   1.000  H
  N86      1.0000 0.69800  0.61610  0.36380  Biso   1.000  N
  C174     1.0000 0.78290  0.61600  0.42290  Biso   1.000  C
  H115     1.0000 0.77410  0.63340  0.43120  Biso   1.000  H
  H116     1.0000 0.71690  0.57240  0.36570  Biso   1.000  H
  N87      1.0000 0.71200  0.62310  0.41020  Biso   1.000  N
  O59      1.0000 0.81239  0.14409  0.96934  Biso   1.000  O
  O60      1.0000 0.84830  0.10851  0.96879  Biso   1.000  O
  C175     1.0000 0.82441  0.11934  0.95927  Biso   1.000  C
  C176     1.0000 0.80823  0.10341  0.93550  Biso   1.000  C
  C177     1.0000 0.77728  0.10840  0.92820  Biso   1.000  C
  H117     1.0000 0.76700  0.12320  0.93940  Biso   1.000  H
  C178     1.0000 0.71200  0.08980  0.87690  Biso   1.000  C
  N88      1.0000 0.68650  0.10560  0.87450  Biso   1.000  N
  C179     1.0000 0.72350  0.10020  0.86630  Biso   1.000  C
  H118     1.0000 0.72890  0.08340  0.85450  Biso   1.000  H
  N89      1.0000 0.69800  0.11610  0.86380  Biso   1.000  N
  C180     1.0000 0.78290  0.11600  0.92290  Biso   1.000  C
  H119     1.0000 0.77410  0.13340  0.93120  Biso   1.000  H
  H120     1.0000 0.71690  0.07240  0.86570  Biso   1.000  H
  N90      1.0000 0.71200  0.12310  0.91020  Biso   1.000  N
  O61      1.0000 0.31239  0.64409  0.96934  Biso   1.000  O
  O62      1.0000 0.34830  0.60851  0.96879  Biso   1.000  O
  C181     1.0000 0.32441  0.61934  0.95927  Biso   1.000  C
  C182     1.0000 0.30823  0.60341  0.93550  Biso   1.000  C
  C183     1.0000 0.27728  0.60840  0.92820  Biso   1.000  C
  H121     1.0000 0.26700  0.62320  0.93940  Biso   1.000  H
  C184     1.0000 0.21200  0.58980  0.87690  Biso   1.000  C
  N91      1.0000 0.18650  0.60560  0.87450  Biso   1.000  N
  C185     1.0000 0.22350  0.60020  0.86630  Biso   1.000  C
  H122     1.0000 0.22890  0.58340  0.85450  Biso   1.000  H
  N92      1.0000 0.19800  0.61610  0.86380  Biso   1.000  N
  C186     1.0000 0.28290  0.61600  0.92290  Biso   1.000  C
  H123     1.0000 0.27410  0.63340  0.93120  Biso   1.000  H
  H124     1.0000 0.21690  0.57240  0.86570  Biso   1.000  H
  N93      1.0000 0.21200  0.62310  0.91020  Biso   1.000  N
  O63      1.0000 0.31239  0.14409  0.46934  Biso   1.000  O
  O64      1.0000 0.34830  0.10851  0.46879  Biso   1.000  O
  C187     1.0000 0.32441  0.11934  0.45927  Biso   1.000  C
  C188     1.0000 0.30823  0.10341  0.43550  Biso   1.000  C
  C189     1.0000 0.27728  0.10840  0.42820  Biso   1.000  C
  H125     1.0000 0.26700  0.12320  0.43940  Biso   1.000  H
  C190     1.0000 0.21200  0.08980  0.37690  Biso   1.000  C
  N94      1.0000 0.18650  0.10560  0.37450  Biso   1.000  N
  C191     1.0000 0.22350  0.10020  0.36630  Biso   1.000  C
  H126     1.0000 0.22890  0.08340  0.35450  Biso   1.000  H
  N95      1.0000 0.19800  0.11610  0.36380  Biso   1.000  N
  C192     1.0000 0.28290  0.11600  0.42290  Biso   1.000  C
  H127     1.0000 0.27410  0.13340  0.43120  Biso   1.000  H
  H128     1.0000 0.21690  0.07240  0.36570  Biso   1.000  H
  N96      1.0000 0.21200  0.12310  0.41020  Biso   1.000  N
  O65      1.0000 0.53066  0.18761  0.64409  Biso   1.000  O
  O66      1.0000 0.53121  0.15170  0.60851  Biso   1.000  O
  C193     1.0000 0.54073  0.17559  0.61934  Biso   1.000  C
  C194     1.0000 0.56450  0.19177  0.60341  Biso   1.000  C
  C195     1.0000 0.57180  0.22272  0.60840  Biso   1.000  C
  H129     1.0000 0.56060  0.23300  0.62320  Biso   1.000  H
  C196     1.0000 0.62310  0.28800  0.58980  Biso   1.000  C
  N97      1.0000 0.62550  0.31350  0.60560  Biso   1.000  N
  C197     1.0000 0.63370  0.27650  0.60020  Biso   1.000  C
  H130     1.0000 0.64550  0.27110  0.58340  Biso   1.000  H
  N98      1.0000 0.63620  0.30200  0.61610  Biso   1.000  N
  C198     1.0000 0.57710  0.21710  0.61600  Biso   1.000  C
  H131     1.0000 0.56880  0.22590  0.63340  Biso   1.000  H
  H132     1.0000 0.63430  0.28310  0.57240  Biso   1.000  H
  N99      1.0000 0.58980  0.28800  0.62310  Biso   1.000  N
  O67      1.0000 0.53066  0.68761  0.14409  Biso   1.000  O
  O68      1.0000 0.53121  0.65170  0.10851  Biso   1.000  O
  C199     1.0000 0.54073  0.67559  0.11934  Biso   1.000  C
  C200     1.0000 0.56450  0.69177  0.10341  Biso   1.000  C
  C201     1.0000 0.57180  0.72272  0.10840  Biso   1.000  C
  H133     1.0000 0.56060  0.73300  0.12320  Biso   1.000  H
  C202     1.0000 0.62310  0.78800  0.08980  Biso   1.000  C
  N100     1.0000 0.62550  0.81350  0.10560  Biso   1.000  N
  C203     1.0000 0.63370  0.77650  0.10020  Biso   1.000  C
  H134     1.0000 0.64550  0.77110  0.08340  Biso   1.000  H
  N101     1.0000 0.63620  0.80200  0.11610  Biso   1.000  N
  C204     1.0000 0.57710  0.71710  0.11600  Biso   1.000  C
  H135     1.0000 0.56880  0.72590  0.13340  Biso   1.000  H
  H136     1.0000 0.63430  0.78310  0.07240  Biso   1.000  H
  N102     1.0000 0.58980  0.78800  0.12310  Biso   1.000  N
  O69      1.0000 0.03066  0.18761  0.14409  Biso   1.000  O
  O70      1.0000 0.03121  0.15170  0.10851  Biso   1.000  O
  C205     1.0000 0.04073  0.17559  0.11934  Biso   1.000  C
  C206     1.0000 0.06450  0.19177  0.10341  Biso   1.000  C
  C207     1.0000 0.07180  0.22272  0.10840  Biso   1.000  C
  H137     1.0000 0.06060  0.23300  0.12320  Biso   1.000  H
  C208     1.0000 0.12310  0.28800  0.08980  Biso   1.000  C
  N103     1.0000 0.12550  0.31350  0.10560  Biso   1.000  N
  C209     1.0000 0.13370  0.27650  0.10020  Biso   1.000  C
  H138     1.0000 0.14550  0.27110  0.08340  Biso   1.000  H
  N104     1.0000 0.13620  0.30200  0.11610  Biso   1.000  N
  C210     1.0000 0.07710  0.21710  0.11600  Biso   1.000  C
  H139     1.0000 0.06880  0.22590  0.13340  Biso   1.000  H
  H140     1.0000 0.13430  0.28310  0.07240  Biso   1.000  H
  N105     1.0000 0.08980  0.28800  0.12310  Biso   1.000  N
  O71      1.0000 0.03066  0.68761  0.64409  Biso   1.000  O
  O72      1.0000 0.03121  0.65170  0.60851  Biso   1.000  O
  C211     1.0000 0.04073  0.67559  0.61934  Biso   1.000  C
  C212     1.0000 0.06450  0.69177  0.60341  Biso   1.000  C
  C213     1.0000 0.07180  0.72272  0.60840  Biso   1.000  C
  H141     1.0000 0.06060  0.73300  0.62320  Biso   1.000  H
  C214     1.0000 0.12310  0.78800  0.58980  Biso   1.000  C
  N106     1.0000 0.12550  0.81350  0.60560  Biso   1.000  N
  C215     1.0000 0.13370  0.77650  0.60020  Biso   1.000  C
  H142     1.0000 0.14550  0.77110  0.58340  Biso   1.000  H
  N107     1.0000 0.13620  0.80200  0.61610  Biso   1.000  N
  C216     1.0000 0.07710  0.71710  0.61600  Biso   1.000  C
  H143     1.0000 0.06880  0.72590  0.63340  Biso   1.000  H
  H144     1.0000 0.13430  0.78310  0.57240  Biso   1.000  H
  N108     1.0000 0.08980  0.78800  0.62310  Biso   1.000  N
  O73      1.0000 0.46934  0.18761  0.35591  Biso   1.000  O
  O74      1.0000 0.46879  0.15170  0.39149  Biso   1.000  O
  C217     1.0000 0.45927  0.17559  0.38066  Biso   1.000  C
  C218     1.0000 0.43550  0.19177  0.39659  Biso   1.000  C
  C219     1.0000 0.42820  0.22272  0.39160  Biso   1.000  C
  H145     1.0000 0.43940  0.23300  0.37680  Biso   1.000  H
  C220     1.0000 0.37690  0.28800  0.41020  Biso   1.000  C
  N109     1.0000 0.37450  0.31350  0.39440  Biso   1.000  N
  C221     1.0000 0.36630  0.27650  0.39980  Biso   1.000  C
  H146     1.0000 0.35450  0.27110  0.41660  Biso   1.000  H
  N110     1.0000 0.36380  0.30200  0.38390  Biso   1.000  N
  C222     1.0000 0.42290  0.21710  0.38400  Biso   1.000  C
  H147     1.0000 0.43120  0.22590  0.36660  Biso   1.000  H
  H148     1.0000 0.36570  0.28310  0.42760  Biso   1.000  H
  N111     1.0000 0.41020  0.28800  0.37690  Biso   1.000  N
  O75      1.0000 0.46934  0.68761  0.85591  Biso   1.000  O
  O76      1.0000 0.46879  0.65170  0.89149  Biso   1.000  O
  C223     1.0000 0.45927  0.67559  0.88066  Biso   1.000  C
  C224     1.0000 0.43550  0.69177  0.89659  Biso   1.000  C
  C225     1.0000 0.42820  0.72272  0.89160  Biso   1.000  C
  H149     1.0000 0.43940  0.73300  0.87680  Biso   1.000  H
  C226     1.0000 0.37690  0.78800  0.91020  Biso   1.000  C
  N112     1.0000 0.37450  0.81350  0.89440  Biso   1.000  N
  C227     1.0000 0.36630  0.77650  0.89980  Biso   1.000  C
  H150     1.0000 0.35450  0.77110  0.91660  Biso   1.000  H
  N113     1.0000 0.36380  0.80200  0.88390  Biso   1.000  N
  C228     1.0000 0.42290  0.71710  0.88400  Biso   1.000  C
  H151     1.0000 0.43120  0.72590  0.86660  Biso   1.000  H
  H152     1.0000 0.36570  0.78310  0.92760  Biso   1.000  H
  N114     1.0000 0.41020  0.78800  0.87690  Biso   1.000  N
  O77      1.0000 0.96934  0.18761  0.85591  Biso   1.000  O
  O78      1.0000 0.96879  0.15170  0.89149  Biso   1.000  O
  C229     1.0000 0.95927  0.17559  0.88066  Biso   1.000  C
  C230     1.0000 0.93550  0.19177  0.89659  Biso   1.000  C
  C231     1.0000 0.92820  0.22272  0.89160  Biso   1.000  C
  H153     1.0000 0.93940  0.23300  0.87680  Biso   1.000  H
  C232     1.0000 0.87690  0.28800  0.91020  Biso   1.000  C
  N115     1.0000 0.87450  0.31350  0.89440  Biso   1.000  N
  C233     1.0000 0.86630  0.27650  0.89980  Biso   1.000  C
  H154     1.0000 0.85450  0.27110  0.91660  Biso   1.000  H
  N116     1.0000 0.86380  0.30200  0.88390  Biso   1.000  N
  C234     1.0000 0.92290  0.21710  0.88400  Biso   1.000  C
  H155     1.0000 0.93120  0.22590  0.86660  Biso   1.000  H
  H156     1.0000 0.86570  0.28310  0.92760  Biso   1.000  H
  N117     1.0000 0.91020  0.28800  0.87690  Biso   1.000  N
  O79      1.0000 0.96934  0.68761  0.35591  Biso   1.000  O
  O80      1.0000 0.96879  0.65170  0.39149  Biso   1.000  O
  C235     1.0000 0.95927  0.67559  0.38066  Biso   1.000  C
  C236     1.0000 0.93550  0.69177  0.39659  Biso   1.000  C
  C237     1.0000 0.92820  0.72272  0.39160  Biso   1.000  C
  H157     1.0000 0.93940  0.73300  0.37680  Biso   1.000  H
  C238     1.0000 0.87690  0.78800  0.41020  Biso   1.000  C
  N118     1.0000 0.87450  0.81350  0.39440  Biso   1.000  N
  C239     1.0000 0.86630  0.77650  0.39980  Biso   1.000  C
  H158     1.0000 0.85450  0.77110  0.41660  Biso   1.000  H
  N119     1.0000 0.86380  0.80200  0.38390  Biso   1.000  N
  C240     1.0000 0.92290  0.71710  0.38400  Biso   1.000  C
  H159     1.0000 0.93120  0.72590  0.36660  Biso   1.000  H
  H160     1.0000 0.86570  0.78310  0.42760  Biso   1.000  H
  N120     1.0000 0.91020  0.78800  0.37690  Biso   1.000  N
  O81      1.0000 0.53066  0.81239  0.35591  Biso   1.000  O
  O82      1.0000 0.53121  0.84830  0.39149  Biso   1.000  O
  C241     1.0000 0.54073  0.82441  0.38066  Biso   1.000  C
  C242     1.0000 0.56450  0.80823  0.39659  Biso   1.000  C
  C243     1.0000 0.57180  0.77728  0.39160  Biso   1.000  C
  H161     1.0000 0.56060  0.76700  0.37680  Biso   1.000  H
  C244     1.0000 0.62310  0.71200  0.41020  Biso   1.000  C
  N121     1.0000 0.62550  0.68650  0.39440  Biso   1.000  N
  C245     1.0000 0.63370  0.72350  0.39980  Biso   1.000  C
  H162     1.0000 0.64550  0.72890  0.41660  Biso   1.000  H
  N122     1.0000 0.63620  0.69800  0.38390  Biso   1.000  N
  C246     1.0000 0.57710  0.78290  0.38400  Biso   1.000  C
  H163     1.0000 0.56880  0.77410  0.36660  Biso   1.000  H
  H164     1.0000 0.63430  0.71690  0.42760  Biso   1.000  H
  N123     1.0000 0.58980  0.71200  0.37690  Biso   1.000  N
  O83      1.0000 0.53066  0.31239  0.85591  Biso   1.000  O
  O84      1.0000 0.53121  0.34830  0.89149  Biso   1.000  O
  C247     1.0000 0.54073  0.32441  0.88066  Biso   1.000  C
  C248     1.0000 0.56450  0.30823  0.89659  Biso   1.000  C
  C249     1.0000 0.57180  0.27728  0.89160  Biso   1.000  C
  H165     1.0000 0.56060  0.26700  0.87680  Biso   1.000  H
  C250     1.0000 0.62310  0.21200  0.91020  Biso   1.000  C
  N124     1.0000 0.62550  0.18650  0.89440  Biso   1.000  N
  C251     1.0000 0.63370  0.22350  0.89980  Biso   1.000  C
  H166     1.0000 0.64550  0.22890  0.91660  Biso   1.000  H
  N125     1.0000 0.63620  0.19800  0.88390  Biso   1.000  N
  C252     1.0000 0.57710  0.28290  0.88400  Biso   1.000  C
  H167     1.0000 0.56880  0.27410  0.86660  Biso   1.000  H
  H168     1.0000 0.63430  0.21690  0.92760  Biso   1.000  H
  N126     1.0000 0.58980  0.21200  0.87690  Biso   1.000  N
  O85      1.0000 0.03066  0.81239  0.85591  Biso   1.000  O
  O86      1.0000 0.03121  0.84830  0.89149  Biso   1.000  O
  C253     1.0000 0.04073  0.82441  0.88066  Biso   1.000  C
  C254     1.0000 0.06450  0.80823  0.89659  Biso   1.000  C
  C255     1.0000 0.07180  0.77728  0.89160  Biso   1.000  C
  H169     1.0000 0.06060  0.76700  0.87680  Biso   1.000  H
  C256     1.0000 0.12310  0.71200  0.91020  Biso   1.000  C
  N127     1.0000 0.12550  0.68650  0.89440  Biso   1.000  N
  C257     1.0000 0.13370  0.72350  0.89980  Biso   1.000  C
  H170     1.0000 0.14550  0.72890  0.91660  Biso   1.000  H
  N128     1.0000 0.13620  0.69800  0.88390  Biso   1.000  N
  C258     1.0000 0.07710  0.78290  0.88400  Biso   1.000  C
  H171     1.0000 0.06880  0.77410  0.86660  Biso   1.000  H
  H172     1.0000 0.13430  0.71690  0.92760  Biso   1.000  H
  N129     1.0000 0.08980  0.71200  0.87690  Biso   1.000  N
  O87      1.0000 0.03066  0.31239  0.35591  Biso   1.000  O
  O88      1.0000 0.03121  0.34830  0.39149  Biso   1.000  O
  C259     1.0000 0.04073  0.32441  0.38066  Biso   1.000  C
  C260     1.0000 0.06450  0.30823  0.39659  Biso   1.000  C
  C261     1.0000 0.07180  0.27728  0.39160  Biso   1.000  C
  H173     1.0000 0.06060  0.26700  0.37680  Biso   1.000  H
  C262     1.0000 0.12310  0.21200  0.41020  Biso   1.000  C
  N130     1.0000 0.12550  0.18650  0.39440  Biso   1.000  N
  C263     1.0000 0.13370  0.22350  0.39980  Biso   1.000  C
  H174     1.0000 0.14550  0.22890  0.41660  Biso   1.000  H
  N131     1.0000 0.13620  0.19800  0.38390  Biso   1.000  N
  C264     1.0000 0.07710  0.28290  0.38400  Biso   1.000  C
  H175     1.0000 0.06880  0.27410  0.36660  Biso   1.000  H
  H176     1.0000 0.13430  0.21690  0.42760  Biso   1.000  H
  N132     1.0000 0.08980  0.21200  0.37690  Biso   1.000  N
  O89      1.0000 0.46934  0.81239  0.64409  Biso   1.000  O
  O90      1.0000 0.46879  0.84830  0.60851  Biso   1.000  O
  C265     1.0000 0.45927  0.82441  0.61934  Biso   1.000  C
  C266     1.0000 0.43550  0.80823  0.60341  Biso   1.000  C
  C267     1.0000 0.42820  0.77728  0.60840  Biso   1.000  C
  H177     1.0000 0.43940  0.76700  0.62320  Biso   1.000  H
  C268     1.0000 0.37690  0.71200  0.58980  Biso   1.000  C
  N133     1.0000 0.37450  0.68650  0.60560  Biso   1.000  N
  C269     1.0000 0.36630  0.72350  0.60020  Biso   1.000  C
  H178     1.0000 0.35450  0.72890  0.58340  Biso   1.000  H
  N134     1.0000 0.36380  0.69800  0.61610  Biso   1.000  N
  C270     1.0000 0.42290  0.78290  0.61600  Biso   1.000  C
  H179     1.0000 0.43120  0.77410  0.63340  Biso   1.000  H
  H180     1.0000 0.36570  0.71690  0.57240  Biso   1.000  H
  N135     1.0000 0.41020  0.71200  0.62310  Biso   1.000  N
  O91      1.0000 0.46934  0.31239  0.14409  Biso   1.000  O
  O92      1.0000 0.46879  0.34830  0.10851  Biso   1.000  O
  C271     1.0000 0.45927  0.32441  0.11934  Biso   1.000  C
  C272     1.0000 0.43550  0.30823  0.10341  Biso   1.000  C
  C273     1.0000 0.42820  0.27728  0.10840  Biso   1.000  C
  H181     1.0000 0.43940  0.26700  0.12320  Biso   1.000  H
  C274     1.0000 0.37690  0.21200  0.08980  Biso   1.000  C
  N136     1.0000 0.37450  0.18650  0.10560  Biso   1.000  N
  C275     1.0000 0.36630  0.22350  0.10020  Biso   1.000  C
  H182     1.0000 0.35450  0.22890  0.08340  Biso   1.000  H
  N137     1.0000 0.36380  0.19800  0.11610  Biso   1.000  N
  C276     1.0000 0.42290  0.28290  0.11600  Biso   1.000  C
  H183     1.0000 0.43120  0.27410  0.13340  Biso   1.000  H
  H184     1.0000 0.36570  0.21690  0.07240  Biso   1.000  H
  N138     1.0000 0.41020  0.21200  0.12310  Biso   1.000  N
  O93      1.0000 0.96934  0.81239  0.14409  Biso   1.000  O
  O94      1.0000 0.96879  0.84830  0.10851  Biso   1.000  O
  C277     1.0000 0.95927  0.82441  0.11934  Biso   1.000  C
  C278     1.0000 0.93550  0.80823  0.10341  Biso   1.000  C
  C279     1.0000 0.92820  0.77728  0.10840  Biso   1.000  C
  H185     1.0000 0.93940  0.76700  0.12320  Biso   1.000  H
  C280     1.0000 0.87690  0.71200  0.08980  Biso   1.000  C
  N139     1.0000 0.87450  0.68650  0.10560  Biso   1.000  N
  C281     1.0000 0.86630  0.72350  0.10020  Biso   1.000  C
  H186     1.0000 0.85450  0.72890  0.08340  Biso   1.000  H
  N140     1.0000 0.86380  0.69800  0.11610  Biso   1.000  N
  C282     1.0000 0.92290  0.78290  0.11600  Biso   1.000  C
  H187     1.0000 0.93120  0.77410  0.13340  Biso   1.000  H
  H188     1.0000 0.86570  0.71690  0.07240  Biso   1.000  H
  N141     1.0000 0.91020  0.71200  0.12310  Biso   1.000  N
  O95      1.0000 0.96934  0.31239  0.64409  Biso   1.000  O
  O96      1.0000 0.96879  0.34830  0.60851  Biso   1.000  O
  C283     1.0000 0.95927  0.32441  0.61934  Biso   1.000  C
  C284     1.0000 0.93550  0.30823  0.60341  Biso   1.000  C
  C285     1.0000 0.92820  0.27728  0.60840  Biso   1.000  C
  H189     1.0000 0.93940  0.26700  0.62320  Biso   1.000  H
  C286     1.0000 0.87690  0.21200  0.58980  Biso   1.000  C
  N142     1.0000 0.87450  0.18650  0.60560  Biso   1.000  N
  C287     1.0000 0.86630  0.22350  0.60020  Biso   1.000  C
  H190     1.0000 0.85450  0.22890  0.58340  Biso   1.000  H
  N143     1.0000 0.86380  0.19800  0.61610  Biso   1.000  N
  C288     1.0000 0.92290  0.28290  0.61600  Biso   1.000  C
  H191     1.0000 0.93120  0.27410  0.63340  Biso   1.000  H
  H192     1.0000 0.86570  0.21690  0.57240  Biso   1.000  H
  N144     1.0000 0.91020  0.21200  0.62310  Biso   1.000  N
  O97      1.0000 0.53066  0.64409  0.81239  Biso   1.000  O
  O98      1.0000 0.53121  0.60851  0.84830  Biso   1.000  O
  C289     1.0000 0.54073  0.61934  0.82441  Biso   1.000  C
  C290     1.0000 0.56450  0.60341  0.80823  Biso   1.000  C
  C291     1.0000 0.57180  0.60840  0.77728  Biso   1.000  C
  H193     1.0000 0.56060  0.62320  0.76700  Biso   1.000  H
  C292     1.0000 0.62310  0.58980  0.71200  Biso   1.000  C
  N145     1.0000 0.62550  0.60560  0.68650  Biso   1.000  N
  C293     1.0000 0.63370  0.60020  0.72350  Biso   1.000  C
  H194     1.0000 0.64550  0.58340  0.72890  Biso   1.000  H
  N146     1.0000 0.63620  0.61610  0.69800  Biso   1.000  N
  C294     1.0000 0.57710  0.61600  0.78290  Biso   1.000  C
  H195     1.0000 0.56880  0.63340  0.77410  Biso   1.000  H
  H196     1.0000 0.63430  0.57240  0.71690  Biso   1.000  H
  N147     1.0000 0.58980  0.62310  0.71200  Biso   1.000  N
  O99      1.0000 0.53066  0.14409  0.31239  Biso   1.000  O
  O100     1.0000 0.53121  0.10851  0.34830  Biso   1.000  O
  C295     1.0000 0.54073  0.11934  0.32441  Biso   1.000  C
  C296     1.0000 0.56450  0.10341  0.30823  Biso   1.000  C
  C297     1.0000 0.57180  0.10840  0.27728  Biso   1.000  C
  H197     1.0000 0.56060  0.12320  0.26700  Biso   1.000  H
  C298     1.0000 0.62310  0.08980  0.21200  Biso   1.000  C
  N148     1.0000 0.62550  0.10560  0.18650  Biso   1.000  N
  C299     1.0000 0.63370  0.10020  0.22350  Biso   1.000  C
  H198     1.0000 0.64550  0.08340  0.22890  Biso   1.000  H
  N149     1.0000 0.63620  0.11610  0.19800  Biso   1.000  N
  C300     1.0000 0.57710  0.11600  0.28290  Biso   1.000  C
  H199     1.0000 0.56880  0.13340  0.27410  Biso   1.000  H
  H200     1.0000 0.63430  0.07240  0.21690  Biso   1.000  H
  N150     1.0000 0.58980  0.12310  0.21200  Biso   1.000  N
  O101     1.0000 0.03066  0.64409  0.31239  Biso   1.000  O
  O102     1.0000 0.03121  0.60851  0.34830  Biso   1.000  O
  C301     1.0000 0.04073  0.61934  0.32441  Biso   1.000  C
  C302     1.0000 0.06450  0.60341  0.30823  Biso   1.000  C
  C303     1.0000 0.07180  0.60840  0.27728  Biso   1.000  C
  H201     1.0000 0.06060  0.62320  0.26700  Biso   1.000  H
  C304     1.0000 0.12310  0.58980  0.21200  Biso   1.000  C
  N151     1.0000 0.12550  0.60560  0.18650  Biso   1.000  N
  C305     1.0000 0.13370  0.60020  0.22350  Biso   1.000  C
  H202     1.0000 0.14550  0.58340  0.22890  Biso   1.000  H
  N152     1.0000 0.13620  0.61610  0.19800  Biso   1.000  N
  C306     1.0000 0.07710  0.61600  0.28290  Biso   1.000  C
  H203     1.0000 0.06880  0.63340  0.27410  Biso   1.000  H
  H204     1.0000 0.13430  0.57240  0.21690  Biso   1.000  H
  N153     1.0000 0.08980  0.62310  0.21200  Biso   1.000  N
  O103     1.0000 0.03066  0.14409  0.81239  Biso   1.000  O
  O104     1.0000 0.03121  0.10851  0.84830  Biso   1.000  O
  C307     1.0000 0.04073  0.11934  0.82441  Biso   1.000  C
  C308     1.0000 0.06450  0.10341  0.80823  Biso   1.000  C
  C309     1.0000 0.07180  0.10840  0.77728  Biso   1.000  C
  H205     1.0000 0.06060  0.12320  0.76700  Biso   1.000  H
  C310     1.0000 0.12310  0.08980  0.71200  Biso   1.000  C
  N154     1.0000 0.12550  0.10560  0.68650  Biso   1.000  N
  C311     1.0000 0.13370  0.10020  0.72350  Biso   1.000  C
  H206     1.0000 0.14550  0.08340  0.72890  Biso   1.000  H
  N155     1.0000 0.13620  0.11610  0.69800  Biso   1.000  N
  C312     1.0000 0.07710  0.11600  0.78290  Biso   1.000  C
  H207     1.0000 0.06880  0.13340  0.77410  Biso   1.000  H
  H208     1.0000 0.13430  0.07240  0.71690  Biso   1.000  H
  N156     1.0000 0.08980  0.12310  0.71200  Biso   1.000  N
  O105     1.0000 0.46934  0.35591  0.81239  Biso   1.000  O
  O106     1.0000 0.46879  0.39149  0.84830  Biso   1.000  O
  C313     1.0000 0.45927  0.38066  0.82441  Biso   1.000  C
  C314     1.0000 0.43550  0.39659  0.80823  Biso   1.000  C
  C315     1.0000 0.42820  0.39160  0.77728  Biso   1.000  C
  H209     1.0000 0.43940  0.37680  0.76700  Biso   1.000  H
  C316     1.0000 0.37690  0.41020  0.71200  Biso   1.000  C
  N157     1.0000 0.37450  0.39440  0.68650  Biso   1.000  N
  C317     1.0000 0.36630  0.39980  0.72350  Biso   1.000  C
  H210     1.0000 0.35450  0.41660  0.72890  Biso   1.000  H
  N158     1.0000 0.36380  0.38390  0.69800  Biso   1.000  N
  C318     1.0000 0.42290  0.38400  0.78290  Biso   1.000  C
  H211     1.0000 0.43120  0.36660  0.77410  Biso   1.000  H
  H212     1.0000 0.36570  0.42760  0.71690  Biso   1.000  H
  N159     1.0000 0.41020  0.37690  0.71200  Biso   1.000  N
  O107     1.0000 0.46934  0.85591  0.31239  Biso   1.000  O
  O108     1.0000 0.46879  0.89149  0.34830  Biso   1.000  O
  C319     1.0000 0.45927  0.88066  0.32441  Biso   1.000  C
  C320     1.0000 0.43550  0.89659  0.30823  Biso   1.000  C
  C321     1.0000 0.42820  0.89160  0.27728  Biso   1.000  C
  H213     1.0000 0.43940  0.87680  0.26700  Biso   1.000  H
  C322     1.0000 0.37690  0.91020  0.21200  Biso   1.000  C
  N160     1.0000 0.37450  0.89440  0.18650  Biso   1.000  N
  C323     1.0000 0.36630  0.89980  0.22350  Biso   1.000  C
  H214     1.0000 0.35450  0.91660  0.22890  Biso   1.000  H
  N161     1.0000 0.36380  0.88390  0.19800  Biso   1.000  N
  C324     1.0000 0.42290  0.88400  0.28290  Biso   1.000  C
  H215     1.0000 0.43120  0.86660  0.27410  Biso   1.000  H
  H216     1.0000 0.36570  0.92760  0.21690  Biso   1.000  H
  N162     1.0000 0.41020  0.87690  0.21200  Biso   1.000  N
  O109     1.0000 0.96934  0.35591  0.31239  Biso   1.000  O
  O110     1.0000 0.96879  0.39149  0.34830  Biso   1.000  O
  C325     1.0000 0.95927  0.38066  0.32441  Biso   1.000  C
  C326     1.0000 0.93550  0.39659  0.30823  Biso   1.000  C
  C327     1.0000 0.92820  0.39160  0.27728  Biso   1.000  C
  H217     1.0000 0.93940  0.37680  0.26700  Biso   1.000  H
  C328     1.0000 0.87690  0.41020  0.21200  Biso   1.000  C
  N163     1.0000 0.87450  0.39440  0.18650  Biso   1.000  N
  C329     1.0000 0.86630  0.39980  0.22350  Biso   1.000  C
  H218     1.0000 0.85450  0.41660  0.22890  Biso   1.000  H
  N164     1.0000 0.86380  0.38390  0.19800  Biso   1.000  N
  C330     1.0000 0.92290  0.38400  0.28290  Biso   1.000  C
  H219     1.0000 0.93120  0.36660  0.27410  Biso   1.000  H
  H220     1.0000 0.86570  0.42760  0.21690  Biso   1.000  H
  N165     1.0000 0.91020  0.37690  0.21200  Biso   1.000  N
  O111     1.0000 0.96934  0.85591  0.81239  Biso   1.000  O
  O112     1.0000 0.96879  0.89149  0.84830  Biso   1.000  O
  C331     1.0000 0.95927  0.88066  0.82441  Biso   1.000  C
  C332     1.0000 0.93550  0.89659  0.80823  Biso   1.000  C
  C333     1.0000 0.92820  0.89160  0.77728  Biso   1.000  C
  H221     1.0000 0.93940  0.87680  0.76700  Biso   1.000  H
  C334     1.0000 0.87690  0.91020  0.71200  Biso   1.000  C
  N166     1.0000 0.87450  0.89440  0.68650  Biso   1.000  N
  C335     1.0000 0.86630  0.89980  0.72350  Biso   1.000  C
  H222     1.0000 0.85450  0.91660  0.72890  Biso   1.000  H
  N167     1.0000 0.86380  0.88390  0.69800  Biso   1.000  N
  C336     1.0000 0.92290  0.88400  0.78290  Biso   1.000  C
  H223     1.0000 0.93120  0.86660  0.77410  Biso   1.000  H
  H224     1.0000 0.86570  0.92760  0.71690  Biso   1.000  H
  N168     1.0000 0.91020  0.87690  0.71200  Biso   1.000  N
  O113     1.0000 0.53066  0.35591  0.18761  Biso   1.000  O
  O114     1.0000 0.53121  0.39149  0.15170  Biso   1.000  O
  C337     1.0000 0.54073  0.38066  0.17559  Biso   1.000  C
  C338     1.0000 0.56450  0.39659  0.19177  Biso   1.000  C
  C339     1.0000 0.57180  0.39160  0.22272  Biso   1.000  C
  H225     1.0000 0.56060  0.37680  0.23300  Biso   1.000  H
  C340     1.0000 0.62310  0.41020  0.28800  Biso   1.000  C
  N169     1.0000 0.62550  0.39440  0.31350  Biso   1.000  N
  C341     1.0000 0.63370  0.39980  0.27650  Biso   1.000  C
  H226     1.0000 0.64550  0.41660  0.27110  Biso   1.000  H
  N170     1.0000 0.63620  0.38390  0.30200  Biso   1.000  N
  C342     1.0000 0.57710  0.38400  0.21710  Biso   1.000  C
  H227     1.0000 0.56880  0.36660  0.22590  Biso   1.000  H
  H228     1.0000 0.63430  0.42760  0.28310  Biso   1.000  H
  N171     1.0000 0.58980  0.37690  0.28800  Biso   1.000  N
  O115     1.0000 0.53066  0.85591  0.68761  Biso   1.000  O
  O116     1.0000 0.53121  0.89149  0.65170  Biso   1.000  O
  C343     1.0000 0.54073  0.88066  0.67559  Biso   1.000  C
  C344     1.0000 0.56450  0.89659  0.69177  Biso   1.000  C
  C345     1.0000 0.57180  0.89160  0.72272  Biso   1.000  C
  H229     1.0000 0.56060  0.87680  0.73300  Biso   1.000  H
  C346     1.0000 0.62310  0.91020  0.78800  Biso   1.000  C
  N172     1.0000 0.62550  0.89440  0.81350  Biso   1.000  N
  C347     1.0000 0.63370  0.89980  0.77650  Biso   1.000  C
  H230     1.0000 0.64550  0.91660  0.77110  Biso   1.000  H
  N173     1.0000 0.63620  0.88390  0.80200  Biso   1.000  N
  C348     1.0000 0.57710  0.88400  0.71710  Biso   1.000  C
  H231     1.0000 0.56880  0.86660  0.72590  Biso   1.000  H
  H232     1.0000 0.63430  0.92760  0.78310  Biso   1.000  H
  N174     1.0000 0.58980  0.87690  0.78800  Biso   1.000  N
  O117     1.0000 0.03066  0.35591  0.68761  Biso   1.000  O
  O118     1.0000 0.03121  0.39149  0.65170  Biso   1.000  O
  C349     1.0000 0.04073  0.38066  0.67559  Biso   1.000  C
  C350     1.0000 0.06450  0.39659  0.69177  Biso   1.000  C
  C351     1.0000 0.07180  0.39160  0.72272  Biso   1.000  C
  H233     1.0000 0.06060  0.37680  0.73300  Biso   1.000  H
  C352     1.0000 0.12310  0.41020  0.78800  Biso   1.000  C
  N175     1.0000 0.12550  0.39440  0.81350  Biso   1.000  N
  C353     1.0000 0.13370  0.39980  0.77650  Biso   1.000  C
  H234     1.0000 0.14550  0.41660  0.77110  Biso   1.000  H
  N176     1.0000 0.13620  0.38390  0.80200  Biso   1.000  N
  C354     1.0000 0.07710  0.38400  0.71710  Biso   1.000  C
  H235     1.0000 0.06880  0.36660  0.72590  Biso   1.000  H
  H236     1.0000 0.13430  0.42760  0.78310  Biso   1.000  H
  N177     1.0000 0.08980  0.37690  0.78800  Biso   1.000  N
  O119     1.0000 0.03066  0.85591  0.18761  Biso   1.000  O
  O120     1.0000 0.03121  0.89149  0.15170  Biso   1.000  O
  C355     1.0000 0.04073  0.88066  0.17559  Biso   1.000  C
  C356     1.0000 0.06450  0.89659  0.19177  Biso   1.000  C
  C357     1.0000 0.07180  0.89160  0.22272  Biso   1.000  C
  H237     1.0000 0.06060  0.87680  0.23300  Biso   1.000  H
  C358     1.0000 0.12310  0.91020  0.28800  Biso   1.000  C
  N178     1.0000 0.12550  0.89440  0.31350  Biso   1.000  N
  C359     1.0000 0.13370  0.89980  0.27650  Biso   1.000  C
  H238     1.0000 0.14550  0.91660  0.27110  Biso   1.000  H
  N179     1.0000 0.13620  0.88390  0.30200  Biso   1.000  N
  C360     1.0000 0.07710  0.88400  0.21710  Biso   1.000  C
  H239     1.0000 0.06880  0.86660  0.22590  Biso   1.000  H
  H240     1.0000 0.13430  0.92760  0.28310  Biso   1.000  H
  N180     1.0000 0.08980  0.87690  0.28800  Biso   1.000  N
  O121     1.0000 0.46934  0.64409  0.18761  Biso   1.000  O
  O122     1.0000 0.46879  0.60851  0.15170  Biso   1.000  O
  C361     1.0000 0.45927  0.61934  0.17559  Biso   1.000  C
  C362     1.0000 0.43550  0.60341  0.19177  Biso   1.000  C
  C363     1.0000 0.42820  0.60840  0.22272  Biso   1.000  C
  H241     1.0000 0.43940  0.62320  0.23300  Biso   1.000  H
  C364     1.0000 0.37690  0.58980  0.28800  Biso   1.000  C
  N181     1.0000 0.37450  0.60560  0.31350  Biso   1.000  N
  C365     1.0000 0.36630  0.60020  0.27650  Biso   1.000  C
  H242     1.0000 0.35450  0.58340  0.27110  Biso   1.000  H
  N182     1.0000 0.36380  0.61610  0.30200  Biso   1.000  N
  C366     1.0000 0.42290  0.61600  0.21710  Biso   1.000  C
  H243     1.0000 0.43120  0.63340  0.22590  Biso   1.000  H
  H244     1.0000 0.36570  0.57240  0.28310  Biso   1.000  H
  N183     1.0000 0.41020  0.62310  0.28800  Biso   1.000  N
  O123     1.0000 0.46934  0.14409  0.68761  Biso   1.000  O
  O124     1.0000 0.46879  0.10851  0.65170  Biso   1.000  O
  C367     1.0000 0.45927  0.11934  0.67559  Biso   1.000  C
  C368     1.0000 0.43550  0.10341  0.69177  Biso   1.000  C
  C369     1.0000 0.42820  0.10840  0.72272  Biso   1.000  C
  H245     1.0000 0.43940  0.12320  0.73300  Biso   1.000  H
  C370     1.0000 0.37690  0.08980  0.78800  Biso   1.000  C
  N184     1.0000 0.37450  0.10560  0.81350  Biso   1.000  N
  C371     1.0000 0.36630  0.10020  0.77650  Biso   1.000  C
  H246     1.0000 0.35450  0.08340  0.77110  Biso   1.000  H
  N185     1.0000 0.36380  0.11610  0.80200  Biso   1.000  N
  C372     1.0000 0.42290  0.11600  0.71710  Biso   1.000  C
  H247     1.0000 0.43120  0.13340  0.72590  Biso   1.000  H
  H248     1.0000 0.36570  0.07240  0.78310  Biso   1.000  H
  N186     1.0000 0.41020  0.12310  0.78800  Biso   1.000  N
  O125     1.0000 0.96934  0.64409  0.68761  Biso   1.000  O
  O126     1.0000 0.96879  0.60851  0.65170  Biso   1.000  O
  C373     1.0000 0.95927  0.61934  0.67559  Biso   1.000  C
  C374     1.0000 0.93550  0.60341  0.69177  Biso   1.000  C
  C375     1.0000 0.92820  0.60840  0.72272  Biso   1.000  C
  H249     1.0000 0.93940  0.62320  0.73300  Biso   1.000  H
  C376     1.0000 0.87690  0.58980  0.78800  Biso   1.000  C
  N187     1.0000 0.87450  0.60560  0.81350  Biso   1.000  N
  C377     1.0000 0.86630  0.60020  0.77650  Biso   1.000  C
  H250     1.0000 0.85450  0.58340  0.77110  Biso   1.000  H
  N188     1.0000 0.86380  0.61610  0.80200  Biso   1.000  N
  C378     1.0000 0.92290  0.61600  0.71710  Biso   1.000  C
  H251     1.0000 0.93120  0.63340  0.72590  Biso   1.000  H
  H252     1.0000 0.86570  0.57240  0.78310  Biso   1.000  H
  N189     1.0000 0.91020  0.62310  0.78800  Biso   1.000  N
  O127     1.0000 0.96934  0.14409  0.18761  Biso   1.000  O
  O128     1.0000 0.96879  0.10851  0.15170  Biso   1.000  O
  C379     1.0000 0.95927  0.11934  0.17559  Biso   1.000  C
  C380     1.0000 0.93550  0.10341  0.19177  Biso   1.000  C
  C381     1.0000 0.92820  0.10840  0.22272  Biso   1.000  C
  H253     1.0000 0.93940  0.12320  0.23300  Biso   1.000  H
  C382     1.0000 0.87690  0.08980  0.28800  Biso   1.000  C
  N190     1.0000 0.87450  0.10560  0.31350  Biso   1.000  N
  C383     1.0000 0.86630  0.10020  0.27650  Biso   1.000  C
  H254     1.0000 0.85450  0.08340  0.27110  Biso   1.000  H
  N191     1.0000 0.86380  0.11610  0.30200  Biso   1.000  N
  C384     1.0000 0.92290  0.11600  0.21710  Biso   1.000  C
  H255     1.0000 0.93120  0.13340  0.22590  Biso   1.000  H
  H256     1.0000 0.86570  0.07240  0.28310  Biso   1.000  H
  N192     1.0000 0.91020  0.12310  0.28800  Biso   1.000  N
  O129     1.0000 0.64409  0.18761  0.46934  Biso   1.000  O
  O130     1.0000 0.60851  0.15170  0.46879  Biso   1.000  O
  C385     1.0000 0.61934  0.17559  0.45927  Biso   1.000  C
  C386     1.0000 0.60341  0.19177  0.43550  Biso   1.000  C
  C387     1.0000 0.60840  0.22272  0.42820  Biso   1.000  C
  H257     1.0000 0.62320  0.23300  0.43940  Biso   1.000  H
  C388     1.0000 0.58980  0.28800  0.37690  Biso   1.000  C
  N193     1.0000 0.60560  0.31350  0.37450  Biso   1.000  N
  C389     1.0000 0.60020  0.27650  0.36630  Biso   1.000  C
  H258     1.0000 0.58340  0.27110  0.35450  Biso   1.000  H
  N194     1.0000 0.61610  0.30200  0.36380  Biso   1.000  N
  C390     1.0000 0.61600  0.21710  0.42290  Biso   1.000  C
  H259     1.0000 0.63340  0.22590  0.43120  Biso   1.000  H
  H260     1.0000 0.57240  0.28310  0.36570  Biso   1.000  H
  N195     1.0000 0.62310  0.28800  0.41020  Biso   1.000  N
  O131     1.0000 0.64409  0.68761  0.96934  Biso   1.000  O
  O132     1.0000 0.60851  0.65170  0.96879  Biso   1.000  O
  C391     1.0000 0.61934  0.67559  0.95927  Biso   1.000  C
  C392     1.0000 0.60341  0.69177  0.93550  Biso   1.000  C
  C393     1.0000 0.60840  0.72272  0.92820  Biso   1.000  C
  H261     1.0000 0.62320  0.73300  0.93940  Biso   1.000  H
  C394     1.0000 0.58980  0.78800  0.87690  Biso   1.000  C
  N196     1.0000 0.60560  0.81350  0.87450  Biso   1.000  N
  C395     1.0000 0.60020  0.77650  0.86630  Biso   1.000  C
  H262     1.0000 0.58340  0.77110  0.85450  Biso   1.000  H
  N197     1.0000 0.61610  0.80200  0.86380  Biso   1.000  N
  C396     1.0000 0.61600  0.71710  0.92290  Biso   1.000  C
  H263     1.0000 0.63340  0.72590  0.93120  Biso   1.000  H
  H264     1.0000 0.57240  0.78310  0.86570  Biso   1.000  H
  N198     1.0000 0.62310  0.78800  0.91020  Biso   1.000  N
  O133     1.0000 0.14409  0.18761  0.96934  Biso   1.000  O
  O134     1.0000 0.10851  0.15170  0.96879  Biso   1.000  O
  C397     1.0000 0.11934  0.17559  0.95927  Biso   1.000  C
  C398     1.0000 0.10341  0.19177  0.93550  Biso   1.000  C
  C399     1.0000 0.10840  0.22272  0.92820  Biso   1.000  C
  H265     1.0000 0.12320  0.23300  0.93940  Biso   1.000  H
  C400     1.0000 0.08980  0.28800  0.87690  Biso   1.000  C
  N199     1.0000 0.10560  0.31350  0.87450  Biso   1.000  N
  C401     1.0000 0.10020  0.27650  0.86630  Biso   1.000  C
  H266     1.0000 0.08340  0.27110  0.85450  Biso   1.000  H
  N200     1.0000 0.11610  0.30200  0.86380  Biso   1.000  N
  C402     1.0000 0.11600  0.21710  0.92290  Biso   1.000  C
  H267     1.0000 0.13340  0.22590  0.93120  Biso   1.000  H
  H268     1.0000 0.07240  0.28310  0.86570  Biso   1.000  H
  N201     1.0000 0.12310  0.28800  0.91020  Biso   1.000  N
  O135     1.0000 0.14409  0.68761  0.46934  Biso   1.000  O
  O136     1.0000 0.10851  0.65170  0.46879  Biso   1.000  O
  C403     1.0000 0.11934  0.67559  0.45927  Biso   1.000  C
  C404     1.0000 0.10341  0.69177  0.43550  Biso   1.000  C
  C405     1.0000 0.10840  0.72272  0.42820  Biso   1.000  C
  H269     1.0000 0.12320  0.73300  0.43940  Biso   1.000  H
  C406     1.0000 0.08980  0.78800  0.37690  Biso   1.000  C
  N202     1.0000 0.10560  0.81350  0.37450  Biso   1.000  N
  C407     1.0000 0.10020  0.77650  0.36630  Biso   1.000  C
  H270     1.0000 0.08340  0.77110  0.35450  Biso   1.000  H
  N203     1.0000 0.11610  0.80200  0.36380  Biso   1.000  N
  C408     1.0000 0.11600  0.71710  0.42290  Biso   1.000  C
  H271     1.0000 0.13340  0.72590  0.43120  Biso   1.000  H
  H272     1.0000 0.07240  0.78310  0.36570  Biso   1.000  H
  N204     1.0000 0.12310  0.78800  0.41020  Biso   1.000  N
  O137     1.0000 0.35591  0.18761  0.53066  Biso   1.000  O
  O138     1.0000 0.39149  0.15170  0.53121  Biso   1.000  O
  C409     1.0000 0.38066  0.17559  0.54073  Biso   1.000  C
  C410     1.0000 0.39659  0.19177  0.56450  Biso   1.000  C
  C411     1.0000 0.39160  0.22272  0.57180  Biso   1.000  C
  H273     1.0000 0.37680  0.23300  0.56060  Biso   1.000  H
  C412     1.0000 0.41020  0.28800  0.62310  Biso   1.000  C
  N205     1.0000 0.39440  0.31350  0.62550  Biso   1.000  N
  C413     1.0000 0.39980  0.27650  0.63370  Biso   1.000  C
  H274     1.0000 0.41660  0.27110  0.64550  Biso   1.000  H
  N206     1.0000 0.38390  0.30200  0.63620  Biso   1.000  N
  C414     1.0000 0.38400  0.21710  0.57710  Biso   1.000  C
  H275     1.0000 0.36660  0.22590  0.56880  Biso   1.000  H
  H276     1.0000 0.42760  0.28310  0.63430  Biso   1.000  H
  N207     1.0000 0.37690  0.28800  0.58980  Biso   1.000  N
  O139     1.0000 0.35591  0.68761  0.03066  Biso   1.000  O
  O140     1.0000 0.39149  0.65170  0.03121  Biso   1.000  O
  C415     1.0000 0.38066  0.67559  0.04073  Biso   1.000  C
  C416     1.0000 0.39659  0.69177  0.06450  Biso   1.000  C
  C417     1.0000 0.39160  0.72272  0.07180  Biso   1.000  C
  H277     1.0000 0.37680  0.73300  0.06060  Biso   1.000  H
  C418     1.0000 0.41020  0.78800  0.12310  Biso   1.000  C
  N208     1.0000 0.39440  0.81350  0.12550  Biso   1.000  N
  C419     1.0000 0.39980  0.77650  0.13370  Biso   1.000  C
  H278     1.0000 0.41660  0.77110  0.14550  Biso   1.000  H
  N209     1.0000 0.38390  0.80200  0.13620  Biso   1.000  N
  C420     1.0000 0.38400  0.71710  0.07710  Biso   1.000  C
  H279     1.0000 0.36660  0.72590  0.06880  Biso   1.000  H
  H280     1.0000 0.42760  0.78310  0.13430  Biso   1.000  H
  N210     1.0000 0.37690  0.78800  0.08980  Biso   1.000  N
  O141     1.0000 0.85591  0.18761  0.03066  Biso   1.000  O
  O142     1.0000 0.89149  0.15170  0.03121  Biso   1.000  O
  C421     1.0000 0.88066  0.17559  0.04073  Biso   1.000  C
  C422     1.0000 0.89659  0.19177  0.06450  Biso   1.000  C
  C423     1.0000 0.89160  0.22272  0.07180  Biso   1.000  C
  H281     1.0000 0.87680  0.23300  0.06060  Biso   1.000  H
  C424     1.0000 0.91020  0.28800  0.12310  Biso   1.000  C
  N211     1.0000 0.89440  0.31350  0.12550  Biso   1.000  N
  C425     1.0000 0.89980  0.27650  0.13370  Biso   1.000  C
  H282     1.0000 0.91660  0.27110  0.14550  Biso   1.000  H
  N212     1.0000 0.88390  0.30200  0.13620  Biso   1.000  N
  C426     1.0000 0.88400  0.21710  0.07710  Biso   1.000  C
  H283     1.0000 0.86660  0.22590  0.06880  Biso   1.000  H
  H284     1.0000 0.92760  0.28310  0.13430  Biso   1.000  H
  N213     1.0000 0.87690  0.28800  0.08980  Biso   1.000  N
  O143     1.0000 0.85591  0.68761  0.53066  Biso   1.000  O
  O144     1.0000 0.89149  0.65170  0.53121  Biso   1.000  O
  C427     1.0000 0.88066  0.67559  0.54073  Biso   1.000  C
  C428     1.0000 0.89659  0.69177  0.56450  Biso   1.000  C
  C429     1.0000 0.89160  0.72272  0.57180  Biso   1.000  C
  H285     1.0000 0.87680  0.73300  0.56060  Biso   1.000  H
  C430     1.0000 0.91020  0.78800  0.62310  Biso   1.000  C
  N214     1.0000 0.89440  0.81350  0.62550  Biso   1.000  N
  C431     1.0000 0.89980  0.77650  0.63370  Biso   1.000  C
  H286     1.0000 0.91660  0.77110  0.64550  Biso   1.000  H
  N215     1.0000 0.88390  0.80200  0.63620  Biso   1.000  N
  C432     1.0000 0.88400  0.71710  0.57710  Biso   1.000  C
  H287     1.0000 0.86660  0.72590  0.56880  Biso   1.000  H
  H288     1.0000 0.92760  0.78310  0.63430  Biso   1.000  H
  N216     1.0000 0.87690  0.78800  0.58980  Biso   1.000  N
  O145     1.0000 0.35591  0.81239  0.46934  Biso   1.000  O
  O146     1.0000 0.39149  0.84830  0.46879  Biso   1.000  O
  C433     1.0000 0.38066  0.82441  0.45927  Biso   1.000  C
  C434     1.0000 0.39659  0.80823  0.43550  Biso   1.000  C
  C435     1.0000 0.39160  0.77728  0.42820  Biso   1.000  C
  H289     1.0000 0.37680  0.76700  0.43940  Biso   1.000  H
  C436     1.0000 0.41020  0.71200  0.37690  Biso   1.000  C
  N217     1.0000 0.39440  0.68650  0.37450  Biso   1.000  N
  C437     1.0000 0.39980  0.72350  0.36630  Biso   1.000  C
  H290     1.0000 0.41660  0.72890  0.35450  Biso   1.000  H
  N218     1.0000 0.38390  0.69800  0.36380  Biso   1.000  N
  C438     1.0000 0.38400  0.78290  0.42290  Biso   1.000  C
  H291     1.0000 0.36660  0.77410  0.43120  Biso   1.000  H
  H292     1.0000 0.42760  0.71690  0.36570  Biso   1.000  H
  N219     1.0000 0.37690  0.71200  0.41020  Biso   1.000  N
  O147     1.0000 0.35591  0.31239  0.96934  Biso   1.000  O
  O148     1.0000 0.39149  0.34830  0.96879  Biso   1.000  O
  C439     1.0000 0.38066  0.32441  0.95927  Biso   1.000  C
  C440     1.0000 0.39659  0.30823  0.93550  Biso   1.000  C
  C441     1.0000 0.39160  0.27728  0.92820  Biso   1.000  C
  H293     1.0000 0.37680  0.26700  0.93940  Biso   1.000  H
  C442     1.0000 0.41020  0.21200  0.87690  Biso   1.000  C
  N220     1.0000 0.39440  0.18650  0.87450  Biso   1.000  N
  C443     1.0000 0.39980  0.22350  0.86630  Biso   1.000  C
  H294     1.0000 0.41660  0.22890  0.85450  Biso   1.000  H
  N221     1.0000 0.38390  0.19800  0.86380  Biso   1.000  N
  C444     1.0000 0.38400  0.28290  0.92290  Biso   1.000  C
  H295     1.0000 0.36660  0.27410  0.93120  Biso   1.000  H
  H296     1.0000 0.42760  0.21690  0.86570  Biso   1.000  H
  N222     1.0000 0.37690  0.21200  0.91020  Biso   1.000  N
  O149     1.0000 0.85591  0.81239  0.96934  Biso   1.000  O
  O150     1.0000 0.89149  0.84830  0.96879  Biso   1.000  O
  C445     1.0000 0.88066  0.82441  0.95927  Biso   1.000  C
  C446     1.0000 0.89659  0.80823  0.93550  Biso   1.000  C
  C447     1.0000 0.89160  0.77728  0.92820  Biso   1.000  C
  H297     1.0000 0.87680  0.76700  0.93940  Biso   1.000  H
  C448     1.0000 0.91020  0.71200  0.87690  Biso   1.000  C
  N223     1.0000 0.89440  0.68650  0.87450  Biso   1.000  N
  C449     1.0000 0.89980  0.72350  0.86630  Biso   1.000  C
  H298     1.0000 0.91660  0.72890  0.85450  Biso   1.000  H
  N224     1.0000 0.88390  0.69800  0.86380  Biso   1.000  N
  C450     1.0000 0.88400  0.78290  0.92290  Biso   1.000  C
  H299     1.0000 0.86660  0.77410  0.93120  Biso   1.000  H
  H300     1.0000 0.92760  0.71690  0.86570  Biso   1.000  H
  N225     1.0000 0.87690  0.71200  0.91020  Biso   1.000  N
  O151     1.0000 0.85591  0.31239  0.46934  Biso   1.000  O
  O152     1.0000 0.89149  0.34830  0.46879  Biso   1.000  O
  C451     1.0000 0.88066  0.32441  0.45927  Biso   1.000  C
  C452     1.0000 0.89659  0.30823  0.43550  Biso   1.000  C
  C453     1.0000 0.89160  0.27728  0.42820  Biso   1.000  C
  H301     1.0000 0.87680  0.26700  0.43940  Biso   1.000  H
  C454     1.0000 0.91020  0.21200  0.37690  Biso   1.000  C
  N226     1.0000 0.89440  0.18650  0.37450  Biso   1.000  N
  C455     1.0000 0.89980  0.22350  0.36630  Biso   1.000  C
  H302     1.0000 0.91660  0.22890  0.35450  Biso   1.000  H
  N227     1.0000 0.88390  0.19800  0.36380  Biso   1.000  N
  C456     1.0000 0.88400  0.28290  0.42290  Biso   1.000  C
  H303     1.0000 0.86660  0.27410  0.43120  Biso   1.000  H
  H304     1.0000 0.92760  0.21690  0.36570  Biso   1.000  H
  N228     1.0000 0.87690  0.21200  0.41020  Biso   1.000  N
  O153     1.0000 0.64409  0.81239  0.53066  Biso   1.000  O
  O154     1.0000 0.60851  0.84830  0.53121  Biso   1.000  O
  C457     1.0000 0.61934  0.82441  0.54073  Biso   1.000  C
  C458     1.0000 0.60341  0.80823  0.56450  Biso   1.000  C
  C459     1.0000 0.60840  0.77728  0.57180  Biso   1.000  C
  H305     1.0000 0.62320  0.76700  0.56060  Biso   1.000  H
  C460     1.0000 0.58980  0.71200  0.62310  Biso   1.000  C
  N229     1.0000 0.60560  0.68650  0.62550  Biso   1.000  N
  C461     1.0000 0.60020  0.72350  0.63370  Biso   1.000  C
  H306     1.0000 0.58340  0.72890  0.64550  Biso   1.000  H
  N230     1.0000 0.61610  0.69800  0.63620  Biso   1.000  N
  C462     1.0000 0.61600  0.78290  0.57710  Biso   1.000  C
  H307     1.0000 0.63340  0.77410  0.56880  Biso   1.000  H
  H308     1.0000 0.57240  0.71690  0.63430  Biso   1.000  H
  N231     1.0000 0.62310  0.71200  0.58980  Biso   1.000  N
  O155     1.0000 0.64409  0.31239  0.03066  Biso   1.000  O
  O156     1.0000 0.60851  0.34830  0.03121  Biso   1.000  O
  C463     1.0000 0.61934  0.32441  0.04073  Biso   1.000  C
  C464     1.0000 0.60341  0.30823  0.06450  Biso   1.000  C
  C465     1.0000 0.60840  0.27728  0.07180  Biso   1.000  C
  H309     1.0000 0.62320  0.26700  0.06060  Biso   1.000  H
  C466     1.0000 0.58980  0.21200  0.12310  Biso   1.000  C
  N232     1.0000 0.60560  0.18650  0.12550  Biso   1.000  N
  C467     1.0000 0.60020  0.22350  0.13370  Biso   1.000  C
  H310     1.0000 0.58340  0.22890  0.14550  Biso   1.000  H
  N233     1.0000 0.61610  0.19800  0.13620  Biso   1.000  N
  C468     1.0000 0.61600  0.28290  0.07710  Biso   1.000  C
  H311     1.0000 0.63340  0.27410  0.06880  Biso   1.000  H
  H312     1.0000 0.57240  0.21690  0.13430  Biso   1.000  H
  N234     1.0000 0.62310  0.21200  0.08980  Biso   1.000  N
  O157     1.0000 0.14409  0.81239  0.03066  Biso   1.000  O
  O158     1.0000 0.10851  0.84830  0.03121  Biso   1.000  O
  C469     1.0000 0.11934  0.82441  0.04073  Biso   1.000  C
  C470     1.0000 0.10341  0.80823  0.06450  Biso   1.000  C
  C471     1.0000 0.10840  0.77728  0.07180  Biso   1.000  C
  H313     1.0000 0.12320  0.76700  0.06060  Biso   1.000  H
  C472     1.0000 0.08980  0.71200  0.12310  Biso   1.000  C
  N235     1.0000 0.10560  0.68650  0.12550  Biso   1.000  N
  C473     1.0000 0.10020  0.72350  0.13370  Biso   1.000  C
  H314     1.0000 0.08340  0.72890  0.14550  Biso   1.000  H
  N236     1.0000 0.11610  0.69800  0.13620  Biso   1.000  N
  C474     1.0000 0.11600  0.78290  0.07710  Biso   1.000  C
  H315     1.0000 0.13340  0.77410  0.06880  Biso   1.000  H
  H316     1.0000 0.07240  0.71690  0.13430  Biso   1.000  H
  N237     1.0000 0.12310  0.71200  0.08980  Biso   1.000  N
  O159     1.0000 0.14409  0.31239  0.53066  Biso   1.000  O
  O160     1.0000 0.10851  0.34830  0.53121  Biso   1.000  O
  C475     1.0000 0.11934  0.32441  0.54073  Biso   1.000  C
  C476     1.0000 0.10341  0.30823  0.56450  Biso   1.000  C
  C477     1.0000 0.10840  0.27728  0.57180  Biso   1.000  C
  H317     1.0000 0.12320  0.26700  0.56060  Biso   1.000  H
  C478     1.0000 0.08980  0.21200  0.62310  Biso   1.000  C
  N238     1.0000 0.10560  0.18650  0.62550  Biso   1.000  N
  C479     1.0000 0.10020  0.22350  0.63370  Biso   1.000  C
  H318     1.0000 0.08340  0.22890  0.64550  Biso   1.000  H
  N239     1.0000 0.11610  0.19800  0.63620  Biso   1.000  N
  C480     1.0000 0.11600  0.28290  0.57710  Biso   1.000  C
  H319     1.0000 0.13340  0.27410  0.56880  Biso   1.000  H
  H320     1.0000 0.07240  0.21690  0.63430  Biso   1.000  H
  N240     1.0000 0.12310  0.21200  0.58980  Biso   1.000  N
  O161     1.0000 0.18761  0.53066  0.35591  Biso   1.000  O
  O162     1.0000 0.15170  0.53121  0.39149  Biso   1.000  O
  C481     1.0000 0.17559  0.54073  0.38066  Biso   1.000  C
  C482     1.0000 0.19177  0.56450  0.39659  Biso   1.000  C
  C483     1.0000 0.22272  0.57180  0.39160  Biso   1.000  C
  H321     1.0000 0.23300  0.56060  0.37680  Biso   1.000  H
  C484     1.0000 0.28800  0.62310  0.41020  Biso   1.000  C
  N241     1.0000 0.31350  0.62550  0.39440  Biso   1.000  N
  C485     1.0000 0.27650  0.63370  0.39980  Biso   1.000  C
  H322     1.0000 0.27110  0.64550  0.41660  Biso   1.000  H
  N242     1.0000 0.30200  0.63620  0.38390  Biso   1.000  N
  C486     1.0000 0.21710  0.57710  0.38400  Biso   1.000  C
  H323     1.0000 0.22590  0.56880  0.36660  Biso   1.000  H
  H324     1.0000 0.28310  0.63430  0.42760  Biso   1.000  H
  N243     1.0000 0.28800  0.58980  0.37690  Biso   1.000  N
  O163     1.0000 0.18761  0.03066  0.85591  Biso   1.000  O
  O164     1.0000 0.15170  0.03121  0.89149  Biso   1.000  O
  C487     1.0000 0.17559  0.04073  0.88066  Biso   1.000  C
  C488     1.0000 0.19177  0.06450  0.89659  Biso   1.000  C
  C489     1.0000 0.22272  0.07180  0.89160  Biso   1.000  C
  H325     1.0000 0.23300  0.06060  0.87680  Biso   1.000  H
  C490     1.0000 0.28800  0.12310  0.91020  Biso   1.000  C
  N244     1.0000 0.31350  0.12550  0.89440  Biso   1.000  N
  C491     1.0000 0.27650  0.13370  0.89980  Biso   1.000  C
  H326     1.0000 0.27110  0.14550  0.91660  Biso   1.000  H
  N245     1.0000 0.30200  0.13620  0.88390  Biso   1.000  N
  C492     1.0000 0.21710  0.07710  0.88400  Biso   1.000  C
  H327     1.0000 0.22590  0.06880  0.86660  Biso   1.000  H
  H328     1.0000 0.28310  0.13430  0.92760  Biso   1.000  H
  N246     1.0000 0.28800  0.08980  0.87690  Biso   1.000  N
  O165     1.0000 0.68761  0.53066  0.85591  Biso   1.000  O
  O166     1.0000 0.65170  0.53121  0.89149  Biso   1.000  O
  C493     1.0000 0.67559  0.54073  0.88066  Biso   1.000  C
  C494     1.0000 0.69177  0.56450  0.89659  Biso   1.000  C
  C495     1.0000 0.72272  0.57180  0.89160  Biso   1.000  C
  H329     1.0000 0.73300  0.56060  0.87680  Biso   1.000  H
  C496     1.0000 0.78800  0.62310  0.91020  Biso   1.000  C
  N247     1.0000 0.81350  0.62550  0.89440  Biso   1.000  N
  C497     1.0000 0.77650  0.63370  0.89980  Biso   1.000  C
  H330     1.0000 0.77110  0.64550  0.91660  Biso   1.000  H
  N248     1.0000 0.80200  0.63620  0.88390  Biso   1.000  N
  C498     1.0000 0.71710  0.57710  0.88400  Biso   1.000  C
  H331     1.0000 0.72590  0.56880  0.86660  Biso   1.000  H
  H332     1.0000 0.78310  0.63430  0.92760  Biso   1.000  H
  N249     1.0000 0.78800  0.58980  0.87690  Biso   1.000  N
  O167     1.0000 0.68761  0.03066  0.35591  Biso   1.000  O
  O168     1.0000 0.65170  0.03121  0.39149  Biso   1.000  O
  C499     1.0000 0.67559  0.04073  0.38066  Biso   1.000  C
  C500     1.0000 0.69177  0.06450  0.39659  Biso   1.000  C
  C501     1.0000 0.72272  0.07180  0.39160  Biso   1.000  C
  H333     1.0000 0.73300  0.06060  0.37680  Biso   1.000  H
  C502     1.0000 0.78800  0.12310  0.41020  Biso   1.000  C
  N250     1.0000 0.81350  0.12550  0.39440  Biso   1.000  N
  C503     1.0000 0.77650  0.13370  0.39980  Biso   1.000  C
  H334     1.0000 0.77110  0.14550  0.41660  Biso   1.000  H
  N251     1.0000 0.80200  0.13620  0.38390  Biso   1.000  N
  C504     1.0000 0.71710  0.07710  0.38400  Biso   1.000  C
  H335     1.0000 0.72590  0.06880  0.36660  Biso   1.000  H
  H336     1.0000 0.78310  0.13430  0.42760  Biso   1.000  H
  N252     1.0000 0.78800  0.08980  0.37690  Biso   1.000  N
  O169     1.0000 0.18761  0.46934  0.64409  Biso   1.000  O
  O170     1.0000 0.15170  0.46879  0.60851  Biso   1.000  O
  C505     1.0000 0.17559  0.45927  0.61934  Biso   1.000  C
  C506     1.0000 0.19177  0.43550  0.60341  Biso   1.000  C
  C507     1.0000 0.22272  0.42820  0.60840  Biso   1.000  C
  H337     1.0000 0.23300  0.43940  0.62320  Biso   1.000  H
  C508     1.0000 0.28800  0.37690  0.58980  Biso   1.000  C
  N253     1.0000 0.31350  0.37450  0.60560  Biso   1.000  N
  C509     1.0000 0.27650  0.36630  0.60020  Biso   1.000  C
  H338     1.0000 0.27110  0.35450  0.58340  Biso   1.000  H
  N254     1.0000 0.30200  0.36380  0.61610  Biso   1.000  N
  C510     1.0000 0.21710  0.42290  0.61600  Biso   1.000  C
  H339     1.0000 0.22590  0.43120  0.63340  Biso   1.000  H
  H340     1.0000 0.28310  0.36570  0.57240  Biso   1.000  H
  N255     1.0000 0.28800  0.41020  0.62310  Biso   1.000  N
  O171     1.0000 0.18761  0.96934  0.14409  Biso   1.000  O
  O172     1.0000 0.15170  0.96879  0.10851  Biso   1.000  O
  C511     1.0000 0.17559  0.95927  0.11934  Biso   1.000  C
  C512     1.0000 0.19177  0.93550  0.10341  Biso   1.000  C
  C513     1.0000 0.22272  0.92820  0.10840  Biso   1.000  C
  H341     1.0000 0.23300  0.93940  0.12320  Biso   1.000  H
  C514     1.0000 0.28800  0.87690  0.08980  Biso   1.000  C
  N256     1.0000 0.31350  0.87450  0.10560  Biso   1.000  N
  C515     1.0000 0.27650  0.86630  0.10020  Biso   1.000  C
  H342     1.0000 0.27110  0.85450  0.08340  Biso   1.000  H
  N257     1.0000 0.30200  0.86380  0.11610  Biso   1.000  N
  C516     1.0000 0.21710  0.92290  0.11600  Biso   1.000  C
  H343     1.0000 0.22590  0.93120  0.13340  Biso   1.000  H
  H344     1.0000 0.28310  0.86570  0.07240  Biso   1.000  H
  N258     1.0000 0.28800  0.91020  0.12310  Biso   1.000  N
  O173     1.0000 0.68761  0.46934  0.14409  Biso   1.000  O
  O174     1.0000 0.65170  0.46879  0.10851  Biso   1.000  O
  C517     1.0000 0.67559  0.45927  0.11934  Biso   1.000  C
  C518     1.0000 0.69177  0.43550  0.10341  Biso   1.000  C
  C519     1.0000 0.72272  0.42820  0.10840  Biso   1.000  C
  H345     1.0000 0.73300  0.43940  0.12320  Biso   1.000  H
  C520     1.0000 0.78800  0.37690  0.08980  Biso   1.000  C
  N259     1.0000 0.81350  0.37450  0.10560  Biso   1.000  N
  C521     1.0000 0.77650  0.36630  0.10020  Biso   1.000  C
  H346     1.0000 0.77110  0.35450  0.08340  Biso   1.000  H
  N260     1.0000 0.80200  0.36380  0.11610  Biso   1.000  N
  C522     1.0000 0.71710  0.42290  0.11600  Biso   1.000  C
  H347     1.0000 0.72590  0.43120  0.13340  Biso   1.000  H
  H348     1.0000 0.78310  0.36570  0.07240  Biso   1.000  H
  N261     1.0000 0.78800  0.41020  0.12310  Biso   1.000  N
  O175     1.0000 0.68761  0.96934  0.64409  Biso   1.000  O
  O176     1.0000 0.65170  0.96879  0.60851  Biso   1.000  O
  C523     1.0000 0.67559  0.95927  0.61934  Biso   1.000  C
  C524     1.0000 0.69177  0.93550  0.60341  Biso   1.000  C
  C525     1.0000 0.72272  0.92820  0.60840  Biso   1.000  C
  H349     1.0000 0.73300  0.93940  0.62320  Biso   1.000  H
  C526     1.0000 0.78800  0.87690  0.58980  Biso   1.000  C
  N262     1.0000 0.81350  0.87450  0.60560  Biso   1.000  N
  C527     1.0000 0.77650  0.86630  0.60020  Biso   1.000  C
  H350     1.0000 0.77110  0.85450  0.58340  Biso   1.000  H
  N263     1.0000 0.80200  0.86380  0.61610  Biso   1.000  N
  C528     1.0000 0.71710  0.92290  0.61600  Biso   1.000  C
  H351     1.0000 0.72590  0.93120  0.63340  Biso   1.000  H
  H352     1.0000 0.78310  0.86570  0.57240  Biso   1.000  H
  N264     1.0000 0.78800  0.91020  0.62310  Biso   1.000  N
  O177     1.0000 0.81239  0.53066  0.64409  Biso   1.000  O
  O178     1.0000 0.84830  0.53121  0.60851  Biso   1.000  O
  C529     1.0000 0.82441  0.54073  0.61934  Biso   1.000  C
  C530     1.0000 0.80823  0.56450  0.60341  Biso   1.000  C
  C531     1.0000 0.77728  0.57180  0.60840  Biso   1.000  C
  H353     1.0000 0.76700  0.56060  0.62320  Biso   1.000  H
  C532     1.0000 0.71200  0.62310  0.58980  Biso   1.000  C
  N265     1.0000 0.68650  0.62550  0.60560  Biso   1.000  N
  C533     1.0000 0.72350  0.63370  0.60020  Biso   1.000  C
  H354     1.0000 0.72890  0.64550  0.58340  Biso   1.000  H
  N266     1.0000 0.69800  0.63620  0.61610  Biso   1.000  N
  C534     1.0000 0.78290  0.57710  0.61600  Biso   1.000  C
  H355     1.0000 0.77410  0.56880  0.63340  Biso   1.000  H
  H356     1.0000 0.71690  0.63430  0.57240  Biso   1.000  H
  N267     1.0000 0.71200  0.58980  0.62310  Biso   1.000  N
  O179     1.0000 0.81239  0.03066  0.14409  Biso   1.000  O
  O180     1.0000 0.84830  0.03121  0.10851  Biso   1.000  O
  C535     1.0000 0.82441  0.04073  0.11934  Biso   1.000  C
  C536     1.0000 0.80823  0.06450  0.10341  Biso   1.000  C
  C537     1.0000 0.77728  0.07180  0.10840  Biso   1.000  C
  H357     1.0000 0.76700  0.06060  0.12320  Biso   1.000  H
  C538     1.0000 0.71200  0.12310  0.08980  Biso   1.000  C
  N268     1.0000 0.68650  0.12550  0.10560  Biso   1.000  N
  C539     1.0000 0.72350  0.13370  0.10020  Biso   1.000  C
  H358     1.0000 0.72890  0.14550  0.08340  Biso   1.000  H
  N269     1.0000 0.69800  0.13620  0.11610  Biso   1.000  N
  C540     1.0000 0.78290  0.07710  0.11600  Biso   1.000  C
  H359     1.0000 0.77410  0.06880  0.13340  Biso   1.000  H
  H360     1.0000 0.71690  0.13430  0.07240  Biso   1.000  H
  N270     1.0000 0.71200  0.08980  0.12310  Biso   1.000  N
  O181     1.0000 0.31239  0.53066  0.14409  Biso   1.000  O
  O182     1.0000 0.34830  0.53121  0.10851  Biso   1.000  O
  C541     1.0000 0.32441  0.54073  0.11934  Biso   1.000  C
  C542     1.0000 0.30823  0.56450  0.10341  Biso   1.000  C
  C543     1.0000 0.27728  0.57180  0.10840  Biso   1.000  C
  H361     1.0000 0.26700  0.56060  0.12320  Biso   1.000  H
  C544     1.0000 0.21200  0.62310  0.08980  Biso   1.000  C
  N271     1.0000 0.18650  0.62550  0.10560  Biso   1.000  N
  C545     1.0000 0.22350  0.63370  0.10020  Biso   1.000  C
  H362     1.0000 0.22890  0.64550  0.08340  Biso   1.000  H
  N272     1.0000 0.19800  0.63620  0.11610  Biso   1.000  N
  C546     1.0000 0.28290  0.57710  0.11600  Biso   1.000  C
  H363     1.0000 0.27410  0.56880  0.13340  Biso   1.000  H
  H364     1.0000 0.21690  0.63430  0.07240  Biso   1.000  H
  N273     1.0000 0.21200  0.58980  0.12310  Biso   1.000  N
  O183     1.0000 0.31239  0.03066  0.64409  Biso   1.000  O
  O184     1.0000 0.34830  0.03121  0.60851  Biso   1.000  O
  C547     1.0000 0.32441  0.04073  0.61934  Biso   1.000  C
  C548     1.0000 0.30823  0.06450  0.60341  Biso   1.000  C
  C549     1.0000 0.27728  0.07180  0.60840  Biso   1.000  C
  H365     1.0000 0.26700  0.06060  0.62320  Biso   1.000  H
  C550     1.0000 0.21200  0.12310  0.58980  Biso   1.000  C
  N274     1.0000 0.18650  0.12550  0.60560  Biso   1.000  N
  C551     1.0000 0.22350  0.13370  0.60020  Biso   1.000  C
  H366     1.0000 0.22890  0.14550  0.58340  Biso   1.000  H
  N275     1.0000 0.19800  0.13620  0.61610  Biso   1.000  N
  C552     1.0000 0.28290  0.07710  0.61600  Biso   1.000  C
  H367     1.0000 0.27410  0.06880  0.63340  Biso   1.000  H
  H368     1.0000 0.21690  0.13430  0.57240  Biso   1.000  H
  N276     1.0000 0.21200  0.08980  0.62310  Biso   1.000  N
  O185     1.0000 0.81239  0.46934  0.35591  Biso   1.000  O
  O186     1.0000 0.84830  0.46879  0.39149  Biso   1.000  O
  C553     1.0000 0.82441  0.45927  0.38066  Biso   1.000  C
  C554     1.0000 0.80823  0.43550  0.39659  Biso   1.000  C
  C555     1.0000 0.77728  0.42820  0.39160  Biso   1.000  C
  H369     1.0000 0.76700  0.43940  0.37680  Biso   1.000  H
  C556     1.0000 0.71200  0.37690  0.41020  Biso   1.000  C
  N277     1.0000 0.68650  0.37450  0.39440  Biso   1.000  N
  C557     1.0000 0.72350  0.36630  0.39980  Biso   1.000  C
  H370     1.0000 0.72890  0.35450  0.41660  Biso   1.000  H
  N278     1.0000 0.69800  0.36380  0.38390  Biso   1.000  N
  C558     1.0000 0.78290  0.42290  0.38400  Biso   1.000  C
  H371     1.0000 0.77410  0.43120  0.36660  Biso   1.000  H
  H372     1.0000 0.71690  0.36570  0.42760  Biso   1.000  H
  N279     1.0000 0.71200  0.41020  0.37690  Biso   1.000  N
  O187     1.0000 0.81239  0.96934  0.85591  Biso   1.000  O
  O188     1.0000 0.84830  0.96879  0.89149  Biso   1.000  O
  C559     1.0000 0.82441  0.95927  0.88066  Biso   1.000  C
  C560     1.0000 0.80823  0.93550  0.89659  Biso   1.000  C
  C561     1.0000 0.77728  0.92820  0.89160  Biso   1.000  C
  H373     1.0000 0.76700  0.93940  0.87680  Biso   1.000  H
  C562     1.0000 0.71200  0.87690  0.91020  Biso   1.000  C
  N280     1.0000 0.68650  0.87450  0.89440  Biso   1.000  N
  C563     1.0000 0.72350  0.86630  0.89980  Biso   1.000  C
  H374     1.0000 0.72890  0.85450  0.91660  Biso   1.000  H
  N281     1.0000 0.69800  0.86380  0.88390  Biso   1.000  N
  C564     1.0000 0.78290  0.92290  0.88400  Biso   1.000  C
  H375     1.0000 0.77410  0.93120  0.86660  Biso   1.000  H
  H376     1.0000 0.71690  0.86570  0.92760  Biso   1.000  H
  N282     1.0000 0.71200  0.91020  0.87690  Biso   1.000  N
  O189     1.0000 0.31239  0.46934  0.85591  Biso   1.000  O
  O190     1.0000 0.34830  0.46879  0.89149  Biso   1.000  O
  C565     1.0000 0.32441  0.45927  0.88066  Biso   1.000  C
  C566     1.0000 0.30823  0.43550  0.89659  Biso   1.000  C
  C567     1.0000 0.27728  0.42820  0.89160  Biso   1.000  C
  H377     1.0000 0.26700  0.43940  0.87680  Biso   1.000  H
  C568     1.0000 0.21200  0.37690  0.91020  Biso   1.000  C
  N283     1.0000 0.18650  0.37450  0.89440  Biso   1.000  N
  C569     1.0000 0.22350  0.36630  0.89980  Biso   1.000  C
  H378     1.0000 0.22890  0.35450  0.91660  Biso   1.000  H
  N284     1.0000 0.19800  0.36380  0.88390  Biso   1.000  N
  C570     1.0000 0.28290  0.42290  0.88400  Biso   1.000  C
  H379     1.0000 0.27410  0.43120  0.86660  Biso   1.000  H
  H380     1.0000 0.21690  0.36570  0.92760  Biso   1.000  H
  N285     1.0000 0.21200  0.41020  0.87690  Biso   1.000  N
  O191     1.0000 0.31239  0.96934  0.35591  Biso   1.000  O
  O192     1.0000 0.34830  0.96879  0.39149  Biso   1.000  O
  C571     1.0000 0.32441  0.95927  0.38066  Biso   1.000  C
  C572     1.0000 0.30823  0.93550  0.39659  Biso   1.000  C
  C573     1.0000 0.27728  0.92820  0.39160  Biso   1.000  C
  H381     1.0000 0.26700  0.93940  0.37680  Biso   1.000  H
  C574     1.0000 0.21200  0.87690  0.41020  Biso   1.000  C
  N286     1.0000 0.18650  0.87450  0.39440  Biso   1.000  N
  C575     1.0000 0.22350  0.86630  0.39980  Biso   1.000  C
  H382     1.0000 0.22890  0.85450  0.41660  Biso   1.000  H
  N287     1.0000 0.19800  0.86380  0.38390  Biso   1.000  N
  C576     1.0000 0.28290  0.92290  0.38400  Biso   1.000  C
  H383     1.0000 0.27410  0.93120  0.36660  Biso   1.000  H
  H384     1.0000 0.21690  0.86570  0.42760  Biso   1.000  H
  N288     1.0000 0.21200  0.91020  0.37690  Biso   1.000  N
  O193     1.0000 0.35591  0.46934  0.81239  Biso   1.000  O
  O194     1.0000 0.39149  0.46879  0.84830  Biso   1.000  O
  C577     1.0000 0.38066  0.45927  0.82441  Biso   1.000  C
  C578     1.0000 0.39659  0.43550  0.80823  Biso   1.000  C
  C579     1.0000 0.39160  0.42820  0.77728  Biso   1.000  C
  H385     1.0000 0.37680  0.43940  0.76700  Biso   1.000  H
  N289     1.0000 0.39440  0.37450  0.68650  Biso   1.000  N
  C580     1.0000 0.39980  0.36630  0.72350  Biso   1.000  C
  H386     1.0000 0.41660  0.35450  0.72890  Biso   1.000  H
  N290     1.0000 0.38390  0.36380  0.69800  Biso   1.000  N
  C581     1.0000 0.38400  0.42290  0.78290  Biso   1.000  C
  H387     1.0000 0.36660  0.43120  0.77410  Biso   1.000  H
  H388     1.0000 0.42760  0.36570  0.71690  Biso   1.000  H
  O195     1.0000 0.35591  0.96934  0.31239  Biso   1.000  O
  O196     1.0000 0.39149  0.96879  0.34830  Biso   1.000  O
  C582     1.0000 0.38066  0.95927  0.32441  Biso   1.000  C
  C583     1.0000 0.39659  0.93550  0.30823  Biso   1.000  C
  C584     1.0000 0.39160  0.92820  0.27728  Biso   1.000  C
  H389     1.0000 0.37680  0.93940  0.26700  Biso   1.000  H
  N291     1.0000 0.39440  0.87450  0.18650  Biso   1.000  N
  C585     1.0000 0.39980  0.86630  0.22350  Biso   1.000  C
  H390     1.0000 0.41660  0.85450  0.22890  Biso   1.000  H
  N292     1.0000 0.38390  0.86380  0.19800  Biso   1.000  N
  C586     1.0000 0.38400  0.92290  0.28290  Biso   1.000  C
  H391     1.0000 0.36660  0.93120  0.27410  Biso   1.000  H
  H392     1.0000 0.42760  0.86570  0.21690  Biso   1.000  H
  O197     1.0000 0.85591  0.46934  0.31239  Biso   1.000  O
  O198     1.0000 0.89149  0.46879  0.34830  Biso   1.000  O
  C587     1.0000 0.88066  0.45927  0.32441  Biso   1.000  C
  C588     1.0000 0.89659  0.43550  0.30823  Biso   1.000  C
  C589     1.0000 0.89160  0.42820  0.27728  Biso   1.000  C
  H393     1.0000 0.87680  0.43940  0.26700  Biso   1.000  H
  N293     1.0000 0.89440  0.37450  0.18650  Biso   1.000  N
  C590     1.0000 0.89980  0.36630  0.22350  Biso   1.000  C
  H394     1.0000 0.91660  0.35450  0.22890  Biso   1.000  H
  N294     1.0000 0.88390  0.36380  0.19800  Biso   1.000  N
  C591     1.0000 0.88400  0.42290  0.28290  Biso   1.000  C
  H395     1.0000 0.86660  0.43120  0.27410  Biso   1.000  H
  H396     1.0000 0.92760  0.36570  0.21690  Biso   1.000  H
  O199     1.0000 0.85591  0.96934  0.81239  Biso   1.000  O
  O200     1.0000 0.89149  0.96879  0.84830  Biso   1.000  O
  C592     1.0000 0.88066  0.95927  0.82441  Biso   1.000  C
  C593     1.0000 0.89659  0.93550  0.80823  Biso   1.000  C
  C594     1.0000 0.89160  0.92820  0.77728  Biso   1.000  C
  H397     1.0000 0.87680  0.93940  0.76700  Biso   1.000  H
  N295     1.0000 0.89440  0.87450  0.68650  Biso   1.000  N
  C595     1.0000 0.89980  0.86630  0.72350  Biso   1.000  C
  H398     1.0000 0.91660  0.85450  0.72890  Biso   1.000  H
  N296     1.0000 0.88390  0.86380  0.69800  Biso   1.000  N
  C596     1.0000 0.88400  0.92290  0.78290  Biso   1.000  C
  H399     1.0000 0.86660  0.93120  0.77410  Biso   1.000  H
  H400     1.0000 0.92760  0.86570  0.71690  Biso   1.000  H
  O201     1.0000 0.64409  0.53066  0.81239  Biso   1.000  O
  O202     1.0000 0.60851  0.53121  0.84830  Biso   1.000  O
  C597     1.0000 0.61934  0.54073  0.82441  Biso   1.000  C
  C598     1.0000 0.60341  0.56450  0.80823  Biso   1.000  C
  C599     1.0000 0.60840  0.57180  0.77728  Biso   1.000  C
  H401     1.0000 0.62320  0.56060  0.76700  Biso   1.000  H
  N297     1.0000 0.60560  0.62550  0.68650  Biso   1.000  N
  C600     1.0000 0.60020  0.63370  0.72350  Biso   1.000  C
  H402     1.0000 0.58340  0.64550  0.72890  Biso   1.000  H
  N298     1.0000 0.61610  0.63620  0.69800  Biso   1.000  N
  C601     1.0000 0.61600  0.57710  0.78290  Biso   1.000  C
  H403     1.0000 0.63340  0.56880  0.77410  Biso   1.000  H
  H404     1.0000 0.57240  0.63430  0.71690  Biso   1.000  H
  O203     1.0000 0.64409  0.03066  0.31239  Biso   1.000  O
  O204     1.0000 0.60851  0.03121  0.34830  Biso   1.000  O
  C602     1.0000 0.61934  0.04073  0.32441  Biso   1.000  C
  C603     1.0000 0.60341  0.06450  0.30823  Biso   1.000  C
  C604     1.0000 0.60840  0.07180  0.27728  Biso   1.000  C
  H405     1.0000 0.62320  0.06060  0.26700  Biso   1.000  H
  N299     1.0000 0.60560  0.12550  0.18650  Biso   1.000  N
  C605     1.0000 0.60020  0.13370  0.22350  Biso   1.000  C
  H406     1.0000 0.58340  0.14550  0.22890  Biso   1.000  H
  N300     1.0000 0.61610  0.13620  0.19800  Biso   1.000  N
  C606     1.0000 0.61600  0.07710  0.28290  Biso   1.000  C
  H407     1.0000 0.63340  0.06880  0.27410  Biso   1.000  H
  H408     1.0000 0.57240  0.13430  0.21690  Biso   1.000  H
  O205     1.0000 0.14409  0.53066  0.31239  Biso   1.000  O
  O206     1.0000 0.10851  0.53121  0.34830  Biso   1.000  O
  C607     1.0000 0.11934  0.54073  0.32441  Biso   1.000  C
  C608     1.0000 0.10341  0.56450  0.30823  Biso   1.000  C
  C609     1.0000 0.10840  0.57180  0.27728  Biso   1.000  C
  H409     1.0000 0.12320  0.56060  0.26700  Biso   1.000  H
  N301     1.0000 0.10560  0.62550  0.18650  Biso   1.000  N
  C610     1.0000 0.10020  0.63370  0.22350  Biso   1.000  C
  H410     1.0000 0.08340  0.64550  0.22890  Biso   1.000  H
  N302     1.0000 0.11610  0.63620  0.19800  Biso   1.000  N
  C611     1.0000 0.11600  0.57710  0.28290  Biso   1.000  C
  H411     1.0000 0.13340  0.56880  0.27410  Biso   1.000  H
  H412     1.0000 0.07240  0.63430  0.21690  Biso   1.000  H
  O207     1.0000 0.14409  0.03066  0.81239  Biso   1.000  O
  O208     1.0000 0.10851  0.03121  0.84830  Biso   1.000  O
  C612     1.0000 0.11934  0.04073  0.82441  Biso   1.000  C
  C613     1.0000 0.10341  0.06450  0.80823  Biso   1.000  C
  C614     1.0000 0.10840  0.07180  0.77728  Biso   1.000  C
  H413     1.0000 0.12320  0.06060  0.76700  Biso   1.000  H
  N303     1.0000 0.10560  0.12550  0.68650  Biso   1.000  N
  C615     1.0000 0.10020  0.13370  0.72350  Biso   1.000  C
  H414     1.0000 0.08340  0.14550  0.72890  Biso   1.000  H
  N304     1.0000 0.11610  0.13620  0.69800  Biso   1.000  N
  C616     1.0000 0.11600  0.07710  0.78290  Biso   1.000  C
  H415     1.0000 0.13340  0.06880  0.77410  Biso   1.000  H
  H416     1.0000 0.07240  0.13430  0.71690  Biso   1.000  H
  O209     1.0000 0.64409  0.46934  0.18761  Biso   1.000  O
  O210     1.0000 0.60851  0.46879  0.15170  Biso   1.000  O
  C617     1.0000 0.61934  0.45927  0.17559  Biso   1.000  C
  C618     1.0000 0.60341  0.43550  0.19177  Biso   1.000  C
  C619     1.0000 0.60840  0.42820  0.22272  Biso   1.000  C
  H417     1.0000 0.62320  0.43940  0.23300  Biso   1.000  H
  N305     1.0000 0.60560  0.37450  0.31350  Biso   1.000  N
  C620     1.0000 0.60020  0.36630  0.27650  Biso   1.000  C
  H418     1.0000 0.58340  0.35450  0.27110  Biso   1.000  H
  N306     1.0000 0.61610  0.36380  0.30200  Biso   1.000  N
  C621     1.0000 0.61600  0.42290  0.21710  Biso   1.000  C
  H419     1.0000 0.63340  0.43120  0.22590  Biso   1.000  H
  H420     1.0000 0.57240  0.36570  0.28310  Biso   1.000  H
  O211     1.0000 0.64409  0.96934  0.68761  Biso   1.000  O
  O212     1.0000 0.60851  0.96879  0.65170  Biso   1.000  O
  C622     1.0000 0.61934  0.95927  0.67559  Biso   1.000  C
  C623     1.0000 0.60341  0.93550  0.69177  Biso   1.000  C
  C624     1.0000 0.60840  0.92820  0.72272  Biso   1.000  C
  H421     1.0000 0.62320  0.93940  0.73300  Biso   1.000  H
  N307     1.0000 0.60560  0.87450  0.81350  Biso   1.000  N
  C625     1.0000 0.60020  0.86630  0.77650  Biso   1.000  C
  H422     1.0000 0.58340  0.85450  0.77110  Biso   1.000  H
  N308     1.0000 0.61610  0.86380  0.80200  Biso   1.000  N
  C626     1.0000 0.61600  0.92290  0.71710  Biso   1.000  C
  H423     1.0000 0.63340  0.93120  0.72590  Biso   1.000  H
  H424     1.0000 0.57240  0.86570  0.78310  Biso   1.000  H
  O213     1.0000 0.14409  0.46934  0.68761  Biso   1.000  O
  O214     1.0000 0.10851  0.46879  0.65170  Biso   1.000  O
  C627     1.0000 0.11934  0.45927  0.67559  Biso   1.000  C
  C628     1.0000 0.10341  0.43550  0.69177  Biso   1.000  C
  C629     1.0000 0.10840  0.42820  0.72272  Biso   1.000  C
  H425     1.0000 0.12320  0.43940  0.73300  Biso   1.000  H
  N309     1.0000 0.10560  0.37450  0.81350  Biso   1.000  N
  C630     1.0000 0.10020  0.36630  0.77650  Biso   1.000  C
  H426     1.0000 0.08340  0.35450  0.77110  Biso   1.000  H
  N310     1.0000 0.11610  0.36380  0.80200  Biso   1.000  N
  C631     1.0000 0.11600  0.42290  0.71710  Biso   1.000  C
  H427     1.0000 0.13340  0.43120  0.72590  Biso   1.000  H
  H428     1.0000 0.07240  0.36570  0.78310  Biso   1.000  H
  O215     1.0000 0.14409  0.96934  0.18761  Biso   1.000  O
  O216     1.0000 0.10851  0.96879  0.15170  Biso   1.000  O
  C632     1.0000 0.11934  0.95927  0.17559  Biso   1.000  C
  C633     1.0000 0.10341  0.93550  0.19177  Biso   1.000  C
  C634     1.0000 0.10840  0.92820  0.22272  Biso   1.000  C
  H429     1.0000 0.12320  0.93940  0.23300  Biso   1.000  H
  N311     1.0000 0.10560  0.87450  0.31350  Biso   1.000  N
  C635     1.0000 0.10020  0.86630  0.27650  Biso   1.000  C
  H430     1.0000 0.08340  0.85450  0.27110  Biso   1.000  H
  N312     1.0000 0.11610  0.86380  0.30200  Biso   1.000  N
  C636     1.0000 0.11600  0.92290  0.21710  Biso   1.000  C
  H431     1.0000 0.13340  0.93120  0.22590  Biso   1.000  H
  H432     1.0000 0.07240  0.86570  0.28310  Biso   1.000  H
  O217     1.0000 0.35591  0.53066  0.18761  Biso   1.000  O
  O218     1.0000 0.39149  0.53121  0.15170  Biso   1.000  O
  C637     1.0000 0.38066  0.54073  0.17559  Biso   1.000  C
  C638     1.0000 0.39659  0.56450  0.19177  Biso   1.000  C
  C639     1.0000 0.39160  0.57180  0.22272  Biso   1.000  C
  H433     1.0000 0.37680  0.56060  0.23300  Biso   1.000  H
  N313     1.0000 0.39440  0.62550  0.31350  Biso   1.000  N
  C640     1.0000 0.39980  0.63370  0.27650  Biso   1.000  C
  H434     1.0000 0.41660  0.64550  0.27110  Biso   1.000  H
  N314     1.0000 0.38390  0.63620  0.30200  Biso   1.000  N
  C641     1.0000 0.38400  0.57710  0.21710  Biso   1.000  C
  H435     1.0000 0.36660  0.56880  0.22590  Biso   1.000  H
  H436     1.0000 0.42760  0.63430  0.28310  Biso   1.000  H
  O219     1.0000 0.35591  0.03066  0.68761  Biso   1.000  O
  O220     1.0000 0.39149  0.03121  0.65170  Biso   1.000  O
  C642     1.0000 0.38066  0.04073  0.67559  Biso   1.000  C
  C643     1.0000 0.39659  0.06450  0.69177  Biso   1.000  C
  C644     1.0000 0.39160  0.07180  0.72272  Biso   1.000  C
  H437     1.0000 0.37680  0.06060  0.73300  Biso   1.000  H
  N315     1.0000 0.39440  0.12550  0.81350  Biso   1.000  N
  C645     1.0000 0.39980  0.13370  0.77650  Biso   1.000  C
  H438     1.0000 0.41660  0.14550  0.77110  Biso   1.000  H
  N316     1.0000 0.38390  0.13620  0.80200  Biso   1.000  N
  C646     1.0000 0.38400  0.07710  0.71710  Biso   1.000  C
  H439     1.0000 0.36660  0.06880  0.72590  Biso   1.000  H
  H440     1.0000 0.42760  0.13430  0.78310  Biso   1.000  H
  O221     1.0000 0.85591  0.53066  0.68761  Biso   1.000  O
  O222     1.0000 0.89149  0.53121  0.65170  Biso   1.000  O
  C647     1.0000 0.88066  0.54073  0.67559  Biso   1.000  C
  C648     1.0000 0.89659  0.56450  0.69177  Biso   1.000  C
  C649     1.0000 0.89160  0.57180  0.72272  Biso   1.000  C
  H441     1.0000 0.87680  0.56060  0.73300  Biso   1.000  H
  N317     1.0000 0.89440  0.62550  0.81350  Biso   1.000  N
  C650     1.0000 0.89980  0.63370  0.77650  Biso   1.000  C
  H442     1.0000 0.91660  0.64550  0.77110  Biso   1.000  H
  N318     1.0000 0.88390  0.63620  0.80200  Biso   1.000  N
  C651     1.0000 0.88400  0.57710  0.71710  Biso   1.000  C
  H443     1.0000 0.86660  0.56880  0.72590  Biso   1.000  H
  H444     1.0000 0.92760  0.63430  0.78310  Biso   1.000  H
  O223     1.0000 0.85591  0.03066  0.18761  Biso   1.000  O
  O224     1.0000 0.89149  0.03121  0.15170  Biso   1.000  O
  C652     1.0000 0.88066  0.04073  0.17559  Biso   1.000  C
  C653     1.0000 0.89659  0.06450  0.19177  Biso   1.000  C
  C654     1.0000 0.89160  0.07180  0.22272  Biso   1.000  C
  H445     1.0000 0.87680  0.06060  0.23300  Biso   1.000  H
  N319     1.0000 0.89440  0.12550  0.31350  Biso   1.000  N
  C655     1.0000 0.89980  0.13370  0.27650  Biso   1.000  C
  H446     1.0000 0.91660  0.14550  0.27110  Biso   1.000  H
  N320     1.0000 0.88390  0.13620  0.30200  Biso   1.000  N
  C656     1.0000 0.88400  0.07710  0.21710  Biso   1.000  C
  H447     1.0000 0.86660  0.06880  0.22590  Biso   1.000  H
  H448     1.0000 0.92760  0.13430  0.28310  Biso   1.000  H
  O225     1.0000 0.81239  0.35591  0.46934  Biso   1.000  O
  O226     1.0000 0.84830  0.39149  0.46879  Biso   1.000  O
  C657     1.0000 0.82441  0.38066  0.45927  Biso   1.000  C
  C658     1.0000 0.80823  0.39659  0.43550  Biso   1.000  C
  C659     1.0000 0.77728  0.39160  0.42820  Biso   1.000  C
  H449     1.0000 0.76700  0.37680  0.43940  Biso   1.000  H
  N321     1.0000 0.68650  0.39440  0.37450  Biso   1.000  N
  C660     1.0000 0.72350  0.39980  0.36630  Biso   1.000  C
  H450     1.0000 0.72890  0.41660  0.35450  Biso   1.000  H
  N322     1.0000 0.69800  0.38390  0.36380  Biso   1.000  N
  C661     1.0000 0.78290  0.38400  0.42290  Biso   1.000  C
  H451     1.0000 0.77410  0.36660  0.43120  Biso   1.000  H
  H452     1.0000 0.71690  0.42760  0.36570  Biso   1.000  H
  O227     1.0000 0.81239  0.85591  0.96934  Biso   1.000  O
  O228     1.0000 0.84830  0.89149  0.96879  Biso   1.000  O
  C662     1.0000 0.82441  0.88066  0.95927  Biso   1.000  C
  C663     1.0000 0.80823  0.89659  0.93550  Biso   1.000  C
  C664     1.0000 0.77728  0.89160  0.92820  Biso   1.000  C
  H453     1.0000 0.76700  0.87680  0.93940  Biso   1.000  H
  N323     1.0000 0.68650  0.89440  0.87450  Biso   1.000  N
  C665     1.0000 0.72350  0.89980  0.86630  Biso   1.000  C
  H454     1.0000 0.72890  0.91660  0.85450  Biso   1.000  H
  N324     1.0000 0.69800  0.88390  0.86380  Biso   1.000  N
  C666     1.0000 0.78290  0.88400  0.92290  Biso   1.000  C
  H455     1.0000 0.77410  0.86660  0.93120  Biso   1.000  H
  H456     1.0000 0.71690  0.92760  0.86570  Biso   1.000  H
  O229     1.0000 0.31239  0.35591  0.96934  Biso   1.000  O
  O230     1.0000 0.34830  0.39149  0.96879  Biso   1.000  O
  C667     1.0000 0.32441  0.38066  0.95927  Biso   1.000  C
  C668     1.0000 0.30823  0.39659  0.93550  Biso   1.000  C
  C669     1.0000 0.27728  0.39160  0.92820  Biso   1.000  C
  H457     1.0000 0.26700  0.37680  0.93940  Biso   1.000  H
  N325     1.0000 0.18650  0.39440  0.87450  Biso   1.000  N
  C670     1.0000 0.22350  0.39980  0.86630  Biso   1.000  C
  H458     1.0000 0.22890  0.41660  0.85450  Biso   1.000  H
  N326     1.0000 0.19800  0.38390  0.86380  Biso   1.000  N
  C671     1.0000 0.28290  0.38400  0.92290  Biso   1.000  C
  H459     1.0000 0.27410  0.36660  0.93120  Biso   1.000  H
  H460     1.0000 0.21690  0.42760  0.86570  Biso   1.000  H
  O231     1.0000 0.31239  0.85591  0.46934  Biso   1.000  O
  O232     1.0000 0.34830  0.89149  0.46879  Biso   1.000  O
  C672     1.0000 0.32441  0.88066  0.45927  Biso   1.000  C
  C673     1.0000 0.30823  0.89659  0.43550  Biso   1.000  C
  C674     1.0000 0.27728  0.89160  0.42820  Biso   1.000  C
  H461     1.0000 0.26700  0.87680  0.43940  Biso   1.000  H
  N327     1.0000 0.18650  0.89440  0.37450  Biso   1.000  N
  C675     1.0000 0.22350  0.89980  0.36630  Biso   1.000  C
  H462     1.0000 0.22890  0.91660  0.35450  Biso   1.000  H
  N328     1.0000 0.19800  0.88390  0.36380  Biso   1.000  N
  C676     1.0000 0.28290  0.88400  0.42290  Biso   1.000  C
  H463     1.0000 0.27410  0.86660  0.43120  Biso   1.000  H
  H464     1.0000 0.21690  0.92760  0.36570  Biso   1.000  H
  O233     1.0000 0.81239  0.64409  0.53066  Biso   1.000  O
  O234     1.0000 0.84830  0.60851  0.53121  Biso   1.000  O
  C677     1.0000 0.82441  0.61934  0.54073  Biso   1.000  C
  C678     1.0000 0.80823  0.60341  0.56450  Biso   1.000  C
  C679     1.0000 0.77728  0.60840  0.57180  Biso   1.000  C
  H465     1.0000 0.76700  0.62320  0.56060  Biso   1.000  H
  N329     1.0000 0.68650  0.60560  0.62550  Biso   1.000  N
  C680     1.0000 0.72350  0.60020  0.63370  Biso   1.000  C
  H466     1.0000 0.72890  0.58340  0.64550  Biso   1.000  H
  N330     1.0000 0.69800  0.61610  0.63620  Biso   1.000  N
  C681     1.0000 0.78290  0.61600  0.57710  Biso   1.000  C
  H467     1.0000 0.77410  0.63340  0.56880  Biso   1.000  H
  H468     1.0000 0.71690  0.57240  0.63430  Biso   1.000  H
  O235     1.0000 0.81239  0.14409  0.03066  Biso   1.000  O
  O236     1.0000 0.84830  0.10851  0.03121  Biso   1.000  O
  C682     1.0000 0.82441  0.11934  0.04073  Biso   1.000  C
  C683     1.0000 0.80823  0.10341  0.06450  Biso   1.000  C
  C684     1.0000 0.77728  0.10840  0.07180  Biso   1.000  C
  H469     1.0000 0.76700  0.12320  0.06060  Biso   1.000  H
  N331     1.0000 0.68650  0.10560  0.12550  Biso   1.000  N
  C685     1.0000 0.72350  0.10020  0.13370  Biso   1.000  C
  H470     1.0000 0.72890  0.08340  0.14550  Biso   1.000  H
  N332     1.0000 0.69800  0.11610  0.13620  Biso   1.000  N
  C686     1.0000 0.78290  0.11600  0.07710  Biso   1.000  C
  H471     1.0000 0.77410  0.13340  0.06880  Biso   1.000  H
  H472     1.0000 0.71690  0.07240  0.13430  Biso   1.000  H
  O237     1.0000 0.31239  0.64409  0.03066  Biso   1.000  O
  O238     1.0000 0.34830  0.60851  0.03121  Biso   1.000  O
  C687     1.0000 0.32441  0.61934  0.04073  Biso   1.000  C
  C688     1.0000 0.30823  0.60341  0.06450  Biso   1.000  C
  C689     1.0000 0.27728  0.60840  0.07180  Biso   1.000  C
  H473     1.0000 0.26700  0.62320  0.06060  Biso   1.000  H
  N333     1.0000 0.18650  0.60560  0.12550  Biso   1.000  N
  C690     1.0000 0.22350  0.60020  0.13370  Biso   1.000  C
  H474     1.0000 0.22890  0.58340  0.14550  Biso   1.000  H
  N334     1.0000 0.19800  0.61610  0.13620  Biso   1.000  N
  C691     1.0000 0.28290  0.61600  0.07710  Biso   1.000  C
  H475     1.0000 0.27410  0.63340  0.06880  Biso   1.000  H
  H476     1.0000 0.21690  0.57240  0.13430  Biso   1.000  H
  O239     1.0000 0.31239  0.14409  0.53066  Biso   1.000  O
  O240     1.0000 0.34830  0.10851  0.53121  Biso   1.000  O
  C692     1.0000 0.32441  0.11934  0.54073  Biso   1.000  C
  C693     1.0000 0.30823  0.10341  0.56450  Biso   1.000  C
  C694     1.0000 0.27728  0.10840  0.57180  Biso   1.000  C
  H477     1.0000 0.26700  0.12320  0.56060  Biso   1.000  H
  N335     1.0000 0.18650  0.10560  0.62550  Biso   1.000  N
  C695     1.0000 0.22350  0.10020  0.63370  Biso   1.000  C
  H478     1.0000 0.22890  0.08340  0.64550  Biso   1.000  H
  N336     1.0000 0.19800  0.11610  0.63620  Biso   1.000  N
  C696     1.0000 0.28290  0.11600  0.57710  Biso   1.000  C
  H479     1.0000 0.27410  0.13340  0.56880  Biso   1.000  H
  H480     1.0000 0.21690  0.07240  0.63430  Biso   1.000  H
  O241     1.0000 0.18761  0.64409  0.46934  Biso   1.000  O
  O242     1.0000 0.15170  0.60851  0.46879  Biso   1.000  O
  C697     1.0000 0.17559  0.61934  0.45927  Biso   1.000  C
  C698     1.0000 0.19177  0.60341  0.43550  Biso   1.000  C
  C699     1.0000 0.22272  0.60840  0.42820  Biso   1.000  C
  H481     1.0000 0.23300  0.62320  0.43940  Biso   1.000  H
  N337     1.0000 0.31350  0.60560  0.37450  Biso   1.000  N
  C700     1.0000 0.27650  0.60020  0.36630  Biso   1.000  C
  H482     1.0000 0.27110  0.58340  0.35450  Biso   1.000  H
  N338     1.0000 0.30200  0.61610  0.36380  Biso   1.000  N
  C701     1.0000 0.21710  0.61600  0.42290  Biso   1.000  C
  H483     1.0000 0.22590  0.63340  0.43120  Biso   1.000  H
  H484     1.0000 0.28310  0.57240  0.36570  Biso   1.000  H
  O243     1.0000 0.18761  0.14409  0.96934  Biso   1.000  O
  O244     1.0000 0.15170  0.10851  0.96879  Biso   1.000  O
  C702     1.0000 0.17559  0.11934  0.95927  Biso   1.000  C
  C703     1.0000 0.19177  0.10341  0.93550  Biso   1.000  C
  C704     1.0000 0.22272  0.10840  0.92820  Biso   1.000  C
  H485     1.0000 0.23300  0.12320  0.93940  Biso   1.000  H
  N339     1.0000 0.31350  0.10560  0.87450  Biso   1.000  N
  C705     1.0000 0.27650  0.10020  0.86630  Biso   1.000  C
  H486     1.0000 0.27110  0.08340  0.85450  Biso   1.000  H
  N340     1.0000 0.30200  0.11610  0.86380  Biso   1.000  N
  C706     1.0000 0.21710  0.11600  0.92290  Biso   1.000  C
  H487     1.0000 0.22590  0.13340  0.93120  Biso   1.000  H
  H488     1.0000 0.28310  0.07240  0.86570  Biso   1.000  H
  O245     1.0000 0.68761  0.64409  0.96934  Biso   1.000  O
  O246     1.0000 0.65170  0.60851  0.96879  Biso   1.000  O
  C707     1.0000 0.67559  0.61934  0.95927  Biso   1.000  C
  C708     1.0000 0.69177  0.60341  0.93550  Biso   1.000  C
  C709     1.0000 0.72272  0.60840  0.92820  Biso   1.000  C
  H489     1.0000 0.73300  0.62320  0.93940  Biso   1.000  H
  N341     1.0000 0.81350  0.60560  0.87450  Biso   1.000  N
  C710     1.0000 0.77650  0.60020  0.86630  Biso   1.000  C
  H490     1.0000 0.77110  0.58340  0.85450  Biso   1.000  H
  N342     1.0000 0.80200  0.61610  0.86380  Biso   1.000  N
  C711     1.0000 0.71710  0.61600  0.92290  Biso   1.000  C
  H491     1.0000 0.72590  0.63340  0.93120  Biso   1.000  H
  H492     1.0000 0.78310  0.57240  0.86570  Biso   1.000  H
  O247     1.0000 0.68761  0.14409  0.46934  Biso   1.000  O
  O248     1.0000 0.65170  0.10851  0.46879  Biso   1.000  O
  C712     1.0000 0.67559  0.11934  0.45927  Biso   1.000  C
  C713     1.0000 0.69177  0.10341  0.43550  Biso   1.000  C
  C714     1.0000 0.72272  0.10840  0.42820  Biso   1.000  C
  H493     1.0000 0.73300  0.12320  0.43940  Biso   1.000  H
  N343     1.0000 0.81350  0.10560  0.37450  Biso   1.000  N
  C715     1.0000 0.77650  0.10020  0.36630  Biso   1.000  C
  H494     1.0000 0.77110  0.08340  0.35450  Biso   1.000  H
  N344     1.0000 0.80200  0.11610  0.36380  Biso   1.000  N
  C716     1.0000 0.71710  0.11600  0.42290  Biso   1.000  C
  H495     1.0000 0.72590  0.13340  0.43120  Biso   1.000  H
  H496     1.0000 0.78310  0.07240  0.36570  Biso   1.000  H
  O249     1.0000 0.18761  0.35591  0.53066  Biso   1.000  O
  O250     1.0000 0.15170  0.39149  0.53121  Biso   1.000  O
  C717     1.0000 0.17559  0.38066  0.54073  Biso   1.000  C
  C718     1.0000 0.19177  0.39659  0.56450  Biso   1.000  C
  C719     1.0000 0.22272  0.39160  0.57180  Biso   1.000  C
  H497     1.0000 0.23300  0.37680  0.56060  Biso   1.000  H
  N345     1.0000 0.31350  0.39440  0.62550  Biso   1.000  N
  C720     1.0000 0.27650  0.39980  0.63370  Biso   1.000  C
  H498     1.0000 0.27110  0.41660  0.64550  Biso   1.000  H
  N346     1.0000 0.30200  0.38390  0.63620  Biso   1.000  N
  C721     1.0000 0.21710  0.38400  0.57710  Biso   1.000  C
  H499     1.0000 0.22590  0.36660  0.56880  Biso   1.000  H
  H500     1.0000 0.28310  0.42760  0.63430  Biso   1.000  H
  O251     1.0000 0.18761  0.85591  0.03066  Biso   1.000  O
  O252     1.0000 0.15170  0.89149  0.03121  Biso   1.000  O
  C722     1.0000 0.17559  0.88066  0.04073  Biso   1.000  C
  C723     1.0000 0.19177  0.89659  0.06450  Biso   1.000  C
  C724     1.0000 0.22272  0.89160  0.07180  Biso   1.000  C
  H501     1.0000 0.23300  0.87680  0.06060  Biso   1.000  H
  N347     1.0000 0.31350  0.89440  0.12550  Biso   1.000  N
  C725     1.0000 0.27650  0.89980  0.13370  Biso   1.000  C
  H502     1.0000 0.27110  0.91660  0.14550  Biso   1.000  H
  N348     1.0000 0.30200  0.88390  0.13620  Biso   1.000  N
  C726     1.0000 0.21710  0.88400  0.07710  Biso   1.000  C
  H503     1.0000 0.22590  0.86660  0.06880  Biso   1.000  H
  H504     1.0000 0.28310  0.92760  0.13430  Biso   1.000  H
  O253     1.0000 0.68761  0.35591  0.03066  Biso   1.000  O
  O254     1.0000 0.65170  0.39149  0.03121  Biso   1.000  O
  C727     1.0000 0.67559  0.38066  0.04073  Biso   1.000  C
  C728     1.0000 0.69177  0.39659  0.06450  Biso   1.000  C
  C729     1.0000 0.72272  0.39160  0.07180  Biso   1.000  C
  H505     1.0000 0.73300  0.37680  0.06060  Biso   1.000  H
  N349     1.0000 0.81350  0.39440  0.12550  Biso   1.000  N
  C730     1.0000 0.77650  0.39980  0.13370  Biso   1.000  C
  H506     1.0000 0.77110  0.41660  0.14550  Biso   1.000  H
  N350     1.0000 0.80200  0.38390  0.13620  Biso   1.000  N
  C731     1.0000 0.71710  0.38400  0.07710  Biso   1.000  C
  H507     1.0000 0.72590  0.36660  0.06880  Biso   1.000  H
  H508     1.0000 0.78310  0.42760  0.13430  Biso   1.000  H
  O255     1.0000 0.68761  0.85591  0.53066  Biso   1.000  O
  O256     1.0000 0.65170  0.89149  0.53121  Biso   1.000  O
  C732     1.0000 0.67559  0.88066  0.54073  Biso   1.000  C
  C733     1.0000 0.69177  0.89659  0.56450  Biso   1.000  C
  C734     1.0000 0.72272  0.89160  0.57180  Biso   1.000  C
  H509     1.0000 0.73300  0.87680  0.56060  Biso   1.000  H
  N351     1.0000 0.81350  0.89440  0.62550  Biso   1.000  N
  C735     1.0000 0.77650  0.89980  0.63370  Biso   1.000  C
  H510     1.0000 0.77110  0.91660  0.64550  Biso   1.000  H
  N352     1.0000 0.80200  0.88390  0.63620  Biso   1.000  N
  C736     1.0000 0.71710  0.88400  0.57710  Biso   1.000  C
  H511     1.0000 0.72590  0.86660  0.56880  Biso   1.000  H
  H512     1.0000 0.78310  0.92760  0.63430  Biso   1.000  H
  O257     1.0000 0.46934  0.81239  0.35591  Biso   1.000  O
  O258     1.0000 0.46879  0.84830  0.39149  Biso   1.000  O
  C737     1.0000 0.45927  0.82441  0.38066  Biso   1.000  C
  C738     1.0000 0.43550  0.80823  0.39659  Biso   1.000  C
  C739     1.0000 0.42820  0.77728  0.39160  Biso   1.000  C
  H513     1.0000 0.43940  0.76700  0.37680  Biso   1.000  H
  N353     1.0000 0.37450  0.68650  0.39440  Biso   1.000  N
  C740     1.0000 0.36630  0.72350  0.39980  Biso   1.000  C
  H514     1.0000 0.35450  0.72890  0.41660  Biso   1.000  H
  N354     1.0000 0.36380  0.69800  0.38390  Biso   1.000  N
  C741     1.0000 0.42290  0.78290  0.38400  Biso   1.000  C
  H515     1.0000 0.43120  0.77410  0.36660  Biso   1.000  H
  H516     1.0000 0.36570  0.71690  0.42760  Biso   1.000  H
  O259     1.0000 0.46934  0.31239  0.85591  Biso   1.000  O
  O260     1.0000 0.46879  0.34830  0.89149  Biso   1.000  O
  C742     1.0000 0.45927  0.32441  0.88066  Biso   1.000  C
  C743     1.0000 0.43550  0.30823  0.89659  Biso   1.000  C
  C744     1.0000 0.42820  0.27728  0.89160  Biso   1.000  C
  H517     1.0000 0.43940  0.26700  0.87680  Biso   1.000  H
  N355     1.0000 0.37450  0.18650  0.89440  Biso   1.000  N
  C745     1.0000 0.36630  0.22350  0.89980  Biso   1.000  C
  H518     1.0000 0.35450  0.22890  0.91660  Biso   1.000  H
  N356     1.0000 0.36380  0.19800  0.88390  Biso   1.000  N
  C746     1.0000 0.42290  0.28290  0.88400  Biso   1.000  C
  H519     1.0000 0.43120  0.27410  0.86660  Biso   1.000  H
  H520     1.0000 0.36570  0.21690  0.92760  Biso   1.000  H
  O261     1.0000 0.96934  0.81239  0.85591  Biso   1.000  O
  O262     1.0000 0.96879  0.84830  0.89149  Biso   1.000  O
  C747     1.0000 0.95927  0.82441  0.88066  Biso   1.000  C
  C748     1.0000 0.93550  0.80823  0.89659  Biso   1.000  C
  C749     1.0000 0.92820  0.77728  0.89160  Biso   1.000  C
  H521     1.0000 0.93940  0.76700  0.87680  Biso   1.000  H
  N357     1.0000 0.87450  0.68650  0.89440  Biso   1.000  N
  C750     1.0000 0.86630  0.72350  0.89980  Biso   1.000  C
  H522     1.0000 0.85450  0.72890  0.91660  Biso   1.000  H
  N358     1.0000 0.86380  0.69800  0.88390  Biso   1.000  N
  C751     1.0000 0.92290  0.78290  0.88400  Biso   1.000  C
  H523     1.0000 0.93120  0.77410  0.86660  Biso   1.000  H
  H524     1.0000 0.86570  0.71690  0.92760  Biso   1.000  H
  O263     1.0000 0.96934  0.31239  0.35591  Biso   1.000  O
  O264     1.0000 0.96879  0.34830  0.39149  Biso   1.000  O
  C752     1.0000 0.95927  0.32441  0.38066  Biso   1.000  C
  C753     1.0000 0.93550  0.30823  0.39659  Biso   1.000  C
  C754     1.0000 0.92820  0.27728  0.39160  Biso   1.000  C
  H525     1.0000 0.93940  0.26700  0.37680  Biso   1.000  H
  N359     1.0000 0.87450  0.18650  0.39440  Biso   1.000  N
  C755     1.0000 0.86630  0.22350  0.39980  Biso   1.000  C
  H526     1.0000 0.85450  0.22890  0.41660  Biso   1.000  H
  N360     1.0000 0.86380  0.19800  0.38390  Biso   1.000  N
  C756     1.0000 0.92290  0.28290  0.38400  Biso   1.000  C
  H527     1.0000 0.93120  0.27410  0.36660  Biso   1.000  H
  H528     1.0000 0.86570  0.21690  0.42760  Biso   1.000  H
  O265     1.0000 0.53066  0.81239  0.64409  Biso   1.000  O
  O266     1.0000 0.53121  0.84830  0.60851  Biso   1.000  O
  C757     1.0000 0.54073  0.82441  0.61934  Biso   1.000  C
  C758     1.0000 0.56450  0.80823  0.60341  Biso   1.000  C
  C759     1.0000 0.57180  0.77728  0.60840  Biso   1.000  C
  H529     1.0000 0.56060  0.76700  0.62320  Biso   1.000  H
  N361     1.0000 0.62550  0.68650  0.60560  Biso   1.000  N
  C760     1.0000 0.63370  0.72350  0.60020  Biso   1.000  C
  H530     1.0000 0.64550  0.72890  0.58340  Biso   1.000  H
  N362     1.0000 0.63620  0.69800  0.61610  Biso   1.000  N
  C761     1.0000 0.57710  0.78290  0.61600  Biso   1.000  C
  H531     1.0000 0.56880  0.77410  0.63340  Biso   1.000  H
  H532     1.0000 0.63430  0.71690  0.57240  Biso   1.000  H
  O267     1.0000 0.53066  0.31239  0.14409  Biso   1.000  O
  O268     1.0000 0.53121  0.34830  0.10851  Biso   1.000  O
  C762     1.0000 0.54073  0.32441  0.11934  Biso   1.000  C
  C763     1.0000 0.56450  0.30823  0.10341  Biso   1.000  C
  C764     1.0000 0.57180  0.27728  0.10840  Biso   1.000  C
  H533     1.0000 0.56060  0.26700  0.12320  Biso   1.000  H
  N363     1.0000 0.62550  0.18650  0.10560  Biso   1.000  N
  C765     1.0000 0.63370  0.22350  0.10020  Biso   1.000  C
  H534     1.0000 0.64550  0.22890  0.08340  Biso   1.000  H
  N364     1.0000 0.63620  0.19800  0.11610  Biso   1.000  N
  C766     1.0000 0.57710  0.28290  0.11600  Biso   1.000  C
  H535     1.0000 0.56880  0.27410  0.13340  Biso   1.000  H
  H536     1.0000 0.63430  0.21690  0.07240  Biso   1.000  H
  O269     1.0000 0.03066  0.81239  0.14409  Biso   1.000  O
  O270     1.0000 0.03121  0.84830  0.10851  Biso   1.000  O
  C767     1.0000 0.04073  0.82441  0.11934  Biso   1.000  C
  C768     1.0000 0.06450  0.80823  0.10341  Biso   1.000  C
  C769     1.0000 0.07180  0.77728  0.10840  Biso   1.000  C
  H537     1.0000 0.06060  0.76700  0.12320  Biso   1.000  H
  N365     1.0000 0.12550  0.68650  0.10560  Biso   1.000  N
  C770     1.0000 0.13370  0.72350  0.10020  Biso   1.000  C
  H538     1.0000 0.14550  0.72890  0.08340  Biso   1.000  H
  N366     1.0000 0.13620  0.69800  0.11610  Biso   1.000  N
  C771     1.0000 0.07710  0.78290  0.11600  Biso   1.000  C
  H539     1.0000 0.06880  0.77410  0.13340  Biso   1.000  H
  H540     1.0000 0.13430  0.71690  0.07240  Biso   1.000  H
  O271     1.0000 0.03066  0.31239  0.64409  Biso   1.000  O
  O272     1.0000 0.03121  0.34830  0.60851  Biso   1.000  O
  C772     1.0000 0.04073  0.32441  0.61934  Biso   1.000  C
  C773     1.0000 0.06450  0.30823  0.60341  Biso   1.000  C
  C774     1.0000 0.07180  0.27728  0.60840  Biso   1.000  C
  H541     1.0000 0.06060  0.26700  0.62320  Biso   1.000  H
  N367     1.0000 0.12550  0.18650  0.60560  Biso   1.000  N
  C775     1.0000 0.13370  0.22350  0.60020  Biso   1.000  C
  H542     1.0000 0.14550  0.22890  0.58340  Biso   1.000  H
  N368     1.0000 0.13620  0.19800  0.61610  Biso   1.000  N
  C776     1.0000 0.07710  0.28290  0.61600  Biso   1.000  C
  H543     1.0000 0.06880  0.27410  0.63340  Biso   1.000  H
  H544     1.0000 0.13430  0.21690  0.57240  Biso   1.000  H
  O273     1.0000 0.46934  0.18761  0.64409  Biso   1.000  O
  O274     1.0000 0.46879  0.15170  0.60851  Biso   1.000  O
  C777     1.0000 0.45927  0.17559  0.61934  Biso   1.000  C
  C778     1.0000 0.43550  0.19177  0.60341  Biso   1.000  C
  C779     1.0000 0.42820  0.22272  0.60840  Biso   1.000  C
  H545     1.0000 0.43940  0.23300  0.62320  Biso   1.000  H
  N369     1.0000 0.37450  0.31350  0.60560  Biso   1.000  N
  C780     1.0000 0.36630  0.27650  0.60020  Biso   1.000  C
  H546     1.0000 0.35450  0.27110  0.58340  Biso   1.000  H
  N370     1.0000 0.36380  0.30200  0.61610  Biso   1.000  N
  C781     1.0000 0.42290  0.21710  0.61600  Biso   1.000  C
  H547     1.0000 0.43120  0.22590  0.63340  Biso   1.000  H
  H548     1.0000 0.36570  0.28310  0.57240  Biso   1.000  H
  O275     1.0000 0.46934  0.68761  0.14409  Biso   1.000  O
  O276     1.0000 0.46879  0.65170  0.10851  Biso   1.000  O
  C782     1.0000 0.45927  0.67559  0.11934  Biso   1.000  C
  C783     1.0000 0.43550  0.69177  0.10341  Biso   1.000  C
  C784     1.0000 0.42820  0.72272  0.10840  Biso   1.000  C
  H549     1.0000 0.43940  0.73300  0.12320  Biso   1.000  H
  N371     1.0000 0.37450  0.81350  0.10560  Biso   1.000  N
  C785     1.0000 0.36630  0.77650  0.10020  Biso   1.000  C
  H550     1.0000 0.35450  0.77110  0.08340  Biso   1.000  H
  N372     1.0000 0.36380  0.80200  0.11610  Biso   1.000  N
  C786     1.0000 0.42290  0.71710  0.11600  Biso   1.000  C
  H551     1.0000 0.43120  0.72590  0.13340  Biso   1.000  H
  H552     1.0000 0.36570  0.78310  0.07240  Biso   1.000  H
  O277     1.0000 0.96934  0.18761  0.14409  Biso   1.000  O
  O278     1.0000 0.96879  0.15170  0.10851  Biso   1.000  O
  C787     1.0000 0.95927  0.17559  0.11934  Biso   1.000  C
  C788     1.0000 0.93550  0.19177  0.10341  Biso   1.000  C
  C789     1.0000 0.92820  0.22272  0.10840  Biso   1.000  C
  H553     1.0000 0.93940  0.23300  0.12320  Biso   1.000  H
  N373     1.0000 0.87450  0.31350  0.10560  Biso   1.000  N
  C790     1.0000 0.86630  0.27650  0.10020  Biso   1.000  C
  H554     1.0000 0.85450  0.27110  0.08340  Biso   1.000  H
  N374     1.0000 0.86380  0.30200  0.11610  Biso   1.000  N
  C791     1.0000 0.92290  0.21710  0.11600  Biso   1.000  C
  H555     1.0000 0.93120  0.22590  0.13340  Biso   1.000  H
  H556     1.0000 0.86570  0.28310  0.07240  Biso   1.000  H
  O279     1.0000 0.96934  0.68761  0.64409  Biso   1.000  O
  O280     1.0000 0.96879  0.65170  0.60851  Biso   1.000  O
  C792     1.0000 0.95927  0.67559  0.61934  Biso   1.000  C
  C793     1.0000 0.93550  0.69177  0.60341  Biso   1.000  C
  C794     1.0000 0.92820  0.72272  0.60840  Biso   1.000  C
  H557     1.0000 0.93940  0.73300  0.62320  Biso   1.000  H
  N375     1.0000 0.87450  0.81350  0.60560  Biso   1.000  N
  C795     1.0000 0.86630  0.77650  0.60020  Biso   1.000  C
  H558     1.0000 0.85450  0.77110  0.58340  Biso   1.000  H
  N376     1.0000 0.86380  0.80200  0.61610  Biso   1.000  N
  C796     1.0000 0.92290  0.71710  0.61600  Biso   1.000  C
  H559     1.0000 0.93120  0.72590  0.63340  Biso   1.000  H
  H560     1.0000 0.86570  0.78310  0.57240  Biso   1.000  H
  O281     1.0000 0.53066  0.18761  0.35591  Biso   1.000  O
  O282     1.0000 0.53121  0.15170  0.39149  Biso   1.000  O
  C797     1.0000 0.54073  0.17559  0.38066  Biso   1.000  C
  C798     1.0000 0.56450  0.19177  0.39659  Biso   1.000  C
  C799     1.0000 0.57180  0.22272  0.39160  Biso   1.000  C
  H561     1.0000 0.56060  0.23300  0.37680  Biso   1.000  H
  N377     1.0000 0.62550  0.31350  0.39440  Biso   1.000  N
  C800     1.0000 0.63370  0.27650  0.39980  Biso   1.000  C
  H562     1.0000 0.64550  0.27110  0.41660  Biso   1.000  H
  N378     1.0000 0.63620  0.30200  0.38390  Biso   1.000  N
  C801     1.0000 0.57710  0.21710  0.38400  Biso   1.000  C
  H563     1.0000 0.56880  0.22590  0.36660  Biso   1.000  H
  H564     1.0000 0.63430  0.28310  0.42760  Biso   1.000  H
  O283     1.0000 0.53066  0.68761  0.85591  Biso   1.000  O
  O284     1.0000 0.53121  0.65170  0.89149  Biso   1.000  O
  C802     1.0000 0.54073  0.67559  0.88066  Biso   1.000  C
  C803     1.0000 0.56450  0.69177  0.89659  Biso   1.000  C
  C804     1.0000 0.57180  0.72272  0.89160  Biso   1.000  C
  H565     1.0000 0.56060  0.73300  0.87680  Biso   1.000  H
  N379     1.0000 0.62550  0.81350  0.89440  Biso   1.000  N
  C805     1.0000 0.63370  0.77650  0.89980  Biso   1.000  C
  H566     1.0000 0.64550  0.77110  0.91660  Biso   1.000  H
  N380     1.0000 0.63620  0.80200  0.88390  Biso   1.000  N
  C806     1.0000 0.57710  0.71710  0.88400  Biso   1.000  C
  H567     1.0000 0.56880  0.72590  0.86660  Biso   1.000  H
  H568     1.0000 0.63430  0.78310  0.92760  Biso   1.000  H
  O285     1.0000 0.03066  0.18761  0.85591  Biso   1.000  O
  O286     1.0000 0.03121  0.15170  0.89149  Biso   1.000  O
  C807     1.0000 0.04073  0.17559  0.88066  Biso   1.000  C
  C808     1.0000 0.06450  0.19177  0.89659  Biso   1.000  C
  C809     1.0000 0.07180  0.22272  0.89160  Biso   1.000  C
  H569     1.0000 0.06060  0.23300  0.87680  Biso   1.000  H
  N381     1.0000 0.12550  0.31350  0.89440  Biso   1.000  N
  C810     1.0000 0.13370  0.27650  0.89980  Biso   1.000  C
  H570     1.0000 0.14550  0.27110  0.91660  Biso   1.000  H
  N382     1.0000 0.13620  0.30200  0.88390  Biso   1.000  N
  C811     1.0000 0.07710  0.21710  0.88400  Biso   1.000  C
  H571     1.0000 0.06880  0.22590  0.86660  Biso   1.000  H
  H572     1.0000 0.13430  0.28310  0.92760  Biso   1.000  H
  O287     1.0000 0.03066  0.68761  0.35591  Biso   1.000  O
  O288     1.0000 0.03121  0.65170  0.39149  Biso   1.000  O
  C812     1.0000 0.04073  0.67559  0.38066  Biso   1.000  C
  C813     1.0000 0.06450  0.69177  0.39659  Biso   1.000  C
  C814     1.0000 0.07180  0.72272  0.39160  Biso   1.000  C
  H573     1.0000 0.06060  0.73300  0.37680  Biso   1.000  H
  N383     1.0000 0.12550  0.81350  0.39440  Biso   1.000  N
  C815     1.0000 0.13370  0.77650  0.39980  Biso   1.000  C
  H574     1.0000 0.14550  0.77110  0.41660  Biso   1.000  H
  N384     1.0000 0.13620  0.80200  0.38390  Biso   1.000  N
  C816     1.0000 0.07710  0.71710  0.38400  Biso   1.000  C
  H575     1.0000 0.06880  0.72590  0.36660  Biso   1.000  H
  H576     1.0000 0.13430  0.78310  0.42760  Biso   1.000  H
  O289     1.0000 0.46934  0.35591  0.18761  Biso   1.000  O
  O290     1.0000 0.46879  0.39149  0.15170  Biso   1.000  O
  C817     1.0000 0.45927  0.38066  0.17559  Biso   1.000  C
  C818     1.0000 0.43550  0.39659  0.19177  Biso   1.000  C
  C819     1.0000 0.42820  0.39160  0.22272  Biso   1.000  C
  H577     1.0000 0.43940  0.37680  0.23300  Biso   1.000  H
  N385     1.0000 0.37450  0.39440  0.31350  Biso   1.000  N
  C820     1.0000 0.36630  0.39980  0.27650  Biso   1.000  C
  H578     1.0000 0.35450  0.41660  0.27110  Biso   1.000  H
  N386     1.0000 0.36380  0.38390  0.30200  Biso   1.000  N
  C821     1.0000 0.42290  0.38400  0.21710  Biso   1.000  C
  H579     1.0000 0.43120  0.36660  0.22590  Biso   1.000  H
  H580     1.0000 0.36570  0.42760  0.28310  Biso   1.000  H
  O291     1.0000 0.46934  0.85591  0.68761  Biso   1.000  O
  O292     1.0000 0.46879  0.89149  0.65170  Biso   1.000  O
  C822     1.0000 0.45927  0.88066  0.67559  Biso   1.000  C
  C823     1.0000 0.43550  0.89659  0.69177  Biso   1.000  C
  C824     1.0000 0.42820  0.89160  0.72272  Biso   1.000  C
  H581     1.0000 0.43940  0.87680  0.73300  Biso   1.000  H
  N387     1.0000 0.37450  0.89440  0.81350  Biso   1.000  N
  C825     1.0000 0.36630  0.89980  0.77650  Biso   1.000  C
  H582     1.0000 0.35450  0.91660  0.77110  Biso   1.000  H
  N388     1.0000 0.36380  0.88390  0.80200  Biso   1.000  N
  C826     1.0000 0.42290  0.88400  0.71710  Biso   1.000  C
  H583     1.0000 0.43120  0.86660  0.72590  Biso   1.000  H
  H584     1.0000 0.36570  0.92760  0.78310  Biso   1.000  H
  O293     1.0000 0.96934  0.35591  0.68761  Biso   1.000  O
  O294     1.0000 0.96879  0.39149  0.65170  Biso   1.000  O
  C827     1.0000 0.95927  0.38066  0.67559  Biso   1.000  C
  C828     1.0000 0.93550  0.39659  0.69177  Biso   1.000  C
  C829     1.0000 0.92820  0.39160  0.72272  Biso   1.000  C
  H585     1.0000 0.93940  0.37680  0.73300  Biso   1.000  H
  N389     1.0000 0.87450  0.39440  0.81350  Biso   1.000  N
  C830     1.0000 0.86630  0.39980  0.77650  Biso   1.000  C
  H586     1.0000 0.85450  0.41660  0.77110  Biso   1.000  H
  N390     1.0000 0.86380  0.38390  0.80200  Biso   1.000  N
  C831     1.0000 0.92290  0.38400  0.71710  Biso   1.000  C
  H587     1.0000 0.93120  0.36660  0.72590  Biso   1.000  H
  H588     1.0000 0.86570  0.42760  0.78310  Biso   1.000  H
  O295     1.0000 0.96934  0.85591  0.18761  Biso   1.000  O
  O296     1.0000 0.96879  0.89149  0.15170  Biso   1.000  O
  C832     1.0000 0.95927  0.88066  0.17559  Biso   1.000  C
  C833     1.0000 0.93550  0.89659  0.19177  Biso   1.000  C
  C834     1.0000 0.92820  0.89160  0.22272  Biso   1.000  C
  H589     1.0000 0.93940  0.87680  0.23300  Biso   1.000  H
  N391     1.0000 0.87450  0.89440  0.31350  Biso   1.000  N
  C835     1.0000 0.86630  0.89980  0.27650  Biso   1.000  C
  H590     1.0000 0.85450  0.91660  0.27110  Biso   1.000  H
  N392     1.0000 0.86380  0.88390  0.30200  Biso   1.000  N
  C836     1.0000 0.92290  0.88400  0.21710  Biso   1.000  C
  H591     1.0000 0.93120  0.86660  0.22590  Biso   1.000  H
  H592     1.0000 0.86570  0.92760  0.28310  Biso   1.000  H
  O297     1.0000 0.53066  0.64409  0.18761  Biso   1.000  O
  O298     1.0000 0.53121  0.60851  0.15170  Biso   1.000  O
  C837     1.0000 0.54073  0.61934  0.17559  Biso   1.000  C
  C838     1.0000 0.56450  0.60341  0.19177  Biso   1.000  C
  C839     1.0000 0.57180  0.60840  0.22272  Biso   1.000  C
  H593     1.0000 0.56060  0.62320  0.23300  Biso   1.000  H
  N393     1.0000 0.62550  0.60560  0.31350  Biso   1.000  N
  C840     1.0000 0.63370  0.60020  0.27650  Biso   1.000  C
  H594     1.0000 0.64550  0.58340  0.27110  Biso   1.000  H
  N394     1.0000 0.63620  0.61610  0.30200  Biso   1.000  N
  C841     1.0000 0.57710  0.61600  0.21710  Biso   1.000  C
  H595     1.0000 0.56880  0.63340  0.22590  Biso   1.000  H
  H596     1.0000 0.63430  0.57240  0.28310  Biso   1.000  H
  O299     1.0000 0.53066  0.14409  0.68761  Biso   1.000  O
  O300     1.0000 0.53121  0.10851  0.65170  Biso   1.000  O
  C842     1.0000 0.54073  0.11934  0.67559  Biso   1.000  C
  C843     1.0000 0.56450  0.10341  0.69177  Biso   1.000  C
  C844     1.0000 0.57180  0.10840  0.72272  Biso   1.000  C
  H597     1.0000 0.56060  0.12320  0.73300  Biso   1.000  H
  N395     1.0000 0.62550  0.10560  0.81350  Biso   1.000  N
  C845     1.0000 0.63370  0.10020  0.77650  Biso   1.000  C
  H598     1.0000 0.64550  0.08340  0.77110  Biso   1.000  H
  N396     1.0000 0.63620  0.11610  0.80200  Biso   1.000  N
  C846     1.0000 0.57710  0.11600  0.71710  Biso   1.000  C
  H599     1.0000 0.56880  0.13340  0.72590  Biso   1.000  H
  H600     1.0000 0.63430  0.07240  0.78310  Biso   1.000  H
  O301     1.0000 0.03066  0.64409  0.68761  Biso   1.000  O
  O302     1.0000 0.03121  0.60851  0.65170  Biso   1.000  O
  C847     1.0000 0.04073  0.61934  0.67559  Biso   1.000  C
  C848     1.0000 0.06450  0.60341  0.69177  Biso   1.000  C
  C849     1.0000 0.07180  0.60840  0.72272  Biso   1.000  C
  H601     1.0000 0.06060  0.62320  0.73300  Biso   1.000  H
  N397     1.0000 0.12550  0.60560  0.81350  Biso   1.000  N
  C850     1.0000 0.13370  0.60020  0.77650  Biso   1.000  C
  H602     1.0000 0.14550  0.58340  0.77110  Biso   1.000  H
  N398     1.0000 0.13620  0.61610  0.80200  Biso   1.000  N
  C851     1.0000 0.07710  0.61600  0.71710  Biso   1.000  C
  H603     1.0000 0.06880  0.63340  0.72590  Biso   1.000  H
  H604     1.0000 0.13430  0.57240  0.78310  Biso   1.000  H
  O303     1.0000 0.03066  0.14409  0.18761  Biso   1.000  O
  O304     1.0000 0.03121  0.10851  0.15170  Biso   1.000  O
  C852     1.0000 0.04073  0.11934  0.17559  Biso   1.000  C
  C853     1.0000 0.06450  0.10341  0.19177  Biso   1.000  C
  C854     1.0000 0.07180  0.10840  0.22272  Biso   1.000  C
  H605     1.0000 0.06060  0.12320  0.23300  Biso   1.000  H
  N399     1.0000 0.12550  0.10560  0.31350  Biso   1.000  N
  C855     1.0000 0.13370  0.10020  0.27650  Biso   1.000  C
  H606     1.0000 0.14550  0.08340  0.27110  Biso   1.000  H
  N400     1.0000 0.13620  0.11610  0.30200  Biso   1.000  N
  C856     1.0000 0.07710  0.11600  0.21710  Biso   1.000  C
  H607     1.0000 0.06880  0.13340  0.22590  Biso   1.000  H
  H608     1.0000 0.13430  0.07240  0.28310  Biso   1.000  H
  O305     1.0000 0.46934  0.64409  0.81239  Biso   1.000  O
  O306     1.0000 0.46879  0.60851  0.84830  Biso   1.000  O
  C857     1.0000 0.45927  0.61934  0.82441  Biso   1.000  C
  C858     1.0000 0.43550  0.60341  0.80823  Biso   1.000  C
  C859     1.0000 0.42820  0.60840  0.77728  Biso   1.000  C
  H609     1.0000 0.43940  0.62320  0.76700  Biso   1.000  H
  N401     1.0000 0.37450  0.60560  0.68650  Biso   1.000  N
  C860     1.0000 0.36630  0.60020  0.72350  Biso   1.000  C
  H610     1.0000 0.35450  0.58340  0.72890  Biso   1.000  H
  N402     1.0000 0.36380  0.61610  0.69800  Biso   1.000  N
  C861     1.0000 0.42290  0.61600  0.78290  Biso   1.000  C
  H611     1.0000 0.43120  0.63340  0.77410  Biso   1.000  H
  H612     1.0000 0.36570  0.57240  0.71690  Biso   1.000  H
  O307     1.0000 0.46934  0.14409  0.31239  Biso   1.000  O
  O308     1.0000 0.46879  0.10851  0.34830  Biso   1.000  O
  C862     1.0000 0.45927  0.11934  0.32441  Biso   1.000  C
  C863     1.0000 0.43550  0.10341  0.30823  Biso   1.000  C
  C864     1.0000 0.42820  0.10840  0.27728  Biso   1.000  C
  H613     1.0000 0.43940  0.12320  0.26700  Biso   1.000  H
  N403     1.0000 0.37450  0.10560  0.18650  Biso   1.000  N
  C865     1.0000 0.36630  0.10020  0.22350  Biso   1.000  C
  H614     1.0000 0.35450  0.08340  0.22890  Biso   1.000  H
  N404     1.0000 0.36380  0.11610  0.19800  Biso   1.000  N
  C866     1.0000 0.42290  0.11600  0.28290  Biso   1.000  C
  H615     1.0000 0.43120  0.13340  0.27410  Biso   1.000  H
  H616     1.0000 0.36570  0.07240  0.21690  Biso   1.000  H
  O309     1.0000 0.96934  0.64409  0.31239  Biso   1.000  O
  O310     1.0000 0.96879  0.60851  0.34830  Biso   1.000  O
  C867     1.0000 0.95927  0.61934  0.32441  Biso   1.000  C
  C868     1.0000 0.93550  0.60341  0.30823  Biso   1.000  C
  C869     1.0000 0.92820  0.60840  0.27728  Biso   1.000  C
  H617     1.0000 0.93940  0.62320  0.26700  Biso   1.000  H
  N405     1.0000 0.87450  0.60560  0.18650  Biso   1.000  N
  C870     1.0000 0.86630  0.60020  0.22350  Biso   1.000  C
  H618     1.0000 0.85450  0.58340  0.22890  Biso   1.000  H
  N406     1.0000 0.86380  0.61610  0.19800  Biso   1.000  N
  C871     1.0000 0.92290  0.61600  0.28290  Biso   1.000  C
  H619     1.0000 0.93120  0.63340  0.27410  Biso   1.000  H
  H620     1.0000 0.86570  0.57240  0.21690  Biso   1.000  H
  O311     1.0000 0.96934  0.14409  0.81239  Biso   1.000  O
  O312     1.0000 0.96879  0.10851  0.84830  Biso   1.000  O
  C872     1.0000 0.95927  0.11934  0.82441  Biso   1.000  C
  C873     1.0000 0.93550  0.10341  0.80823  Biso   1.000  C
  C874     1.0000 0.92820  0.10840  0.77728  Biso   1.000  C
  H621     1.0000 0.93940  0.12320  0.76700  Biso   1.000  H
  N407     1.0000 0.87450  0.10560  0.68650  Biso   1.000  N
  C875     1.0000 0.86630  0.10020  0.72350  Biso   1.000  C
  H622     1.0000 0.85450  0.08340  0.72890  Biso   1.000  H
  N408     1.0000 0.86380  0.11610  0.69800  Biso   1.000  N
  C876     1.0000 0.92290  0.11600  0.78290  Biso   1.000  C
  H623     1.0000 0.93120  0.13340  0.77410  Biso   1.000  H
  H624     1.0000 0.86570  0.07240  0.71690  Biso   1.000  H
  O313     1.0000 0.53066  0.35591  0.81239  Biso   1.000  O
  O314     1.0000 0.53121  0.39149  0.84830  Biso   1.000  O
  C877     1.0000 0.54073  0.38066  0.82441  Biso   1.000  C
  C878     1.0000 0.56450  0.39659  0.80823  Biso   1.000  C
  C879     1.0000 0.57180  0.39160  0.77728  Biso   1.000  C
  H625     1.0000 0.56060  0.37680  0.76700  Biso   1.000  H
  N409     1.0000 0.62550  0.39440  0.68650  Biso   1.000  N
  C880     1.0000 0.63370  0.39980  0.72350  Biso   1.000  C
  H626     1.0000 0.64550  0.41660  0.72890  Biso   1.000  H
  N410     1.0000 0.63620  0.38390  0.69800  Biso   1.000  N
  C881     1.0000 0.57710  0.38400  0.78290  Biso   1.000  C
  H627     1.0000 0.56880  0.36660  0.77410  Biso   1.000  H
  H628     1.0000 0.63430  0.42760  0.71690  Biso   1.000  H
  O315     1.0000 0.53066  0.85591  0.31239  Biso   1.000  O
  O316     1.0000 0.53121  0.89149  0.34830  Biso   1.000  O
  C882     1.0000 0.54073  0.88066  0.32441  Biso   1.000  C
  C883     1.0000 0.56450  0.89659  0.30823  Biso   1.000  C
  C884     1.0000 0.57180  0.89160  0.27728  Biso   1.000  C
  H629     1.0000 0.56060  0.87680  0.26700  Biso   1.000  H
  N411     1.0000 0.62550  0.89440  0.18650  Biso   1.000  N
  C885     1.0000 0.63370  0.89980  0.22350  Biso   1.000  C
  H630     1.0000 0.64550  0.91660  0.22890  Biso   1.000  H
  N412     1.0000 0.63620  0.88390  0.19800  Biso   1.000  N
  C886     1.0000 0.57710  0.88400  0.28290  Biso   1.000  C
  H631     1.0000 0.56880  0.86660  0.27410  Biso   1.000  H
  H632     1.0000 0.63430  0.92760  0.21690  Biso   1.000  H
  O317     1.0000 0.03066  0.35591  0.31239  Biso   1.000  O
  O318     1.0000 0.03121  0.39149  0.34830  Biso   1.000  O
  C887     1.0000 0.04073  0.38066  0.32441  Biso   1.000  C
  C888     1.0000 0.06450  0.39659  0.30823  Biso   1.000  C
  C889     1.0000 0.07180  0.39160  0.27728  Biso   1.000  C
  H633     1.0000 0.06060  0.37680  0.26700  Biso   1.000  H
  N413     1.0000 0.12550  0.39440  0.18650  Biso   1.000  N
  C890     1.0000 0.13370  0.39980  0.22350  Biso   1.000  C
  H634     1.0000 0.14550  0.41660  0.22890  Biso   1.000  H
  N414     1.0000 0.13620  0.38390  0.19800  Biso   1.000  N
  C891     1.0000 0.07710  0.38400  0.28290  Biso   1.000  C
  H635     1.0000 0.06880  0.36660  0.27410  Biso   1.000  H
  H636     1.0000 0.13430  0.42760  0.21690  Biso   1.000  H
  O319     1.0000 0.03066  0.85591  0.81239  Biso   1.000  O
  O320     1.0000 0.03121  0.89149  0.84830  Biso   1.000  O
  C892     1.0000 0.04073  0.88066  0.82441  Biso   1.000  C
  C893     1.0000 0.06450  0.89659  0.80823  Biso   1.000  C
  C894     1.0000 0.07180  0.89160  0.77728  Biso   1.000  C
  H637     1.0000 0.06060  0.87680  0.76700  Biso   1.000  H
  N415     1.0000 0.12550  0.89440  0.68650  Biso   1.000  N
  C895     1.0000 0.13370  0.89980  0.72350  Biso   1.000  C
  H638     1.0000 0.14550  0.91660  0.72890  Biso   1.000  H
  N416     1.0000 0.13620  0.88390  0.69800  Biso   1.000  N
  C896     1.0000 0.07710  0.88400  0.78290  Biso   1.000  C
  H639     1.0000 0.06880  0.86660  0.77410  Biso   1.000  H
  H640     1.0000 0.13430  0.92760  0.71690  Biso   1.000  H
  O321     1.0000 0.35591  0.81239  0.53066  Biso   1.000  O
  O322     1.0000 0.39149  0.84830  0.53121  Biso   1.000  O
  C897     1.0000 0.38066  0.82441  0.54073  Biso   1.000  C
  C898     1.0000 0.39659  0.80823  0.56450  Biso   1.000  C
  C899     1.0000 0.39160  0.77728  0.57180  Biso   1.000  C
  H641     1.0000 0.37680  0.76700  0.56060  Biso   1.000  H
  N417     1.0000 0.39440  0.68650  0.62550  Biso   1.000  N
  C900     1.0000 0.39980  0.72350  0.63370  Biso   1.000  C
  H642     1.0000 0.41660  0.72890  0.64550  Biso   1.000  H
  N418     1.0000 0.38390  0.69800  0.63620  Biso   1.000  N
  C901     1.0000 0.38400  0.78290  0.57710  Biso   1.000  C
  H643     1.0000 0.36660  0.77410  0.56880  Biso   1.000  H
  H644     1.0000 0.42760  0.71690  0.63430  Biso   1.000  H
  O323     1.0000 0.35591  0.31239  0.03066  Biso   1.000  O
  O324     1.0000 0.39149  0.34830  0.03121  Biso   1.000  O
  C902     1.0000 0.38066  0.32441  0.04073  Biso   1.000  C
  C903     1.0000 0.39659  0.30823  0.06450  Biso   1.000  C
  C904     1.0000 0.39160  0.27728  0.07180  Biso   1.000  C
  H645     1.0000 0.37680  0.26700  0.06060  Biso   1.000  H
  N419     1.0000 0.39440  0.18650  0.12550  Biso   1.000  N
  C905     1.0000 0.39980  0.22350  0.13370  Biso   1.000  C
  H646     1.0000 0.41660  0.22890  0.14550  Biso   1.000  H
  N420     1.0000 0.38390  0.19800  0.13620  Biso   1.000  N
  C906     1.0000 0.38400  0.28290  0.07710  Biso   1.000  C
  H647     1.0000 0.36660  0.27410  0.06880  Biso   1.000  H
  H648     1.0000 0.42760  0.21690  0.13430  Biso   1.000  H
  O325     1.0000 0.85591  0.81239  0.03066  Biso   1.000  O
  O326     1.0000 0.89149  0.84830  0.03121  Biso   1.000  O
  C907     1.0000 0.88066  0.82441  0.04073  Biso   1.000  C
  C908     1.0000 0.89659  0.80823  0.06450  Biso   1.000  C
  C909     1.0000 0.89160  0.77728  0.07180  Biso   1.000  C
  H649     1.0000 0.87680  0.76700  0.06060  Biso   1.000  H
  N421     1.0000 0.89440  0.68650  0.12550  Biso   1.000  N
  C910     1.0000 0.89980  0.72350  0.13370  Biso   1.000  C
  H650     1.0000 0.91660  0.72890  0.14550  Biso   1.000  H
  N422     1.0000 0.88390  0.69800  0.13620  Biso   1.000  N
  C911     1.0000 0.88400  0.78290  0.07710  Biso   1.000  C
  H651     1.0000 0.86660  0.77410  0.06880  Biso   1.000  H
  H652     1.0000 0.92760  0.71690  0.13430  Biso   1.000  H
  O327     1.0000 0.85591  0.31239  0.53066  Biso   1.000  O
  O328     1.0000 0.89149  0.34830  0.53121  Biso   1.000  O
  C912     1.0000 0.88066  0.32441  0.54073  Biso   1.000  C
  C913     1.0000 0.89659  0.30823  0.56450  Biso   1.000  C
  C914     1.0000 0.89160  0.27728  0.57180  Biso   1.000  C
  H653     1.0000 0.87680  0.26700  0.56060  Biso   1.000  H
  N423     1.0000 0.89440  0.18650  0.62550  Biso   1.000  N
  C915     1.0000 0.89980  0.22350  0.63370  Biso   1.000  C
  H654     1.0000 0.91660  0.22890  0.64550  Biso   1.000  H
  N424     1.0000 0.88390  0.19800  0.63620  Biso   1.000  N
  C916     1.0000 0.88400  0.28290  0.57710  Biso   1.000  C
  H655     1.0000 0.86660  0.27410  0.56880  Biso   1.000  H
  H656     1.0000 0.92760  0.21690  0.63430  Biso   1.000  H
  O329     1.0000 0.64409  0.81239  0.46934  Biso   1.000  O
  O330     1.0000 0.60851  0.84830  0.46879  Biso   1.000  O
  C917     1.0000 0.61934  0.82441  0.45927  Biso   1.000  C
  C918     1.0000 0.60341  0.80823  0.43550  Biso   1.000  C
  C919     1.0000 0.60840  0.77728  0.42820  Biso   1.000  C
  H657     1.0000 0.62320  0.76700  0.43940  Biso   1.000  H
  N425     1.0000 0.60560  0.68650  0.37450  Biso   1.000  N
  C920     1.0000 0.60020  0.72350  0.36630  Biso   1.000  C
  H658     1.0000 0.58340  0.72890  0.35450  Biso   1.000  H
  N426     1.0000 0.61610  0.69800  0.36380  Biso   1.000  N
  C921     1.0000 0.61600  0.78290  0.42290  Biso   1.000  C
  H659     1.0000 0.63340  0.77410  0.43120  Biso   1.000  H
  H660     1.0000 0.57240  0.71690  0.36570  Biso   1.000  H
  O331     1.0000 0.64409  0.31239  0.96934  Biso   1.000  O
  O332     1.0000 0.60851  0.34830  0.96879  Biso   1.000  O
  C922     1.0000 0.61934  0.32441  0.95927  Biso   1.000  C
  C923     1.0000 0.60341  0.30823  0.93550  Biso   1.000  C
  C924     1.0000 0.60840  0.27728  0.92820  Biso   1.000  C
  H661     1.0000 0.62320  0.26700  0.93940  Biso   1.000  H
  N427     1.0000 0.60560  0.18650  0.87450  Biso   1.000  N
  C925     1.0000 0.60020  0.22350  0.86630  Biso   1.000  C
  H662     1.0000 0.58340  0.22890  0.85450  Biso   1.000  H
  N428     1.0000 0.61610  0.19800  0.86380  Biso   1.000  N
  C926     1.0000 0.61600  0.28290  0.92290  Biso   1.000  C
  H663     1.0000 0.63340  0.27410  0.93120  Biso   1.000  H
  H664     1.0000 0.57240  0.21690  0.86570  Biso   1.000  H
  O333     1.0000 0.14409  0.81239  0.96934  Biso   1.000  O
  O334     1.0000 0.10851  0.84830  0.96879  Biso   1.000  O
  C927     1.0000 0.11934  0.82441  0.95927  Biso   1.000  C
  C928     1.0000 0.10341  0.80823  0.93550  Biso   1.000  C
  C929     1.0000 0.10840  0.77728  0.92820  Biso   1.000  C
  H665     1.0000 0.12320  0.76700  0.93940  Biso   1.000  H
  N429     1.0000 0.10560  0.68650  0.87450  Biso   1.000  N
  C930     1.0000 0.10020  0.72350  0.86630  Biso   1.000  C
  H666     1.0000 0.08340  0.72890  0.85450  Biso   1.000  H
  N430     1.0000 0.11610  0.69800  0.86380  Biso   1.000  N
  C931     1.0000 0.11600  0.78290  0.92290  Biso   1.000  C
  H667     1.0000 0.13340  0.77410  0.93120  Biso   1.000  H
  H668     1.0000 0.07240  0.71690  0.86570  Biso   1.000  H
  O335     1.0000 0.14409  0.31239  0.46934  Biso   1.000  O
  O336     1.0000 0.10851  0.34830  0.46879  Biso   1.000  O
  C932     1.0000 0.11934  0.32441  0.45927  Biso   1.000  C
  C933     1.0000 0.10341  0.30823  0.43550  Biso   1.000  C
  C934     1.0000 0.10840  0.27728  0.42820  Biso   1.000  C
  H669     1.0000 0.12320  0.26700  0.43940  Biso   1.000  H
  N431     1.0000 0.10560  0.18650  0.37450  Biso   1.000  N
  C935     1.0000 0.10020  0.22350  0.36630  Biso   1.000  C
  H670     1.0000 0.08340  0.22890  0.35450  Biso   1.000  H
  N432     1.0000 0.11610  0.19800  0.36380  Biso   1.000  N
  C936     1.0000 0.11600  0.28290  0.42290  Biso   1.000  C
  H671     1.0000 0.13340  0.27410  0.43120  Biso   1.000  H
  H672     1.0000 0.07240  0.21690  0.36570  Biso   1.000  H
  O337     1.0000 0.64409  0.18761  0.53066  Biso   1.000  O
  O338     1.0000 0.60851  0.15170  0.53121  Biso   1.000  O
  C937     1.0000 0.61934  0.17559  0.54073  Biso   1.000  C
  C938     1.0000 0.60341  0.19177  0.56450  Biso   1.000  C
  C939     1.0000 0.60840  0.22272  0.57180  Biso   1.000  C
  H673     1.0000 0.62320  0.23300  0.56060  Biso   1.000  H
  N433     1.0000 0.60560  0.31350  0.62550  Biso   1.000  N
  C940     1.0000 0.60020  0.27650  0.63370  Biso   1.000  C
  H674     1.0000 0.58340  0.27110  0.64550  Biso   1.000  H
  N434     1.0000 0.61610  0.30200  0.63620  Biso   1.000  N
  C941     1.0000 0.61600  0.21710  0.57710  Biso   1.000  C
  H675     1.0000 0.63340  0.22590  0.56880  Biso   1.000  H
  H676     1.0000 0.57240  0.28310  0.63430  Biso   1.000  H
  O339     1.0000 0.64409  0.68761  0.03066  Biso   1.000  O
  O340     1.0000 0.60851  0.65170  0.03121  Biso   1.000  O
  C942     1.0000 0.61934  0.67559  0.04073  Biso   1.000  C
  C943     1.0000 0.60341  0.69177  0.06450  Biso   1.000  C
  C944     1.0000 0.60840  0.72272  0.07180  Biso   1.000  C
  H677     1.0000 0.62320  0.73300  0.06060  Biso   1.000  H
  N435     1.0000 0.60560  0.81350  0.12550  Biso   1.000  N
  C945     1.0000 0.60020  0.77650  0.13370  Biso   1.000  C
  H678     1.0000 0.58340  0.77110  0.14550  Biso   1.000  H
  N436     1.0000 0.61610  0.80200  0.13620  Biso   1.000  N
  C946     1.0000 0.61600  0.71710  0.07710  Biso   1.000  C
  H679     1.0000 0.63340  0.72590  0.06880  Biso   1.000  H
  H680     1.0000 0.57240  0.78310  0.13430  Biso   1.000  H
  O341     1.0000 0.14409  0.18761  0.03066  Biso   1.000  O
  O342     1.0000 0.10851  0.15170  0.03121  Biso   1.000  O
  C947     1.0000 0.11934  0.17559  0.04073  Biso   1.000  C
  C948     1.0000 0.10341  0.19177  0.06450  Biso   1.000  C
  C949     1.0000 0.10840  0.22272  0.07180  Biso   1.000  C
  H681     1.0000 0.12320  0.23300  0.06060  Biso   1.000  H
  N437     1.0000 0.10560  0.31350  0.12550  Biso   1.000  N
  C950     1.0000 0.10020  0.27650  0.13370  Biso   1.000  C
  H682     1.0000 0.08340  0.27110  0.14550  Biso   1.000  H
  N438     1.0000 0.11610  0.30200  0.13620  Biso   1.000  N
  C951     1.0000 0.11600  0.21710  0.07710  Biso   1.000  C
  H683     1.0000 0.13340  0.22590  0.06880  Biso   1.000  H
  H684     1.0000 0.07240  0.28310  0.13430  Biso   1.000  H
  O343     1.0000 0.14409  0.68761  0.53066  Biso   1.000  O
  O344     1.0000 0.10851  0.65170  0.53121  Biso   1.000  O
  C952     1.0000 0.11934  0.67559  0.54073  Biso   1.000  C
  C953     1.0000 0.10341  0.69177  0.56450  Biso   1.000  C
  C954     1.0000 0.10840  0.72272  0.57180  Biso   1.000  C
  H685     1.0000 0.12320  0.73300  0.56060  Biso   1.000  H
  N439     1.0000 0.10560  0.81350  0.62550  Biso   1.000  N
  C955     1.0000 0.10020  0.77650  0.63370  Biso   1.000  C
  H686     1.0000 0.08340  0.77110  0.64550  Biso   1.000  H
  N440     1.0000 0.11610  0.80200  0.63620  Biso   1.000  N
  C956     1.0000 0.11600  0.71710  0.57710  Biso   1.000  C
  H687     1.0000 0.13340  0.72590  0.56880  Biso   1.000  H
  H688     1.0000 0.07240  0.78310  0.63430  Biso   1.000  H
  O345     1.0000 0.35591  0.18761  0.46934  Biso   1.000  O
  O346     1.0000 0.39149  0.15170  0.46879  Biso   1.000  O
  C957     1.0000 0.38066  0.17559  0.45927  Biso   1.000  C
  C958     1.0000 0.39659  0.19177  0.43550  Biso   1.000  C
  C959     1.0000 0.39160  0.22272  0.42820  Biso   1.000  C
  H689     1.0000 0.37680  0.23300  0.43940  Biso   1.000  H
  N441     1.0000 0.39440  0.31350  0.37450  Biso   1.000  N
  C960     1.0000 0.39980  0.27650  0.36630  Biso   1.000  C
  H690     1.0000 0.41660  0.27110  0.35450  Biso   1.000  H
  N442     1.0000 0.38390  0.30200  0.36380  Biso   1.000  N
  C961     1.0000 0.38400  0.21710  0.42290  Biso   1.000  C
  H691     1.0000 0.36660  0.22590  0.43120  Biso   1.000  H
  H692     1.0000 0.42760  0.28310  0.36570  Biso   1.000  H
  O347     1.0000 0.35591  0.68761  0.96934  Biso   1.000  O
  O348     1.0000 0.39149  0.65170  0.96879  Biso   1.000  O
  C962     1.0000 0.38066  0.67559  0.95927  Biso   1.000  C
  C963     1.0000 0.39659  0.69177  0.93550  Biso   1.000  C
  C964     1.0000 0.39160  0.72272  0.92820  Biso   1.000  C
  H693     1.0000 0.37680  0.73300  0.93940  Biso   1.000  H
  N443     1.0000 0.39440  0.81350  0.87450  Biso   1.000  N
  C965     1.0000 0.39980  0.77650  0.86630  Biso   1.000  C
  H694     1.0000 0.41660  0.77110  0.85450  Biso   1.000  H
  N444     1.0000 0.38390  0.80200  0.86380  Biso   1.000  N
  C966     1.0000 0.38400  0.71710  0.92290  Biso   1.000  C
  H695     1.0000 0.36660  0.72590  0.93120  Biso   1.000  H
  H696     1.0000 0.42760  0.78310  0.86570  Biso   1.000  H
  O349     1.0000 0.85591  0.18761  0.96934  Biso   1.000  O
  O350     1.0000 0.89149  0.15170  0.96879  Biso   1.000  O
  C967     1.0000 0.88066  0.17559  0.95927  Biso   1.000  C
  C968     1.0000 0.89659  0.19177  0.93550  Biso   1.000  C
  C969     1.0000 0.89160  0.22272  0.92820  Biso   1.000  C
  H697     1.0000 0.87680  0.23300  0.93940  Biso   1.000  H
  N445     1.0000 0.89440  0.31350  0.87450  Biso   1.000  N
  C970     1.0000 0.89980  0.27650  0.86630  Biso   1.000  C
  H698     1.0000 0.91660  0.27110  0.85450  Biso   1.000  H
  N446     1.0000 0.88390  0.30200  0.86380  Biso   1.000  N
  C971     1.0000 0.88400  0.21710  0.92290  Biso   1.000  C
  H699     1.0000 0.86660  0.22590  0.93120  Biso   1.000  H
  H700     1.0000 0.92760  0.28310  0.86570  Biso   1.000  H
  O351     1.0000 0.85591  0.68761  0.46934  Biso   1.000  O
  O352     1.0000 0.89149  0.65170  0.46879  Biso   1.000  O
  C972     1.0000 0.88066  0.67559  0.45927  Biso   1.000  C
  C973     1.0000 0.89659  0.69177  0.43550  Biso   1.000  C
  C974     1.0000 0.89160  0.72272  0.42820  Biso   1.000  C
  H701     1.0000 0.87680  0.73300  0.43940  Biso   1.000  H
  N447     1.0000 0.89440  0.81350  0.37450  Biso   1.000  N
  C975     1.0000 0.89980  0.77650  0.36630  Biso   1.000  C
  H702     1.0000 0.91660  0.77110  0.35450  Biso   1.000  H
  N448     1.0000 0.88390  0.80200  0.36380  Biso   1.000  N
  C976     1.0000 0.88400  0.71710  0.42290  Biso   1.000  C
  H703     1.0000 0.86660  0.72590  0.43120  Biso   1.000  H
  H704     1.0000 0.92760  0.78310  0.36570  Biso   1.000  H
  O353     1.0000 0.81239  0.46934  0.64409  Biso   1.000  O
  O354     1.0000 0.84830  0.46879  0.60851  Biso   1.000  O
  C977     1.0000 0.82441  0.45927  0.61934  Biso   1.000  C
  C978     1.0000 0.80823  0.43550  0.60341  Biso   1.000  C
  C979     1.0000 0.77728  0.42820  0.60840  Biso   1.000  C
  H705     1.0000 0.76700  0.43940  0.62320  Biso   1.000  H
  N449     1.0000 0.68650  0.37450  0.60560  Biso   1.000  N
  C980     1.0000 0.72350  0.36630  0.60020  Biso   1.000  C
  H706     1.0000 0.72890  0.35450  0.58340  Biso   1.000  H
  N450     1.0000 0.69800  0.36380  0.61610  Biso   1.000  N
  C981     1.0000 0.78290  0.42290  0.61600  Biso   1.000  C
  H707     1.0000 0.77410  0.43120  0.63340  Biso   1.000  H
  H708     1.0000 0.71690  0.36570  0.57240  Biso   1.000  H
  O355     1.0000 0.81239  0.96934  0.14409  Biso   1.000  O
  O356     1.0000 0.84830  0.96879  0.10851  Biso   1.000  O
  C982     1.0000 0.82441  0.95927  0.11934  Biso   1.000  C
  C983     1.0000 0.80823  0.93550  0.10341  Biso   1.000  C
  C984     1.0000 0.77728  0.92820  0.10840  Biso   1.000  C
  H709     1.0000 0.76700  0.93940  0.12320  Biso   1.000  H
  N451     1.0000 0.68650  0.87450  0.10560  Biso   1.000  N
  C985     1.0000 0.72350  0.86630  0.10020  Biso   1.000  C
  H710     1.0000 0.72890  0.85450  0.08340  Biso   1.000  H
  N452     1.0000 0.69800  0.86380  0.11610  Biso   1.000  N
  C986     1.0000 0.78290  0.92290  0.11600  Biso   1.000  C
  H711     1.0000 0.77410  0.93120  0.13340  Biso   1.000  H
  H712     1.0000 0.71690  0.86570  0.07240  Biso   1.000  H
  O357     1.0000 0.31239  0.46934  0.14409  Biso   1.000  O
  O358     1.0000 0.34830  0.46879  0.10851  Biso   1.000  O
  C987     1.0000 0.32441  0.45927  0.11934  Biso   1.000  C
  C988     1.0000 0.30823  0.43550  0.10341  Biso   1.000  C
  C989     1.0000 0.27728  0.42820  0.10840  Biso   1.000  C
  H713     1.0000 0.26700  0.43940  0.12320  Biso   1.000  H
  N453     1.0000 0.18650  0.37450  0.10560  Biso   1.000  N
  C990     1.0000 0.22350  0.36630  0.10020  Biso   1.000  C
  H714     1.0000 0.22890  0.35450  0.08340  Biso   1.000  H
  N454     1.0000 0.19800  0.36380  0.11610  Biso   1.000  N
  C991     1.0000 0.28290  0.42290  0.11600  Biso   1.000  C
  H715     1.0000 0.27410  0.43120  0.13340  Biso   1.000  H
  H716     1.0000 0.21690  0.36570  0.07240  Biso   1.000  H
  O359     1.0000 0.31239  0.96934  0.64409  Biso   1.000  O
  O360     1.0000 0.34830  0.96879  0.60851  Biso   1.000  O
  C992     1.0000 0.32441  0.95927  0.61934  Biso   1.000  C
  C993     1.0000 0.30823  0.93550  0.60341  Biso   1.000  C
  C994     1.0000 0.27728  0.92820  0.60840  Biso   1.000  C
  H717     1.0000 0.26700  0.93940  0.62320  Biso   1.000  H
  N455     1.0000 0.18650  0.87450  0.60560  Biso   1.000  N
  C995     1.0000 0.22350  0.86630  0.60020  Biso   1.000  C
  H718     1.0000 0.22890  0.85450  0.58340  Biso   1.000  H
  N456     1.0000 0.19800  0.86380  0.61610  Biso   1.000  N
  C996     1.0000 0.28290  0.92290  0.61600  Biso   1.000  C
  H719     1.0000 0.27410  0.93120  0.63340  Biso   1.000  H
  H720     1.0000 0.21690  0.86570  0.57240  Biso   1.000  H
  O361     1.0000 0.81239  0.53066  0.35591  Biso   1.000  O
  O362     1.0000 0.84830  0.53121  0.39149  Biso   1.000  O
  C997     1.0000 0.82441  0.54073  0.38066  Biso   1.000  C
  C998     1.0000 0.80823  0.56450  0.39659  Biso   1.000  C
  C999     1.0000 0.77728  0.57180  0.39160  Biso   1.000  C
  H721     1.0000 0.76700  0.56060  0.37680  Biso   1.000  H
  N457     1.0000 0.68650  0.62550  0.39440  Biso   1.000  N
  C1000    1.0000 0.72350  0.63370  0.39980  Biso   1.000  C
  H722     1.0000 0.72890  0.64550  0.41660  Biso   1.000  H
  N458     1.0000 0.69800  0.63620  0.38390  Biso   1.000  N
  C1001    1.0000 0.78290  0.57710  0.38400  Biso   1.000  C
  H723     1.0000 0.77410  0.56880  0.36660  Biso   1.000  H
  H724     1.0000 0.71690  0.63430  0.42760  Biso   1.000  H
  O363     1.0000 0.81239  0.03066  0.85591  Biso   1.000  O
  O364     1.0000 0.84830  0.03121  0.89149  Biso   1.000  O
  C1002    1.0000 0.82441  0.04073  0.88066  Biso   1.000  C
  C1003    1.0000 0.80823  0.06450  0.89659  Biso   1.000  C
  C1004    1.0000 0.77728  0.07180  0.89160  Biso   1.000  C
  H725     1.0000 0.76700  0.06060  0.87680  Biso   1.000  H
  N459     1.0000 0.68650  0.12550  0.89440  Biso   1.000  N
  C1005    1.0000 0.72350  0.13370  0.89980  Biso   1.000  C
  H726     1.0000 0.72890  0.14550  0.91660  Biso   1.000  H
  N460     1.0000 0.69800  0.13620  0.88390  Biso   1.000  N
  C1006    1.0000 0.78290  0.07710  0.88400  Biso   1.000  C
  H727     1.0000 0.77410  0.06880  0.86660  Biso   1.000  H
  H728     1.0000 0.71690  0.13430  0.92760  Biso   1.000  H
  O365     1.0000 0.31239  0.53066  0.85591  Biso   1.000  O
  O366     1.0000 0.34830  0.53121  0.89149  Biso   1.000  O
  C1007    1.0000 0.32441  0.54073  0.88066  Biso   1.000  C
  C1008    1.0000 0.30823  0.56450  0.89659  Biso   1.000  C
  C1009    1.0000 0.27728  0.57180  0.89160  Biso   1.000  C
  H729     1.0000 0.26700  0.56060  0.87680  Biso   1.000  H
  N461     1.0000 0.18650  0.62550  0.89440  Biso   1.000  N
  C1010    1.0000 0.22350  0.63370  0.89980  Biso   1.000  C
  H730     1.0000 0.22890  0.64550  0.91660  Biso   1.000  H
  N462     1.0000 0.19800  0.63620  0.88390  Biso   1.000  N
  C1011    1.0000 0.28290  0.57710  0.88400  Biso   1.000  C
  H731     1.0000 0.27410  0.56880  0.86660  Biso   1.000  H
  H732     1.0000 0.21690  0.63430  0.92760  Biso   1.000  H
  O367     1.0000 0.31239  0.03066  0.35591  Biso   1.000  O
  O368     1.0000 0.34830  0.03121  0.39149  Biso   1.000  O
  C1012    1.0000 0.32441  0.04073  0.38066  Biso   1.000  C
  C1013    1.0000 0.30823  0.06450  0.39659  Biso   1.000  C
  C1014    1.0000 0.27728  0.07180  0.39160  Biso   1.000  C
  H733     1.0000 0.26700  0.06060  0.37680  Biso   1.000  H
  N463     1.0000 0.18650  0.12550  0.39440  Biso   1.000  N
  C1015    1.0000 0.22350  0.13370  0.39980  Biso   1.000  C
  H734     1.0000 0.22890  0.14550  0.41660  Biso   1.000  H
  N464     1.0000 0.19800  0.13620  0.38390  Biso   1.000  N
  C1016    1.0000 0.28290  0.07710  0.38400  Biso   1.000  C
  H735     1.0000 0.27410  0.06880  0.36660  Biso   1.000  H
  H736     1.0000 0.21690  0.13430  0.42760  Biso   1.000  H
  O369     1.0000 0.18761  0.46934  0.35591  Biso   1.000  O
  O370     1.0000 0.15170  0.46879  0.39149  Biso   1.000  O
  C1017    1.0000 0.17559  0.45927  0.38066  Biso   1.000  C
  C1018    1.0000 0.19177  0.43550  0.39659  Biso   1.000  C
  C1019    1.0000 0.22272  0.42820  0.39160  Biso   1.000  C
  H737     1.0000 0.23300  0.43940  0.37680  Biso   1.000  H
  N465     1.0000 0.31350  0.37450  0.39440  Biso   1.000  N
  C1020    1.0000 0.27650  0.36630  0.39980  Biso   1.000  C
  H738     1.0000 0.27110  0.35450  0.41660  Biso   1.000  H
  N466     1.0000 0.30200  0.36380  0.38390  Biso   1.000  N
  C1021    1.0000 0.21710  0.42290  0.38400  Biso   1.000  C
  H739     1.0000 0.22590  0.43120  0.36660  Biso   1.000  H
  H740     1.0000 0.28310  0.36570  0.42760  Biso   1.000  H
  O371     1.0000 0.18761  0.96934  0.85591  Biso   1.000  O
  O372     1.0000 0.15170  0.96879  0.89149  Biso   1.000  O
  C1022    1.0000 0.17559  0.95927  0.88066  Biso   1.000  C
  C1023    1.0000 0.19177  0.93550  0.89659  Biso   1.000  C
  C1024    1.0000 0.22272  0.92820  0.89160  Biso   1.000  C
  H741     1.0000 0.23300  0.93940  0.87680  Biso   1.000  H
  N467     1.0000 0.31350  0.87450  0.89440  Biso   1.000  N
  C1025    1.0000 0.27650  0.86630  0.89980  Biso   1.000  C
  H742     1.0000 0.27110  0.85450  0.91660  Biso   1.000  H
  N468     1.0000 0.30200  0.86380  0.88390  Biso   1.000  N
  C1026    1.0000 0.21710  0.92290  0.88400  Biso   1.000  C
  H743     1.0000 0.22590  0.93120  0.86660  Biso   1.000  H
  H744     1.0000 0.28310  0.86570  0.92760  Biso   1.000  H
  O373     1.0000 0.68761  0.46934  0.85591  Biso   1.000  O
  O374     1.0000 0.65170  0.46879  0.89149  Biso   1.000  O
  C1027    1.0000 0.67559  0.45927  0.88066  Biso   1.000  C
  C1028    1.0000 0.69177  0.43550  0.89659  Biso   1.000  C
  C1029    1.0000 0.72272  0.42820  0.89160  Biso   1.000  C
  H745     1.0000 0.73300  0.43940  0.87680  Biso   1.000  H
  N469     1.0000 0.81350  0.37450  0.89440  Biso   1.000  N
  C1030    1.0000 0.77650  0.36630  0.89980  Biso   1.000  C
  H746     1.0000 0.77110  0.35450  0.91660  Biso   1.000  H
  N470     1.0000 0.80200  0.36380  0.88390  Biso   1.000  N
  C1031    1.0000 0.71710  0.42290  0.88400  Biso   1.000  C
  H747     1.0000 0.72590  0.43120  0.86660  Biso   1.000  H
  H748     1.0000 0.78310  0.36570  0.92760  Biso   1.000  H
  O375     1.0000 0.68761  0.96934  0.35591  Biso   1.000  O
  O376     1.0000 0.65170  0.96879  0.39149  Biso   1.000  O
  C1032    1.0000 0.67559  0.95927  0.38066  Biso   1.000  C
  C1033    1.0000 0.69177  0.93550  0.39659  Biso   1.000  C
  C1034    1.0000 0.72272  0.92820  0.39160  Biso   1.000  C
  H749     1.0000 0.73300  0.93940  0.37680  Biso   1.000  H
  N471     1.0000 0.81350  0.87450  0.39440  Biso   1.000  N
  C1035    1.0000 0.77650  0.86630  0.39980  Biso   1.000  C
  H750     1.0000 0.77110  0.85450  0.41660  Biso   1.000  H
  N472     1.0000 0.80200  0.86380  0.38390  Biso   1.000  N
  C1036    1.0000 0.71710  0.92290  0.38400  Biso   1.000  C
  H751     1.0000 0.72590  0.93120  0.36660  Biso   1.000  H
  H752     1.0000 0.78310  0.86570  0.42760  Biso   1.000  H
  O377     1.0000 0.18761  0.53066  0.64409  Biso   1.000  O
  O378     1.0000 0.15170  0.53121  0.60851  Biso   1.000  O
  C1037    1.0000 0.17559  0.54073  0.61934  Biso   1.000  C
  C1038    1.0000 0.19177  0.56450  0.60341  Biso   1.000  C
  C1039    1.0000 0.22272  0.57180  0.60840  Biso   1.000  C
  H753     1.0000 0.23300  0.56060  0.62320  Biso   1.000  H
  N473     1.0000 0.31350  0.62550  0.60560  Biso   1.000  N
  C1040    1.0000 0.27650  0.63370  0.60020  Biso   1.000  C
  H754     1.0000 0.27110  0.64550  0.58340  Biso   1.000  H
  N474     1.0000 0.30200  0.63620  0.61610  Biso   1.000  N
  C1041    1.0000 0.21710  0.57710  0.61600  Biso   1.000  C
  H755     1.0000 0.22590  0.56880  0.63340  Biso   1.000  H
  H756     1.0000 0.28310  0.63430  0.57240  Biso   1.000  H
  O379     1.0000 0.18761  0.03066  0.14409  Biso   1.000  O
  O380     1.0000 0.15170  0.03121  0.10851  Biso   1.000  O
  C1042    1.0000 0.17559  0.04073  0.11934  Biso   1.000  C
  C1043    1.0000 0.19177  0.06450  0.10341  Biso   1.000  C
  C1044    1.0000 0.22272  0.07180  0.10840  Biso   1.000  C
  H757     1.0000 0.23300  0.06060  0.12320  Biso   1.000  H
  N475     1.0000 0.31350  0.12550  0.10560  Biso   1.000  N
  C1045    1.0000 0.27650  0.13370  0.10020  Biso   1.000  C
  H758     1.0000 0.27110  0.14550  0.08340  Biso   1.000  H
  N476     1.0000 0.30200  0.13620  0.11610  Biso   1.000  N
  C1046    1.0000 0.21710  0.07710  0.11600  Biso   1.000  C
  H759     1.0000 0.22590  0.06880  0.13340  Biso   1.000  H
  H760     1.0000 0.28310  0.13430  0.07240  Biso   1.000  H
  O381     1.0000 0.68761  0.53066  0.14409  Biso   1.000  O
  O382     1.0000 0.65170  0.53121  0.10851  Biso   1.000  O
  C1047    1.0000 0.67559  0.54073  0.11934  Biso   1.000  C
  C1048    1.0000 0.69177  0.56450  0.10341  Biso   1.000  C
  C1049    1.0000 0.72272  0.57180  0.10840  Biso   1.000  C
  H761     1.0000 0.73300  0.56060  0.12320  Biso   1.000  H
  N477     1.0000 0.81350  0.62550  0.10560  Biso   1.000  N
  C1050    1.0000 0.77650  0.63370  0.10020  Biso   1.000  C
  H762     1.0000 0.77110  0.64550  0.08340  Biso   1.000  H
  N478     1.0000 0.80200  0.63620  0.11610  Biso   1.000  N
  C1051    1.0000 0.71710  0.57710  0.11600  Biso   1.000  C
  H763     1.0000 0.72590  0.56880  0.13340  Biso   1.000  H
  H764     1.0000 0.78310  0.63430  0.07240  Biso   1.000  H
  O383     1.0000 0.68761  0.03066  0.64409  Biso   1.000  O
  O384     1.0000 0.65170  0.03121  0.60851  Biso   1.000  O
  C1052    1.0000 0.67559  0.04073  0.61934  Biso   1.000  C
  C1053    1.0000 0.69177  0.06450  0.60341  Biso   1.000  C
  C1054    1.0000 0.72272  0.07180  0.60840  Biso   1.000  C
  H765     1.0000 0.73300  0.06060  0.62320  Biso   1.000  H
  N479     1.0000 0.81350  0.12550  0.60560  Biso   1.000  N
  C1055    1.0000 0.77650  0.13370  0.60020  Biso   1.000  C
  H766     1.0000 0.77110  0.14550  0.58340  Biso   1.000  H
  N480     1.0000 0.80200  0.13620  0.61610  Biso   1.000  N
  C1056    1.0000 0.71710  0.07710  0.61600  Biso   1.000  C
  H767     1.0000 0.72590  0.06880  0.63340  Biso   1.000  H
  H768     1.0000 0.78310  0.13430  0.57240  Biso   1.000  H
  Cu1      1.0000 0.66919  0.50000  0.16919  Biso   1.000  Cu
  Cu2      1.0000 0.62670  0.50000  0.12670  Biso   1.000  Cu
  Cu3      1.0000 0.66919  0.00000  0.66919  Biso   1.000  Cu
  Cu4      1.0000 0.62670  0.00000  0.62670  Biso   1.000  Cu
  Cu5      1.0000 0.33081  0.50000  0.16919  Biso   1.000  Cu
  Cu6      1.0000 0.37330  0.50000  0.12670  Biso   1.000  Cu
  Cu7      1.0000 0.33081  0.00000  0.66919  Biso   1.000  Cu
  Cu8      1.0000 0.37330  0.00000  0.62670  Biso   1.000  Cu
  Cu9      1.0000 0.33081  0.50000  0.83081  Biso   1.000  Cu
  Cu10     1.0000 0.37330  0.50000  0.87330  Biso   1.000  Cu
  Cu11     1.0000 0.33081  0.00000  0.33081  Biso   1.000  Cu
  Cu12     1.0000 0.37330  0.00000  0.37330  Biso   1.000  Cu
  Cu13     1.0000 0.66919  0.50000  0.83081  Biso   1.000  Cu
  Cu14     1.0000 0.62670  0.50000  0.87330  Biso   1.000  Cu
  Cu15     1.0000 0.66919  0.00000  0.33081  Biso   1.000  Cu
  Cu16     1.0000 0.62670  0.00000  0.37330  Biso   1.000  Cu
  Cu17     1.0000 0.16919  0.66919  0.50000  Biso   1.000  Cu
  Cu18     1.0000 0.12670  0.62670  0.50000  Biso   1.000  Cu
  Cu19     1.0000 0.16919  0.16919  0.00000  Biso   1.000  Cu
  Cu20     1.0000 0.12670  0.12670  0.00000  Biso   1.000  Cu
  Cu21     1.0000 0.16919  0.33081  0.50000  Biso   1.000  Cu
  Cu22     1.0000 0.12670  0.37330  0.50000  Biso   1.000  Cu
  Cu23     1.0000 0.16919  0.83081  0.00000  Biso   1.000  Cu
  Cu24     1.0000 0.12670  0.87330  0.00000  Biso   1.000  Cu
  Cu25     1.0000 0.83081  0.33081  0.50000  Biso   1.000  Cu
  Cu26     1.0000 0.87330  0.37330  0.50000  Biso   1.000  Cu
  Cu27     1.0000 0.83081  0.83081  0.00000  Biso   1.000  Cu
  Cu28     1.0000 0.87330  0.87330  0.00000  Biso   1.000  Cu
  Cu29     1.0000 0.83081  0.66919  0.50000  Biso   1.000  Cu
  Cu30     1.0000 0.87330  0.62670  0.50000  Biso   1.000  Cu
  Cu31     1.0000 0.83081  0.16919  0.00000  Biso   1.000  Cu
  Cu32     1.0000 0.87330  0.12670  0.00000  Biso   1.000  Cu
  Cu33     1.0000 0.50000  0.16919  0.66919  Biso   1.000  Cu
  Cu34     1.0000 0.50000  0.12670  0.62670  Biso   1.000  Cu
  Cu35     1.0000 0.00000  0.16919  0.16919  Biso   1.000  Cu
  Cu36     1.0000 0.00000  0.12670  0.12670  Biso   1.000  Cu
  Cu37     1.0000 0.50000  0.16919  0.33081  Biso   1.000  Cu
  Cu38     1.0000 0.50000  0.12670  0.37330  Biso   1.000  Cu
  Cu39     1.0000 0.00000  0.16919  0.83081  Biso   1.000  Cu
  Cu40     1.0000 0.00000  0.12670  0.87330  Biso   1.000  Cu
  Cu41     1.0000 0.50000  0.83081  0.33081  Biso   1.000  Cu
  Cu42     1.0000 0.50000  0.87330  0.37330  Biso   1.000  Cu
  Cu43     1.0000 0.00000  0.83081  0.83081  Biso   1.000  Cu
  Cu44     1.0000 0.00000  0.87330  0.87330  Biso   1.000  Cu
  Cu45     1.0000 0.50000  0.83081  0.66919  Biso   1.000  Cu
  Cu46     1.0000 0.50000  0.87330  0.62670  Biso   1.000  Cu
  Cu47     1.0000 0.00000  0.83081  0.16919  Biso   1.000  Cu
  Cu48     1.0000 0.00000  0.87330  0.12670  Biso   1.000  Cu
  Cu49     1.0000 0.50000  0.66919  0.83081  Biso   1.000  Cu
  Cu50     1.0000 0.50000  0.62670  0.87330  Biso   1.000  Cu
  Cu51     1.0000 0.00000  0.66919  0.33081  Biso   1.000  Cu
  Cu52     1.0000 0.00000  0.62670  0.37330  Biso   1.000  Cu
  Cu53     1.0000 0.50000  0.33081  0.83081  Biso   1.000  Cu
  Cu54     1.0000 0.50000  0.37330  0.87330  Biso   1.000  Cu
  Cu55     1.0000 0.00000  0.33081  0.33081  Biso   1.000  Cu
  Cu56     1.0000 0.00000  0.37330  0.37330  Biso   1.000  Cu
  Cu57     1.0000 0.50000  0.33081  0.16919  Biso   1.000  Cu
  Cu58     1.0000 0.50000  0.37330  0.12670  Biso   1.000  Cu
  Cu59     1.0000 0.00000  0.33081  0.66919  Biso   1.000  Cu
  Cu60     1.0000 0.00000  0.37330  0.62670  Biso   1.000  Cu
  Cu61     1.0000 0.50000  0.66919  0.16919  Biso   1.000  Cu
  Cu62     1.0000 0.50000  0.62670  0.12670  Biso   1.000  Cu
  Cu63     1.0000 0.00000  0.66919  0.66919  Biso   1.000  Cu
  Cu64     1.0000 0.00000  0.62670  0.62670  Biso   1.000  Cu
  Cu65     1.0000 0.66919  0.16919  0.50000  Biso   1.000  Cu
  Cu66     1.0000 0.62670  0.12670  0.50000  Biso   1.000  Cu
  Cu67     1.0000 0.66919  0.66919  0.00000  Biso   1.000  Cu
  Cu68     1.0000 0.62670  0.62670  0.00000  Biso   1.000  Cu
  Cu69     1.0000 0.33081  0.16919  0.50000  Biso   1.000  Cu
  Cu70     1.0000 0.37330  0.12670  0.50000  Biso   1.000  Cu
  Cu71     1.0000 0.33081  0.66919  0.00000  Biso   1.000  Cu
  Cu72     1.0000 0.37330  0.62670  0.00000  Biso   1.000  Cu
  Cu73     1.0000 0.33081  0.83081  0.50000  Biso   1.000  Cu
  Cu74     1.0000 0.37330  0.87330  0.50000  Biso   1.000  Cu
  Cu75     1.0000 0.33081  0.33081  0.00000  Biso   1.000  Cu
  Cu76     1.0000 0.37330  0.37330  0.00000  Biso   1.000  Cu
  Cu77     1.0000 0.66919  0.83081  0.50000  Biso   1.000  Cu
  Cu78     1.0000 0.62670  0.87330  0.50000  Biso   1.000  Cu
  Cu79     1.0000 0.66919  0.33081  0.00000  Biso   1.000  Cu
  Cu80     1.0000 0.62670  0.37330  0.00000  Biso   1.000  Cu
  Cu81     1.0000 0.16919  0.50000  0.33081  Biso   1.000  Cu
  Cu82     1.0000 0.12670  0.50000  0.37330  Biso   1.000  Cu
  Cu83     1.0000 0.16919  0.00000  0.83081  Biso   1.000  Cu
  Cu84     1.0000 0.12670  0.00000  0.87330  Biso   1.000  Cu
  Cu85     1.0000 0.16919  0.50000  0.66919  Biso   1.000  Cu
  Cu86     1.0000 0.12670  0.50000  0.62670  Biso   1.000  Cu
  Cu87     1.0000 0.16919  0.00000  0.16919  Biso   1.000  Cu
  Cu88     1.0000 0.12670  0.00000  0.12670  Biso   1.000  Cu
  Cu89     1.0000 0.83081  0.50000  0.66919  Biso   1.000  Cu
  Cu90     1.0000 0.87330  0.50000  0.62670  Biso   1.000  Cu
  Cu91     1.0000 0.83081  0.00000  0.16919  Biso   1.000  Cu
  Cu92     1.0000 0.87330  0.00000  0.12670  Biso   1.000  Cu
  Cu93     1.0000 0.83081  0.50000  0.33081  Biso   1.000  Cu
  Cu94     1.0000 0.87330  0.50000  0.37330  Biso   1.000  Cu
  Cu95     1.0000 0.83081  0.00000  0.83081  Biso   1.000  Cu
  Cu96     1.0000 0.87330  0.00000  0.87330  Biso   1.000  Cu
  O385     1.0000 0.70800  0.50000  0.19950  Biso   1.000  O
  O386     1.0000 0.70800  0.00000  0.69950  Biso   1.000  O
  O387     1.0000 0.20800  0.50000  0.69950  Biso   1.000  O
  O388     1.0000 0.20800  0.00000  0.19950  Biso   1.000  O
  O389     1.0000 0.29200  0.50000  0.19950  Biso   1.000  O
  O390     1.0000 0.29200  0.00000  0.69950  Biso   1.000  O
  O391     1.0000 0.79200  0.50000  0.69950  Biso   1.000  O
  O392     1.0000 0.79200  0.00000  0.19950  Biso   1.000  O
  O393     1.0000 0.29200  0.50000  0.80050  Biso   1.000  O
  O394     1.0000 0.29200  0.00000  0.30050  Biso   1.000  O
  O395     1.0000 0.79200  0.50000  0.30050  Biso   1.000  O
  O396     1.0000 0.79200  0.00000  0.80050  Biso   1.000  O
  O397     1.0000 0.70800  0.50000  0.80050  Biso   1.000  O
  O398     1.0000 0.70800  0.00000  0.30050  Biso   1.000  O
  O399     1.0000 0.20800  0.50000  0.30050  Biso   1.000  O
  O400     1.0000 0.20800  0.00000  0.80050  Biso   1.000  O
  O401     1.0000 0.19950  0.70800  0.50000  Biso   1.000  O
  O402     1.0000 0.19950  0.20800  0.00000  Biso   1.000  O
  O403     1.0000 0.69950  0.70800  0.00000  Biso   1.000  O
  O404     1.0000 0.69950  0.20800  0.50000  Biso   1.000  O
  O405     1.0000 0.19950  0.29200  0.50000  Biso   1.000  O
  O406     1.0000 0.19950  0.79200  0.00000  Biso   1.000  O
  O407     1.0000 0.69950  0.29200  0.00000  Biso   1.000  O
  O408     1.0000 0.69950  0.79200  0.50000  Biso   1.000  O
  O409     1.0000 0.80050  0.29200  0.50000  Biso   1.000  O
  O410     1.0000 0.80050  0.79200  0.00000  Biso   1.000  O
  O411     1.0000 0.30050  0.29200  0.00000  Biso   1.000  O
  O412     1.0000 0.30050  0.79200  0.50000  Biso   1.000  O
  O413     1.0000 0.80050  0.70800  0.50000  Biso   1.000  O
  O414     1.0000 0.80050  0.20800  0.00000  Biso   1.000  O
  O415     1.0000 0.30050  0.70800  0.00000  Biso   1.000  O
  O416     1.0000 0.30050  0.20800  0.50000  Biso   1.000  O
  O417     1.0000 0.50000  0.19950  0.70800  Biso   1.000  O
  O418     1.0000 0.50000  0.69950  0.20800  Biso   1.000  O
  O419     1.0000 0.00000  0.19950  0.20800  Biso   1.000  O
  O420     1.0000 0.00000  0.69950  0.70800  Biso   1.000  O
  O421     1.0000 0.50000  0.19950  0.29200  Biso   1.000  O
  O422     1.0000 0.50000  0.69950  0.79200  Biso   1.000  O
  O423     1.0000 0.00000  0.19950  0.79200  Biso   1.000  O
  O424     1.0000 0.00000  0.69950  0.29200  Biso   1.000  O
  O425     1.0000 0.50000  0.80050  0.29200  Biso   1.000  O
  O426     1.0000 0.50000  0.30050  0.79200  Biso   1.000  O
  O427     1.0000 0.00000  0.80050  0.79200  Biso   1.000  O
  O428     1.0000 0.00000  0.30050  0.29200  Biso   1.000  O
  O429     1.0000 0.50000  0.80050  0.70800  Biso   1.000  O
  O430     1.0000 0.50000  0.30050  0.20800  Biso   1.000  O
  O431     1.0000 0.00000  0.80050  0.20800  Biso   1.000  O
  O432     1.0000 0.00000  0.30050  0.70800  Biso   1.000  O
  O433     1.0000 0.50000  0.70800  0.80050  Biso   1.000  O
  O434     1.0000 0.50000  0.20800  0.30050  Biso   1.000  O
  O435     1.0000 0.00000  0.70800  0.30050  Biso   1.000  O
  O436     1.0000 0.00000  0.20800  0.80050  Biso   1.000  O
  O437     1.0000 0.50000  0.29200  0.80050  Biso   1.000  O
  O438     1.0000 0.50000  0.79200  0.30050  Biso   1.000  O
  O439     1.0000 0.00000  0.29200  0.30050  Biso   1.000  O
  O440     1.0000 0.00000  0.79200  0.80050  Biso   1.000  O
  O441     1.0000 0.50000  0.29200  0.19950  Biso   1.000  O
  O442     1.0000 0.50000  0.79200  0.69950  Biso   1.000  O
  O443     1.0000 0.00000  0.29200  0.69950  Biso   1.000  O
  O444     1.0000 0.00000  0.79200  0.19950  Biso   1.000  O
  O445     1.0000 0.50000  0.70800  0.19950  Biso   1.000  O
  O446     1.0000 0.50000  0.20800  0.69950  Biso   1.000  O
  O447     1.0000 0.00000  0.70800  0.69950  Biso   1.000  O
  O448     1.0000 0.00000  0.20800  0.19950  Biso   1.000  O
  O449     1.0000 0.70800  0.19950  0.50000  Biso   1.000  O
  O450     1.0000 0.70800  0.69950  0.00000  Biso   1.000  O
  O451     1.0000 0.20800  0.19950  0.00000  Biso   1.000  O
  O452     1.0000 0.20800  0.69950  0.50000  Biso   1.000  O
  O453     1.0000 0.29200  0.19950  0.50000  Biso   1.000  O
  O454     1.0000 0.29200  0.69950  0.00000  Biso   1.000  O
  O455     1.0000 0.79200  0.19950  0.00000  Biso   1.000  O
  O456     1.0000 0.79200  0.69950  0.50000  Biso   1.000  O
  O457     1.0000 0.29200  0.80050  0.50000  Biso   1.000  O
  O458     1.0000 0.29200  0.30050  0.00000  Biso   1.000  O
  O459     1.0000 0.79200  0.80050  0.00000  Biso   1.000  O
  O460     1.0000 0.79200  0.30050  0.50000  Biso   1.000  O
  O461     1.0000 0.70800  0.80050  0.50000  Biso   1.000  O
  O462     1.0000 0.70800  0.30050  0.00000  Biso   1.000  O
  O463     1.0000 0.20800  0.80050  0.00000  Biso   1.000  O
  O464     1.0000 0.20800  0.30050  0.50000  Biso   1.000  O
  O465     1.0000 0.19950  0.50000  0.29200  Biso   1.000  O
  O466     1.0000 0.19950  0.00000  0.79200  Biso   1.000  O
  O467     1.0000 0.69950  0.50000  0.79200  Biso   1.000  O
  O468     1.0000 0.69950  0.00000  0.29200  Biso   1.000  O
  O469     1.0000 0.19950  0.50000  0.70800  Biso   1.000  O
  O470     1.0000 0.19950  0.00000  0.20800  Biso   1.000  O
  O471     1.0000 0.69950  0.50000  0.20800  Biso   1.000  O
  O472     1.0000 0.69950  0.00000  0.70800  Biso   1.000  O
  O473     1.0000 0.80050  0.50000  0.70800  Biso   1.000  O
  O474     1.0000 0.80050  0.00000  0.20800  Biso   1.000  O
  O475     1.0000 0.30050  0.50000  0.20800  Biso   1.000  O
  O476     1.0000 0.30050  0.00000  0.70800  Biso   1.000  O
  O477     1.0000 0.80050  0.50000  0.29200  Biso   1.000  O
  O478     1.0000 0.80050  0.00000  0.79200  Biso   1.000  O
  O479     1.0000 0.30050  0.50000  0.79200  Biso   1.000  O
  O480     1.0000 0.30050  0.00000  0.29200  Biso   1.000  O
  O481     1.0000 0.59169  0.50782  0.09169  Biso   1.000  O
  O482     1.0000 0.59169  0.00782  0.59169  Biso   1.000  O
  O483     1.0000 0.40831  0.49218  0.09169  Biso   1.000  O
  O484     1.0000 0.40831  0.99218  0.59169  Biso   1.000  O
  O485     1.0000 0.90831  0.49218  0.59169  Biso   1.000  O
  O486     1.0000 0.40831  0.50782  0.90831  Biso   1.000  O
  O487     1.0000 0.40831  0.00782  0.40831  Biso   1.000  O
  O488     1.0000 0.90831  0.00782  0.90831  Biso   1.000  O
  O489     1.0000 0.59169  0.49218  0.90831  Biso   1.000  O
  O490     1.0000 0.59169  0.99218  0.40831  Biso   1.000  O
  O491     1.0000 0.09169  0.59169  0.50782  Biso   1.000  O
  O492     1.0000 0.09169  0.09169  0.00782  Biso   1.000  O
  O493     1.0000 0.59169  0.59169  0.00782  Biso   1.000  O
  O494     1.0000 0.09169  0.40831  0.49218  Biso   1.000  O
  O495     1.0000 0.09169  0.90831  0.99218  Biso   1.000  O
  O496     1.0000 0.59169  0.90831  0.49218  Biso   1.000  O
  O497     1.0000 0.90831  0.40831  0.50782  Biso   1.000  O
  O498     1.0000 0.90831  0.90831  0.00782  Biso   1.000  O
  O499     1.0000 0.90831  0.59169  0.49218  Biso   1.000  O
  O500     1.0000 0.90831  0.09169  0.99218  Biso   1.000  O
  O501     1.0000 0.50782  0.09169  0.59169  Biso   1.000  O
  O502     1.0000 0.00782  0.09169  0.09169  Biso   1.000  O
  O503     1.0000 0.00782  0.59169  0.59169  Biso   1.000  O
  O504     1.0000 0.49218  0.09169  0.40831  Biso   1.000  O
  O505     1.0000 0.49218  0.59169  0.90831  Biso   1.000  O
  O506     1.0000 0.99218  0.09169  0.90831  Biso   1.000  O
  O507     1.0000 0.50782  0.90831  0.40831  Biso   1.000  O
  O508     1.0000 0.00782  0.90831  0.90831  Biso   1.000  O
  O509     1.0000 0.49218  0.90831  0.59169  Biso   1.000  O
  O510     1.0000 0.99218  0.90831  0.09169  Biso   1.000  O
  O511     1.0000 0.50782  0.59169  0.90831  Biso   1.000  O
  O512     1.0000 0.00782  0.59169  0.40831  Biso   1.000  O
  O513     1.0000 0.49218  0.40831  0.90831  Biso   1.000  O
  O514     1.0000 0.99218  0.40831  0.40831  Biso   1.000  O
  O515     1.0000 0.99218  0.90831  0.90831  Biso   1.000  O
  O516     1.0000 0.50782  0.40831  0.09169  Biso   1.000  O
  O517     1.0000 0.50782  0.90831  0.59169  Biso   1.000  O
  O518     1.0000 0.00782  0.40831  0.59169  Biso   1.000  O
  O519     1.0000 0.49218  0.59169  0.09169  Biso   1.000  O
  O520     1.0000 0.99218  0.59169  0.59169  Biso   1.000  O
  O521     1.0000 0.59169  0.09169  0.49218  Biso   1.000  O
  O522     1.0000 0.59169  0.59169  0.99218  Biso   1.000  O
  O523     1.0000 0.40831  0.09169  0.50782  Biso   1.000  O
  O524     1.0000 0.40831  0.59169  0.00782  Biso   1.000  O
  O525     1.0000 0.90831  0.59169  0.50782  Biso   1.000  O
  O526     1.0000 0.40831  0.90831  0.49218  Biso   1.000  O
  O527     1.0000 0.40831  0.40831  0.99218  Biso   1.000  O
  O528     1.0000 0.90831  0.90831  0.99218  Biso   1.000  O
  O529     1.0000 0.59169  0.90831  0.50782  Biso   1.000  O
  O530     1.0000 0.59169  0.40831  0.00782  Biso   1.000  O
  O531     1.0000 0.09169  0.50782  0.40831  Biso   1.000  O
  O532     1.0000 0.09169  0.00782  0.90831  Biso   1.000  O
  O533     1.0000 0.59169  0.50782  0.90831  Biso   1.000  O
  O534     1.0000 0.09169  0.49218  0.59169  Biso   1.000  O
  O535     1.0000 0.09169  0.99218  0.09169  Biso   1.000  O
  O536     1.0000 0.59169  0.99218  0.59169  Biso   1.000  O
  O537     1.0000 0.90831  0.50782  0.59169  Biso   1.000  O
  O538     1.0000 0.90831  0.00782  0.09169  Biso   1.000  O
  O539     1.0000 0.90831  0.49218  0.40831  Biso   1.000  O
  O540     1.0000 0.90831  0.99218  0.90831  Biso   1.000  O
  O541     1.0000 0.40831  0.49218  0.90831  Biso   1.000  O
  O542     1.0000 0.40831  0.99218  0.40831  Biso   1.000  O
  O543     1.0000 0.59169  0.00782  0.40831  Biso   1.000  O
  O544     1.0000 0.59169  0.49218  0.09169  Biso   1.000  O
  O545     1.0000 0.40831  0.50782  0.09169  Biso   1.000  O
  O546     1.0000 0.40831  0.00782  0.59169  Biso   1.000  O
  O547     1.0000 0.90831  0.40831  0.49218  Biso   1.000  O
  O548     1.0000 0.90831  0.09169  0.00782  Biso   1.000  O
  O549     1.0000 0.09169  0.59169  0.49218  Biso   1.000  O
  O550     1.0000 0.09169  0.09169  0.99218  Biso   1.000  O
  O551     1.0000 0.09169  0.40831  0.50782  Biso   1.000  O
  O552     1.0000 0.09169  0.90831  0.00782  Biso   1.000  O
  O553     1.0000 0.49218  0.90831  0.40831  Biso   1.000  O
  O554     1.0000 0.00782  0.90831  0.09169  Biso   1.000  O
  O555     1.0000 0.49218  0.09169  0.59169  Biso   1.000  O
  O556     1.0000 0.99218  0.09169  0.09169  Biso   1.000  O
  O557     1.0000 0.50782  0.09169  0.40831  Biso   1.000  O
  O558     1.0000 0.00782  0.09169  0.90831  Biso   1.000  O
  O559     1.0000 0.49218  0.40831  0.09169  Biso   1.000  O
  O560     1.0000 0.99218  0.40831  0.59169  Biso   1.000  O
  O561     1.0000 0.50782  0.59169  0.09169  Biso   1.000  O
  O562     1.0000 0.99218  0.59169  0.40831  Biso   1.000  O
  O563     1.0000 0.50782  0.40831  0.90831  Biso   1.000  O
  O564     1.0000 0.00782  0.40831  0.40831  Biso   1.000  O
  O565     1.0000 0.40831  0.90831  0.50782  Biso   1.000  O
  O566     1.0000 0.40831  0.40831  0.00782  Biso   1.000  O
  O567     1.0000 0.59169  0.40831  0.99218  Biso   1.000  O
  O568     1.0000 0.59169  0.09169  0.50782  Biso   1.000  O
  O569     1.0000 0.40831  0.09169  0.49218  Biso   1.000  O
  O570     1.0000 0.40831  0.59169  0.99218  Biso   1.000  O
  O571     1.0000 0.90831  0.99218  0.09169  Biso   1.000  O
  O572     1.0000 0.90831  0.50782  0.40831  Biso   1.000  O
  O573     1.0000 0.09169  0.49218  0.40831  Biso   1.000  O
  O574     1.0000 0.09169  0.99218  0.90831  Biso   1.000  O
  O575     1.0000 0.09169  0.50782  0.59169  Biso   1.000  O
  O576     1.0000 0.09169  0.00782  0.09169  Biso   1.000  O
  C1057    1.0000 0.57905  0.57905  0.17714  Biso   1.000  C
  H769     1.0000 0.57260  0.57260  0.15800  Biso   1.000  H
  C1058    1.0000 0.59370  0.59370  0.23900  Biso   1.000  C
  C1059    1.0000 0.60250  0.60250  0.27090  Biso   1.000  C
  C1060    1.0000 0.60250  0.60250  0.22920  Biso   1.000  C
  C1061    1.0000 0.61200  0.61200  0.26040  Biso   1.000  C
  C1062    1.0000 0.57905  0.07905  0.67714  Biso   1.000  C
  H770     1.0000 0.57260  0.07260  0.65800  Biso   1.000  H
  C1063    1.0000 0.59370  0.09370  0.73900  Biso   1.000  C
  C1064    1.0000 0.60250  0.10250  0.77090  Biso   1.000  C
  C1065    1.0000 0.60250  0.10250  0.72920  Biso   1.000  C
  C1066    1.0000 0.61200  0.11200  0.76040  Biso   1.000  C
  C1067    1.0000 0.07905  0.57905  0.67714  Biso   1.000  C
  H771     1.0000 0.07260  0.57260  0.65800  Biso   1.000  H
  C1068    1.0000 0.09370  0.59370  0.73900  Biso   1.000  C
  C1069    1.0000 0.10250  0.60250  0.77090  Biso   1.000  C
  C1070    1.0000 0.10250  0.60250  0.72920  Biso   1.000  C
  C1071    1.0000 0.11200  0.61200  0.76040  Biso   1.000  C
  C1072    1.0000 0.07905  0.07905  0.17714  Biso   1.000  C
  H772     1.0000 0.07260  0.07260  0.15800  Biso   1.000  H
  C1073    1.0000 0.09370  0.09370  0.23900  Biso   1.000  C
  C1074    1.0000 0.10250  0.10250  0.27090  Biso   1.000  C
  C1075    1.0000 0.10250  0.10250  0.22920  Biso   1.000  C
  C1076    1.0000 0.11200  0.11200  0.26040  Biso   1.000  C
  C1077    1.0000 0.42095  0.42095  0.17714  Biso   1.000  C
  H773     1.0000 0.42740  0.42740  0.15800  Biso   1.000  H
  C1078    1.0000 0.40630  0.40630  0.23900  Biso   1.000  C
  C1079    1.0000 0.39750  0.39750  0.27090  Biso   1.000  C
  C1080    1.0000 0.39750  0.39750  0.22920  Biso   1.000  C
  C1081    1.0000 0.38800  0.38800  0.26040  Biso   1.000  C
  C1082    1.0000 0.42095  0.92095  0.67714  Biso   1.000  C
  H774     1.0000 0.42740  0.92740  0.65800  Biso   1.000  H
  C1083    1.0000 0.40630  0.90630  0.73900  Biso   1.000  C
  C1084    1.0000 0.39750  0.89750  0.77090  Biso   1.000  C
  C1085    1.0000 0.39750  0.89750  0.72920  Biso   1.000  C
  C1086    1.0000 0.38800  0.88800  0.76040  Biso   1.000  C
  C1087    1.0000 0.92095  0.42095  0.67714  Biso   1.000  C
  H775     1.0000 0.92740  0.42740  0.65800  Biso   1.000  H
  C1088    1.0000 0.90630  0.40630  0.73900  Biso   1.000  C
  C1089    1.0000 0.89750  0.39750  0.77090  Biso   1.000  C
  C1090    1.0000 0.89750  0.39750  0.72920  Biso   1.000  C
  C1091    1.0000 0.88800  0.38800  0.76040  Biso   1.000  C
  C1092    1.0000 0.92095  0.92095  0.17714  Biso   1.000  C
  H776     1.0000 0.92740  0.92740  0.15800  Biso   1.000  H
  C1093    1.0000 0.90630  0.90630  0.23900  Biso   1.000  C
  C1094    1.0000 0.89750  0.89750  0.27090  Biso   1.000  C
  C1095    1.0000 0.89750  0.89750  0.22920  Biso   1.000  C
  C1096    1.0000 0.88800  0.88800  0.26040  Biso   1.000  C
  C1097    1.0000 0.42095  0.57905  0.82286  Biso   1.000  C
  H777     1.0000 0.42740  0.57260  0.84200  Biso   1.000  H
  C1098    1.0000 0.40630  0.59370  0.76100  Biso   1.000  C
  C1099    1.0000 0.39750  0.60250  0.72910  Biso   1.000  C
  C1100    1.0000 0.39750  0.60250  0.77080  Biso   1.000  C
  C1101    1.0000 0.38800  0.61200  0.73960  Biso   1.000  C
  C1102    1.0000 0.42095  0.07905  0.32286  Biso   1.000  C
  H778     1.0000 0.42740  0.07260  0.34200  Biso   1.000  H
  C1103    1.0000 0.40630  0.09370  0.26100  Biso   1.000  C
  C1104    1.0000 0.39750  0.10250  0.22910  Biso   1.000  C
  C1105    1.0000 0.39750  0.10250  0.27080  Biso   1.000  C
  C1106    1.0000 0.38800  0.11200  0.23960  Biso   1.000  C
  C1107    1.0000 0.92095  0.57905  0.32286  Biso   1.000  C
  H779     1.0000 0.92740  0.57260  0.34200  Biso   1.000  H
  C1108    1.0000 0.90630  0.59370  0.26100  Biso   1.000  C
  C1109    1.0000 0.89750  0.60250  0.22910  Biso   1.000  C
  C1110    1.0000 0.89750  0.60250  0.27080  Biso   1.000  C
  C1111    1.0000 0.88800  0.61200  0.23960  Biso   1.000  C
  C1112    1.0000 0.92095  0.07905  0.82286  Biso   1.000  C
  H780     1.0000 0.92740  0.07260  0.84200  Biso   1.000  H
  C1113    1.0000 0.90630  0.09370  0.76100  Biso   1.000  C
  C1114    1.0000 0.89750  0.10250  0.72910  Biso   1.000  C
  C1115    1.0000 0.89750  0.10250  0.77080  Biso   1.000  C
  C1116    1.0000 0.88800  0.11200  0.73960  Biso   1.000  C
  C1117    1.0000 0.57905  0.42095  0.82286  Biso   1.000  C
  H781     1.0000 0.57260  0.42740  0.84200  Biso   1.000  H
  C1118    1.0000 0.59370  0.40630  0.76100  Biso   1.000  C
  C1119    1.0000 0.60250  0.39750  0.72910  Biso   1.000  C
  C1120    1.0000 0.60250  0.39750  0.77080  Biso   1.000  C
  C1121    1.0000 0.61200  0.38800  0.73960  Biso   1.000  C
  C1122    1.0000 0.57905  0.92095  0.32286  Biso   1.000  C
  H782     1.0000 0.57260  0.92740  0.34200  Biso   1.000  H
  C1123    1.0000 0.59370  0.90630  0.26100  Biso   1.000  C
  C1124    1.0000 0.60250  0.89750  0.22910  Biso   1.000  C
  C1125    1.0000 0.60250  0.89750  0.27080  Biso   1.000  C
  C1126    1.0000 0.61200  0.88800  0.23960  Biso   1.000  C
  C1127    1.0000 0.07905  0.42095  0.32286  Biso   1.000  C
  H783     1.0000 0.07260  0.42740  0.34200  Biso   1.000  H
  C1128    1.0000 0.09370  0.40630  0.26100  Biso   1.000  C
  C1129    1.0000 0.10250  0.39750  0.22910  Biso   1.000  C
  C1130    1.0000 0.10250  0.39750  0.27080  Biso   1.000  C
  C1131    1.0000 0.11200  0.38800  0.23960  Biso   1.000  C
  C1132    1.0000 0.07905  0.92095  0.82286  Biso   1.000  C
  H784     1.0000 0.07260  0.92740  0.84200  Biso   1.000  H
  C1133    1.0000 0.09370  0.90630  0.76100  Biso   1.000  C
  C1134    1.0000 0.10250  0.89750  0.72910  Biso   1.000  C
  C1135    1.0000 0.10250  0.89750  0.77080  Biso   1.000  C
  C1136    1.0000 0.11200  0.88800  0.73960  Biso   1.000  C
  C1137    1.0000 0.17714  0.57905  0.57905  Biso   1.000  C
  H785     1.0000 0.15800  0.57260  0.57260  Biso   1.000  H
  C1138    1.0000 0.23900  0.59370  0.59370  Biso   1.000  C
  C1139    1.0000 0.27090  0.60250  0.60250  Biso   1.000  C
  C1140    1.0000 0.22920  0.60250  0.60250  Biso   1.000  C
  C1141    1.0000 0.26040  0.61200  0.61200  Biso   1.000  C
  C1142    1.0000 0.17714  0.07905  0.07905  Biso   1.000  C
  H786     1.0000 0.15800  0.07260  0.07260  Biso   1.000  H
  C1143    1.0000 0.23900  0.09370  0.09370  Biso   1.000  C
  C1144    1.0000 0.27090  0.10250  0.10250  Biso   1.000  C
  C1145    1.0000 0.22920  0.10250  0.10250  Biso   1.000  C
  C1146    1.0000 0.26040  0.11200  0.11200  Biso   1.000  C
  C1147    1.0000 0.67714  0.57905  0.07905  Biso   1.000  C
  H787     1.0000 0.65800  0.57260  0.07260  Biso   1.000  H
  C1148    1.0000 0.73900  0.59370  0.09370  Biso   1.000  C
  C1149    1.0000 0.77090  0.60250  0.10250  Biso   1.000  C
  C1150    1.0000 0.72920  0.60250  0.10250  Biso   1.000  C
  C1151    1.0000 0.76040  0.61200  0.11200  Biso   1.000  C
  C1152    1.0000 0.67714  0.07905  0.57905  Biso   1.000  C
  H788     1.0000 0.65800  0.07260  0.57260  Biso   1.000  H
  C1153    1.0000 0.73900  0.09370  0.59370  Biso   1.000  C
  C1154    1.0000 0.77090  0.10250  0.60250  Biso   1.000  C
  C1155    1.0000 0.72920  0.10250  0.60250  Biso   1.000  C
  C1156    1.0000 0.76040  0.11200  0.61200  Biso   1.000  C
  C1157    1.0000 0.17714  0.42095  0.42095  Biso   1.000  C
  H789     1.0000 0.15800  0.42740  0.42740  Biso   1.000  H
  C1158    1.0000 0.23900  0.40630  0.40630  Biso   1.000  C
  C1159    1.0000 0.27090  0.39750  0.39750  Biso   1.000  C
  C1160    1.0000 0.22920  0.39750  0.39750  Biso   1.000  C
  C1161    1.0000 0.26040  0.38800  0.38800  Biso   1.000  C
  C1162    1.0000 0.17714  0.92095  0.92095  Biso   1.000  C
  H790     1.0000 0.15800  0.92740  0.92740  Biso   1.000  H
  C1163    1.0000 0.23900  0.90630  0.90630  Biso   1.000  C
  C1164    1.0000 0.27090  0.89750  0.89750  Biso   1.000  C
  C1165    1.0000 0.22920  0.89750  0.89750  Biso   1.000  C
  C1166    1.0000 0.26040  0.88800  0.88800  Biso   1.000  C
  C1167    1.0000 0.67714  0.42095  0.92095  Biso   1.000  C
  H791     1.0000 0.65800  0.42740  0.92740  Biso   1.000  H
  C1168    1.0000 0.73900  0.40630  0.90630  Biso   1.000  C
  C1169    1.0000 0.77090  0.39750  0.89750  Biso   1.000  C
  C1170    1.0000 0.72920  0.39750  0.89750  Biso   1.000  C
  C1171    1.0000 0.76040  0.38800  0.88800  Biso   1.000  C
  C1172    1.0000 0.67714  0.92095  0.42095  Biso   1.000  C
  H792     1.0000 0.65800  0.92740  0.42740  Biso   1.000  H
  C1173    1.0000 0.73900  0.90630  0.40630  Biso   1.000  C
  C1174    1.0000 0.77090  0.89750  0.39750  Biso   1.000  C
  C1175    1.0000 0.72920  0.89750  0.39750  Biso   1.000  C
  C1176    1.0000 0.76040  0.88800  0.38800  Biso   1.000  C
  C1177    1.0000 0.82286  0.42095  0.57905  Biso   1.000  C
  H793     1.0000 0.84200  0.42740  0.57260  Biso   1.000  H
  C1178    1.0000 0.76100  0.40630  0.59370  Biso   1.000  C
  C1179    1.0000 0.72910  0.39750  0.60250  Biso   1.000  C
  C1180    1.0000 0.77080  0.39750  0.60250  Biso   1.000  C
  C1181    1.0000 0.73960  0.38800  0.61200  Biso   1.000  C
  C1182    1.0000 0.82286  0.92095  0.07905  Biso   1.000  C
  H794     1.0000 0.84200  0.92740  0.07260  Biso   1.000  H
  C1183    1.0000 0.76100  0.90630  0.09370  Biso   1.000  C
  C1184    1.0000 0.72910  0.89750  0.10250  Biso   1.000  C
  C1185    1.0000 0.77080  0.89750  0.10250  Biso   1.000  C
  C1186    1.0000 0.73960  0.88800  0.11200  Biso   1.000  C
  C1187    1.0000 0.32286  0.42095  0.07905  Biso   1.000  C
  H795     1.0000 0.34200  0.42740  0.07260  Biso   1.000  H
  C1188    1.0000 0.26100  0.40630  0.09370  Biso   1.000  C
  C1189    1.0000 0.22910  0.39750  0.10250  Biso   1.000  C
  C1190    1.0000 0.27080  0.39750  0.10250  Biso   1.000  C
  C1191    1.0000 0.23960  0.38800  0.11200  Biso   1.000  C
  C1192    1.0000 0.32286  0.92095  0.57905  Biso   1.000  C
  H796     1.0000 0.34200  0.92740  0.57260  Biso   1.000  H
  C1193    1.0000 0.26100  0.90630  0.59370  Biso   1.000  C
  C1194    1.0000 0.22910  0.89750  0.60250  Biso   1.000  C
  C1195    1.0000 0.27080  0.89750  0.60250  Biso   1.000  C
  C1196    1.0000 0.23960  0.88800  0.61200  Biso   1.000  C
  C1197    1.0000 0.82286  0.57905  0.42095  Biso   1.000  C
  H797     1.0000 0.84200  0.57260  0.42740  Biso   1.000  H
  C1198    1.0000 0.76100  0.59370  0.40630  Biso   1.000  C
  C1199    1.0000 0.72910  0.60250  0.39750  Biso   1.000  C
  C1200    1.0000 0.77080  0.60250  0.39750  Biso   1.000  C
  C1201    1.0000 0.73960  0.61200  0.38800  Biso   1.000  C
  C1202    1.0000 0.82286  0.07905  0.92095  Biso   1.000  C
  H798     1.0000 0.84200  0.07260  0.92740  Biso   1.000  H
  C1203    1.0000 0.76100  0.09370  0.90630  Biso   1.000  C
  C1204    1.0000 0.72910  0.10250  0.89750  Biso   1.000  C
  C1205    1.0000 0.77080  0.10250  0.89750  Biso   1.000  C
  C1206    1.0000 0.73960  0.11200  0.88800  Biso   1.000  C
  C1207    1.0000 0.32286  0.57905  0.92095  Biso   1.000  C
  H799     1.0000 0.34200  0.57260  0.92740  Biso   1.000  H
  C1208    1.0000 0.26100  0.59370  0.90630  Biso   1.000  C
  C1209    1.0000 0.22910  0.60250  0.89750  Biso   1.000  C
  C1210    1.0000 0.27080  0.60250  0.89750  Biso   1.000  C
  C1211    1.0000 0.23960  0.61200  0.88800  Biso   1.000  C
  C1212    1.0000 0.32286  0.07905  0.42095  Biso   1.000  C
  H800     1.0000 0.34200  0.07260  0.42740  Biso   1.000  H
  C1213    1.0000 0.26100  0.09370  0.40630  Biso   1.000  C
  C1214    1.0000 0.22910  0.10250  0.39750  Biso   1.000  C
  C1215    1.0000 0.27080  0.10250  0.39750  Biso   1.000  C
  C1216    1.0000 0.23960  0.11200  0.38800  Biso   1.000  C
  C1217    1.0000 0.57905  0.17714  0.57905  Biso   1.000  C
  H801     1.0000 0.57260  0.15800  0.57260  Biso   1.000  H
  C1218    1.0000 0.59370  0.23900  0.59370  Biso   1.000  C
  C1219    1.0000 0.60250  0.27090  0.60250  Biso   1.000  C
  C1220    1.0000 0.60250  0.22920  0.60250  Biso   1.000  C
  C1221    1.0000 0.61200  0.26040  0.61200  Biso   1.000  C
  C1222    1.0000 0.57905  0.67714  0.07905  Biso   1.000  C
  H802     1.0000 0.57260  0.65800  0.07260  Biso   1.000  H
  C1223    1.0000 0.59370  0.73900  0.09370  Biso   1.000  C
  C1224    1.0000 0.60250  0.77090  0.10250  Biso   1.000  C
  C1225    1.0000 0.60250  0.72920  0.10250  Biso   1.000  C
  C1226    1.0000 0.61200  0.76040  0.11200  Biso   1.000  C
  C1227    1.0000 0.07905  0.17714  0.07905  Biso   1.000  C
  H803     1.0000 0.07260  0.15800  0.07260  Biso   1.000  H
  C1228    1.0000 0.09370  0.23900  0.09370  Biso   1.000  C
  C1229    1.0000 0.10250  0.27090  0.10250  Biso   1.000  C
  C1230    1.0000 0.10250  0.22920  0.10250  Biso   1.000  C
  C1231    1.0000 0.11200  0.26040  0.11200  Biso   1.000  C
  C1232    1.0000 0.07905  0.67714  0.57905  Biso   1.000  C
  H804     1.0000 0.07260  0.65800  0.57260  Biso   1.000  H
  C1233    1.0000 0.09370  0.73900  0.59370  Biso   1.000  C
  C1234    1.0000 0.10250  0.77090  0.60250  Biso   1.000  C
  C1235    1.0000 0.10250  0.72920  0.60250  Biso   1.000  C
  C1236    1.0000 0.11200  0.76040  0.61200  Biso   1.000  C
  C1237    1.0000 0.42095  0.17714  0.42095  Biso   1.000  C
  H805     1.0000 0.42740  0.15800  0.42740  Biso   1.000  H
  C1238    1.0000 0.40630  0.23900  0.40630  Biso   1.000  C
  C1239    1.0000 0.39750  0.27090  0.39750  Biso   1.000  C
  C1240    1.0000 0.39750  0.22920  0.39750  Biso   1.000  C
  C1241    1.0000 0.38800  0.26040  0.38800  Biso   1.000  C
  C1242    1.0000 0.42095  0.67714  0.92095  Biso   1.000  C
  H806     1.0000 0.42740  0.65800  0.92740  Biso   1.000  H
  C1243    1.0000 0.40630  0.73900  0.90630  Biso   1.000  C
  C1244    1.0000 0.39750  0.77090  0.89750  Biso   1.000  C
  C1245    1.0000 0.39750  0.72920  0.89750  Biso   1.000  C
  C1246    1.0000 0.38800  0.76040  0.88800  Biso   1.000  C
  C1247    1.0000 0.92095  0.17714  0.92095  Biso   1.000  C
  H807     1.0000 0.92740  0.15800  0.92740  Biso   1.000  H
  C1248    1.0000 0.90630  0.23900  0.90630  Biso   1.000  C
  C1249    1.0000 0.89750  0.27090  0.89750  Biso   1.000  C
  C1250    1.0000 0.89750  0.22920  0.89750  Biso   1.000  C
  C1251    1.0000 0.88800  0.26040  0.88800  Biso   1.000  C
  C1252    1.0000 0.92095  0.67714  0.42095  Biso   1.000  C
  H808     1.0000 0.92740  0.65800  0.42740  Biso   1.000  H
  C1253    1.0000 0.90630  0.73900  0.40630  Biso   1.000  C
  C1254    1.0000 0.89750  0.77090  0.39750  Biso   1.000  C
  C1255    1.0000 0.89750  0.72920  0.39750  Biso   1.000  C
  C1256    1.0000 0.88800  0.76040  0.38800  Biso   1.000  C
  C1257    1.0000 0.57905  0.82286  0.42095  Biso   1.000  C
  H809     1.0000 0.57260  0.84200  0.42740  Biso   1.000  H
  C1258    1.0000 0.59370  0.76100  0.40630  Biso   1.000  C
  C1259    1.0000 0.60250  0.72910  0.39750  Biso   1.000  C
  C1260    1.0000 0.60250  0.77080  0.39750  Biso   1.000  C
  C1261    1.0000 0.61200  0.73960  0.38800  Biso   1.000  C
  C1262    1.0000 0.57905  0.32286  0.92095  Biso   1.000  C
  H810     1.0000 0.57260  0.34200  0.92740  Biso   1.000  H
  C1263    1.0000 0.59370  0.26100  0.90630  Biso   1.000  C
  C1264    1.0000 0.60250  0.22910  0.89750  Biso   1.000  C
  C1265    1.0000 0.60250  0.27080  0.89750  Biso   1.000  C
  C1266    1.0000 0.61200  0.23960  0.88800  Biso   1.000  C
  C1267    1.0000 0.07905  0.82286  0.92095  Biso   1.000  C
  H811     1.0000 0.07260  0.84200  0.92740  Biso   1.000  H
  C1268    1.0000 0.09370  0.76100  0.90630  Biso   1.000  C
  C1269    1.0000 0.10250  0.72910  0.89750  Biso   1.000  C
  C1270    1.0000 0.10250  0.77080  0.89750  Biso   1.000  C
  C1271    1.0000 0.11200  0.73960  0.88800  Biso   1.000  C
  C1272    1.0000 0.07905  0.32286  0.42095  Biso   1.000  C
  H812     1.0000 0.07260  0.34200  0.42740  Biso   1.000  H
  C1273    1.0000 0.09370  0.26100  0.40630  Biso   1.000  C
  C1274    1.0000 0.10250  0.22910  0.39750  Biso   1.000  C
  C1275    1.0000 0.10250  0.27080  0.39750  Biso   1.000  C
  C1276    1.0000 0.11200  0.23960  0.38800  Biso   1.000  C
  C1277    1.0000 0.42095  0.82286  0.57905  Biso   1.000  C
  H813     1.0000 0.42740  0.84200  0.57260  Biso   1.000  H
  C1278    1.0000 0.40630  0.76100  0.59370  Biso   1.000  C
  C1279    1.0000 0.39750  0.72910  0.60250  Biso   1.000  C
  C1280    1.0000 0.39750  0.77080  0.60250  Biso   1.000  C
  C1281    1.0000 0.38800  0.73960  0.61200  Biso   1.000  C
  C1282    1.0000 0.42095  0.32286  0.07905  Biso   1.000  C
  H814     1.0000 0.42740  0.34200  0.07260  Biso   1.000  H
  C1283    1.0000 0.40630  0.26100  0.09370  Biso   1.000  C
  C1284    1.0000 0.39750  0.22910  0.10250  Biso   1.000  C
  C1285    1.0000 0.39750  0.27080  0.10250  Biso   1.000  C
  C1286    1.0000 0.38800  0.23960  0.11200  Biso   1.000  C
  C1287    1.0000 0.92095  0.82286  0.07905  Biso   1.000  C
  H815     1.0000 0.92740  0.84200  0.07260  Biso   1.000  H
  C1288    1.0000 0.90630  0.76100  0.09370  Biso   1.000  C
  C1289    1.0000 0.89750  0.72910  0.10250  Biso   1.000  C
  C1290    1.0000 0.89750  0.77080  0.10250  Biso   1.000  C
  C1291    1.0000 0.88800  0.73960  0.11200  Biso   1.000  C
  C1292    1.0000 0.92095  0.32286  0.57905  Biso   1.000  C
  H816     1.0000 0.92740  0.34200  0.57260  Biso   1.000  H
  C1293    1.0000 0.90630  0.26100  0.59370  Biso   1.000  C
  C1294    1.0000 0.89750  0.22910  0.60250  Biso   1.000  C
  C1295    1.0000 0.89750  0.27080  0.60250  Biso   1.000  C
  C1296    1.0000 0.88800  0.23960  0.61200  Biso   1.000  C
  C1297    1.0000 0.57905  0.57905  0.82286  Biso   1.000  C
  H817     1.0000 0.57260  0.57260  0.84200  Biso   1.000  H
  C1298    1.0000 0.59370  0.59370  0.76100  Biso   1.000  C
  C1299    1.0000 0.60250  0.60250  0.72910  Biso   1.000  C
  C1300    1.0000 0.60250  0.60250  0.77080  Biso   1.000  C
  C1301    1.0000 0.61200  0.61200  0.73960  Biso   1.000  C
  C1302    1.0000 0.57905  0.07905  0.32286  Biso   1.000  C
  H818     1.0000 0.57260  0.07260  0.34200  Biso   1.000  H
  C1303    1.0000 0.59370  0.09370  0.26100  Biso   1.000  C
  C1304    1.0000 0.60250  0.10250  0.22910  Biso   1.000  C
  C1305    1.0000 0.60250  0.10250  0.27080  Biso   1.000  C
  C1306    1.0000 0.61200  0.11200  0.23960  Biso   1.000  C
  C1307    1.0000 0.07905  0.57905  0.32286  Biso   1.000  C
  H819     1.0000 0.07260  0.57260  0.34200  Biso   1.000  H
  C1308    1.0000 0.09370  0.59370  0.26100  Biso   1.000  C
  C1309    1.0000 0.10250  0.60250  0.22910  Biso   1.000  C
  C1310    1.0000 0.10250  0.60250  0.27080  Biso   1.000  C
  C1311    1.0000 0.11200  0.61200  0.23960  Biso   1.000  C
  C1312    1.0000 0.07905  0.07905  0.82286  Biso   1.000  C
  H820     1.0000 0.07260  0.07260  0.84200  Biso   1.000  H
  C1313    1.0000 0.09370  0.09370  0.76100  Biso   1.000  C
  C1314    1.0000 0.10250  0.10250  0.72910  Biso   1.000  C
  C1315    1.0000 0.10250  0.10250  0.77080  Biso   1.000  C
  C1316    1.0000 0.11200  0.11200  0.73960  Biso   1.000  C
  C1317    1.0000 0.42095  0.42095  0.82286  Biso   1.000  C
  H821     1.0000 0.42740  0.42740  0.84200  Biso   1.000  H
  C1318    1.0000 0.40630  0.40630  0.76100  Biso   1.000  C
  C1319    1.0000 0.39750  0.39750  0.72910  Biso   1.000  C
  C1320    1.0000 0.39750  0.39750  0.77080  Biso   1.000  C
  C1321    1.0000 0.38800  0.38800  0.73960  Biso   1.000  C
  C1322    1.0000 0.42095  0.92095  0.32286  Biso   1.000  C
  H822     1.0000 0.42740  0.92740  0.34200  Biso   1.000  H
  C1323    1.0000 0.40630  0.90630  0.26100  Biso   1.000  C
  C1324    1.0000 0.39750  0.89750  0.22910  Biso   1.000  C
  C1325    1.0000 0.39750  0.89750  0.27080  Biso   1.000  C
  C1326    1.0000 0.38800  0.88800  0.23960  Biso   1.000  C
  C1327    1.0000 0.92095  0.42095  0.32286  Biso   1.000  C
  H823     1.0000 0.92740  0.42740  0.34200  Biso   1.000  H
  C1328    1.0000 0.90630  0.40630  0.26100  Biso   1.000  C
  C1329    1.0000 0.89750  0.39750  0.22910  Biso   1.000  C
  C1330    1.0000 0.89750  0.39750  0.27080  Biso   1.000  C
  C1331    1.0000 0.88800  0.38800  0.23960  Biso   1.000  C
  C1332    1.0000 0.92095  0.92095  0.82286  Biso   1.000  C
  H824     1.0000 0.92740  0.92740  0.84200  Biso   1.000  H
  C1333    1.0000 0.90630  0.90630  0.76100  Biso   1.000  C
  C1334    1.0000 0.89750  0.89750  0.72910  Biso   1.000  C
  C1335    1.0000 0.89750  0.89750  0.77080  Biso   1.000  C
  C1336    1.0000 0.88800  0.88800  0.73960  Biso   1.000  C
  C1337    1.0000 0.57905  0.42095  0.17714  Biso   1.000  C
  H825     1.0000 0.57260  0.42740  0.15800  Biso   1.000  H
  C1338    1.0000 0.59370  0.40630  0.23900  Biso   1.000  C
  C1339    1.0000 0.60250  0.39750  0.27090  Biso   1.000  C
  C1340    1.0000 0.60250  0.39750  0.22920  Biso   1.000  C
  C1341    1.0000 0.61200  0.38800  0.26040  Biso   1.000  C
  C1342    1.0000 0.57905  0.92095  0.67714  Biso   1.000  C
  H826     1.0000 0.57260  0.92740  0.65800  Biso   1.000  H
  C1343    1.0000 0.59370  0.90630  0.73900  Biso   1.000  C
  C1344    1.0000 0.60250  0.89750  0.77090  Biso   1.000  C
  C1345    1.0000 0.60250  0.89750  0.72920  Biso   1.000  C
  C1346    1.0000 0.61200  0.88800  0.76040  Biso   1.000  C
  C1347    1.0000 0.07905  0.42095  0.67714  Biso   1.000  C
  H827     1.0000 0.07260  0.42740  0.65800  Biso   1.000  H
  C1348    1.0000 0.09370  0.40630  0.73900  Biso   1.000  C
  C1349    1.0000 0.10250  0.39750  0.77090  Biso   1.000  C
  C1350    1.0000 0.10250  0.39750  0.72920  Biso   1.000  C
  C1351    1.0000 0.11200  0.38800  0.76040  Biso   1.000  C
  C1352    1.0000 0.07905  0.92095  0.17714  Biso   1.000  C
  H828     1.0000 0.07260  0.92740  0.15800  Biso   1.000  H
  C1353    1.0000 0.09370  0.90630  0.23900  Biso   1.000  C
  C1354    1.0000 0.10250  0.89750  0.27090  Biso   1.000  C
  C1355    1.0000 0.10250  0.89750  0.22920  Biso   1.000  C
  C1356    1.0000 0.11200  0.88800  0.26040  Biso   1.000  C
  C1357    1.0000 0.42095  0.57905  0.17714  Biso   1.000  C
  H829     1.0000 0.42740  0.57260  0.15800  Biso   1.000  H
  C1358    1.0000 0.40630  0.59370  0.23900  Biso   1.000  C
  C1359    1.0000 0.39750  0.60250  0.27090  Biso   1.000  C
  C1360    1.0000 0.39750  0.60250  0.22920  Biso   1.000  C
  C1361    1.0000 0.38800  0.61200  0.26040  Biso   1.000  C
  C1362    1.0000 0.42095  0.07905  0.67714  Biso   1.000  C
  H830     1.0000 0.42740  0.07260  0.65800  Biso   1.000  H
  C1363    1.0000 0.40630  0.09370  0.73900  Biso   1.000  C
  C1364    1.0000 0.39750  0.10250  0.77090  Biso   1.000  C
  C1365    1.0000 0.39750  0.10250  0.72920  Biso   1.000  C
  C1366    1.0000 0.38800  0.11200  0.76040  Biso   1.000  C
  C1367    1.0000 0.92095  0.57905  0.67714  Biso   1.000  C
  H831     1.0000 0.92740  0.57260  0.65800  Biso   1.000  H
  C1368    1.0000 0.90630  0.59370  0.73900  Biso   1.000  C
  C1369    1.0000 0.89750  0.60250  0.77090  Biso   1.000  C
  C1370    1.0000 0.89750  0.60250  0.72920  Biso   1.000  C
  C1371    1.0000 0.88800  0.61200  0.76040  Biso   1.000  C
  C1372    1.0000 0.92095  0.07905  0.17714  Biso   1.000  C
  H832     1.0000 0.92740  0.07260  0.15800  Biso   1.000  H
  C1373    1.0000 0.90630  0.09370  0.23900  Biso   1.000  C
  C1374    1.0000 0.89750  0.10250  0.27090  Biso   1.000  C
  C1375    1.0000 0.89750  0.10250  0.22920  Biso   1.000  C
  C1376    1.0000 0.88800  0.11200  0.26040  Biso   1.000  C
  C1377    1.0000 0.57905  0.17714  0.42095  Biso   1.000  C
  H833     1.0000 0.57260  0.15800  0.42740  Biso   1.000  H
  C1378    1.0000 0.59370  0.23900  0.40630  Biso   1.000  C
  C1379    1.0000 0.60250  0.27090  0.39750  Biso   1.000  C
  C1380    1.0000 0.60250  0.22920  0.39750  Biso   1.000  C
  C1381    1.0000 0.61200  0.26040  0.38800  Biso   1.000  C
  C1382    1.0000 0.57905  0.67714  0.92095  Biso   1.000  C
  H834     1.0000 0.57260  0.65800  0.92740  Biso   1.000  H
  C1383    1.0000 0.59370  0.73900  0.90630  Biso   1.000  C
  C1384    1.0000 0.60250  0.77090  0.89750  Biso   1.000  C
  C1385    1.0000 0.60250  0.72920  0.89750  Biso   1.000  C
  C1386    1.0000 0.61200  0.76040  0.88800  Biso   1.000  C
  C1387    1.0000 0.07905  0.17714  0.92095  Biso   1.000  C
  H835     1.0000 0.07260  0.15800  0.92740  Biso   1.000  H
  C1388    1.0000 0.09370  0.23900  0.90630  Biso   1.000  C
  C1389    1.0000 0.10250  0.27090  0.89750  Biso   1.000  C
  C1390    1.0000 0.10250  0.22920  0.89750  Biso   1.000  C
  C1391    1.0000 0.11200  0.26040  0.88800  Biso   1.000  C
  C1392    1.0000 0.07905  0.67714  0.42095  Biso   1.000  C
  H836     1.0000 0.07260  0.65800  0.42740  Biso   1.000  H
  C1393    1.0000 0.09370  0.73900  0.40630  Biso   1.000  C
  C1394    1.0000 0.10250  0.77090  0.39750  Biso   1.000  C
  C1395    1.0000 0.10250  0.72920  0.39750  Biso   1.000  C
  C1396    1.0000 0.11200  0.76040  0.38800  Biso   1.000  C
  C1397    1.0000 0.42095  0.17714  0.57905  Biso   1.000  C
  H837     1.0000 0.42740  0.15800  0.57260  Biso   1.000  H
  C1398    1.0000 0.40630  0.23900  0.59370  Biso   1.000  C
  C1399    1.0000 0.39750  0.27090  0.60250  Biso   1.000  C
  C1400    1.0000 0.39750  0.22920  0.60250  Biso   1.000  C
  C1401    1.0000 0.38800  0.26040  0.61200  Biso   1.000  C
  C1402    1.0000 0.42095  0.67714  0.07905  Biso   1.000  C
  H838     1.0000 0.42740  0.65800  0.07260  Biso   1.000  H
  C1403    1.0000 0.40630  0.73900  0.09370  Biso   1.000  C
  C1404    1.0000 0.39750  0.77090  0.10250  Biso   1.000  C
  C1405    1.0000 0.39750  0.72920  0.10250  Biso   1.000  C
  C1406    1.0000 0.38800  0.76040  0.11200  Biso   1.000  C
  C1407    1.0000 0.92095  0.17714  0.07905  Biso   1.000  C
  H839     1.0000 0.92740  0.15800  0.07260  Biso   1.000  H
  C1408    1.0000 0.90630  0.23900  0.09370  Biso   1.000  C
  C1409    1.0000 0.89750  0.27090  0.10250  Biso   1.000  C
  C1410    1.0000 0.89750  0.22920  0.10250  Biso   1.000  C
  C1411    1.0000 0.88800  0.26040  0.11200  Biso   1.000  C
  C1412    1.0000 0.92095  0.67714  0.57905  Biso   1.000  C
  H840     1.0000 0.92740  0.65800  0.57260  Biso   1.000  H
  C1413    1.0000 0.90630  0.73900  0.59370  Biso   1.000  C
  C1414    1.0000 0.89750  0.77090  0.60250  Biso   1.000  C
  C1415    1.0000 0.89750  0.72920  0.60250  Biso   1.000  C
  C1416    1.0000 0.88800  0.76040  0.61200  Biso   1.000  C
  C1417    1.0000 0.42095  0.82286  0.42095  Biso   1.000  C
  H841     1.0000 0.42740  0.84200  0.42740  Biso   1.000  H
  C1418    1.0000 0.40630  0.76100  0.40630  Biso   1.000  C
  C1419    1.0000 0.39750  0.72910  0.39750  Biso   1.000  C
  C1420    1.0000 0.39750  0.77080  0.39750  Biso   1.000  C
  C1421    1.0000 0.38800  0.73960  0.38800  Biso   1.000  C
  C1422    1.0000 0.42095  0.32286  0.92095  Biso   1.000  C
  H842     1.0000 0.42740  0.34200  0.92740  Biso   1.000  H
  C1423    1.0000 0.40630  0.26100  0.90630  Biso   1.000  C
  C1424    1.0000 0.39750  0.22910  0.89750  Biso   1.000  C
  C1425    1.0000 0.39750  0.27080  0.89750  Biso   1.000  C
  C1426    1.0000 0.38800  0.23960  0.88800  Biso   1.000  C
  C1427    1.0000 0.92095  0.82286  0.92095  Biso   1.000  C
  H843     1.0000 0.92740  0.84200  0.92740  Biso   1.000  H
  C1428    1.0000 0.90630  0.76100  0.90630  Biso   1.000  C
  C1429    1.0000 0.89750  0.72910  0.89750  Biso   1.000  C
  C1430    1.0000 0.89750  0.77080  0.89750  Biso   1.000  C
  C1431    1.0000 0.88800  0.73960  0.88800  Biso   1.000  C
  C1432    1.0000 0.92095  0.32286  0.42095  Biso   1.000  C
  H844     1.0000 0.92740  0.34200  0.42740  Biso   1.000  H
  C1433    1.0000 0.90630  0.26100  0.40630  Biso   1.000  C
  C1434    1.0000 0.89750  0.22910  0.39750  Biso   1.000  C
  C1435    1.0000 0.89750  0.27080  0.39750  Biso   1.000  C
  C1436    1.0000 0.88800  0.23960  0.38800  Biso   1.000  C
  C1437    1.0000 0.57905  0.82286  0.57905  Biso   1.000  C
  H845     1.0000 0.57260  0.84200  0.57260  Biso   1.000  H
  C1438    1.0000 0.59370  0.76100  0.59370  Biso   1.000  C
  C1439    1.0000 0.60250  0.72910  0.60250  Biso   1.000  C
  C1440    1.0000 0.60250  0.77080  0.60250  Biso   1.000  C
  C1441    1.0000 0.61200  0.73960  0.61200  Biso   1.000  C
  C1442    1.0000 0.57905  0.32286  0.07905  Biso   1.000  C
  H846     1.0000 0.57260  0.34200  0.07260  Biso   1.000  H
  C1443    1.0000 0.59370  0.26100  0.09370  Biso   1.000  C
  C1444    1.0000 0.60250  0.22910  0.10250  Biso   1.000  C
  C1445    1.0000 0.60250  0.27080  0.10250  Biso   1.000  C
  C1446    1.0000 0.61200  0.23960  0.11200  Biso   1.000  C
  C1447    1.0000 0.07905  0.82286  0.07905  Biso   1.000  C
  H847     1.0000 0.07260  0.84200  0.07260  Biso   1.000  H
  C1448    1.0000 0.09370  0.76100  0.09370  Biso   1.000  C
  C1449    1.0000 0.10250  0.72910  0.10250  Biso   1.000  C
  C1450    1.0000 0.10250  0.77080  0.10250  Biso   1.000  C
  C1451    1.0000 0.11200  0.73960  0.11200  Biso   1.000  C
  C1452    1.0000 0.07905  0.32286  0.57905  Biso   1.000  C
  H848     1.0000 0.07260  0.34200  0.57260  Biso   1.000  H
  C1453    1.0000 0.09370  0.26100  0.59370  Biso   1.000  C
  C1454    1.0000 0.10250  0.22910  0.60250  Biso   1.000  C
  C1455    1.0000 0.10250  0.27080  0.60250  Biso   1.000  C
  C1456    1.0000 0.11200  0.23960  0.61200  Biso   1.000  C
  C1457    1.0000 0.17714  0.57905  0.42095  Biso   1.000  C
  H849     1.0000 0.15800  0.57260  0.42740  Biso   1.000  H
  C1458    1.0000 0.23900  0.59370  0.40630  Biso   1.000  C
  C1459    1.0000 0.27090  0.60250  0.39750  Biso   1.000  C
  C1460    1.0000 0.22920  0.60250  0.39750  Biso   1.000  C
  C1461    1.0000 0.26040  0.61200  0.38800  Biso   1.000  C
  C1462    1.0000 0.17714  0.07905  0.92095  Biso   1.000  C
  H850     1.0000 0.15800  0.07260  0.92740  Biso   1.000  H
  C1463    1.0000 0.23900  0.09370  0.90630  Biso   1.000  C
  C1464    1.0000 0.27090  0.10250  0.89750  Biso   1.000  C
  C1465    1.0000 0.22920  0.10250  0.89750  Biso   1.000  C
  C1466    1.0000 0.26040  0.11200  0.88800  Biso   1.000  C
  C1467    1.0000 0.67714  0.57905  0.92095  Biso   1.000  C
  H851     1.0000 0.65800  0.57260  0.92740  Biso   1.000  H
  C1468    1.0000 0.73900  0.59370  0.90630  Biso   1.000  C
  C1469    1.0000 0.77090  0.60250  0.89750  Biso   1.000  C
  C1470    1.0000 0.72920  0.60250  0.89750  Biso   1.000  C
  C1471    1.0000 0.76040  0.61200  0.88800  Biso   1.000  C
  C1472    1.0000 0.67714  0.07905  0.42095  Biso   1.000  C
  H852     1.0000 0.65800  0.07260  0.42740  Biso   1.000  H
  C1473    1.0000 0.73900  0.09370  0.40630  Biso   1.000  C
  C1474    1.0000 0.77090  0.10250  0.39750  Biso   1.000  C
  C1475    1.0000 0.72920  0.10250  0.39750  Biso   1.000  C
  C1476    1.0000 0.76040  0.11200  0.38800  Biso   1.000  C
  C1477    1.0000 0.17714  0.42095  0.57905  Biso   1.000  C
  H853     1.0000 0.15800  0.42740  0.57260  Biso   1.000  H
  C1478    1.0000 0.23900  0.40630  0.59370  Biso   1.000  C
  C1479    1.0000 0.27090  0.39750  0.60250  Biso   1.000  C
  C1480    1.0000 0.22920  0.39750  0.60250  Biso   1.000  C
  C1481    1.0000 0.26040  0.38800  0.61200  Biso   1.000  C
  C1482    1.0000 0.17714  0.92095  0.07905  Biso   1.000  C
  H854     1.0000 0.15800  0.92740  0.07260  Biso   1.000  H
  C1483    1.0000 0.23900  0.90630  0.09370  Biso   1.000  C
  C1484    1.0000 0.27090  0.89750  0.10250  Biso   1.000  C
  C1485    1.0000 0.22920  0.89750  0.10250  Biso   1.000  C
  C1486    1.0000 0.26040  0.88800  0.11200  Biso   1.000  C
  C1487    1.0000 0.67714  0.42095  0.07905  Biso   1.000  C
  H855     1.0000 0.65800  0.42740  0.07260  Biso   1.000  H
  C1488    1.0000 0.73900  0.40630  0.09370  Biso   1.000  C
  C1489    1.0000 0.77090  0.39750  0.10250  Biso   1.000  C
  C1490    1.0000 0.72920  0.39750  0.10250  Biso   1.000  C
  C1491    1.0000 0.76040  0.38800  0.11200  Biso   1.000  C
  C1492    1.0000 0.67714  0.92095  0.57905  Biso   1.000  C
  H856     1.0000 0.65800  0.92740  0.57260  Biso   1.000  H
  C1493    1.0000 0.73900  0.90630  0.59370  Biso   1.000  C
  C1494    1.0000 0.77090  0.89750  0.60250  Biso   1.000  C
  C1495    1.0000 0.72920  0.89750  0.60250  Biso   1.000  C
  C1496    1.0000 0.76040  0.88800  0.61200  Biso   1.000  C
  C1497    1.0000 0.82286  0.57905  0.57905  Biso   1.000  C
  H857     1.0000 0.84200  0.57260  0.57260  Biso   1.000  H
  C1498    1.0000 0.76100  0.59370  0.59370  Biso   1.000  C
  C1499    1.0000 0.72910  0.60250  0.60250  Biso   1.000  C
  C1500    1.0000 0.77080  0.60250  0.60250  Biso   1.000  C
  C1501    1.0000 0.73960  0.61200  0.61200  Biso   1.000  C
  C1502    1.0000 0.82286  0.07905  0.07905  Biso   1.000  C
  H858     1.0000 0.84200  0.07260  0.07260  Biso   1.000  H
  C1503    1.0000 0.76100  0.09370  0.09370  Biso   1.000  C
  C1504    1.0000 0.72910  0.10250  0.10250  Biso   1.000  C
  C1505    1.0000 0.77080  0.10250  0.10250  Biso   1.000  C
  C1506    1.0000 0.73960  0.11200  0.11200  Biso   1.000  C
  C1507    1.0000 0.32286  0.57905  0.07905  Biso   1.000  C
  H859     1.0000 0.34200  0.57260  0.07260  Biso   1.000  H
  C1508    1.0000 0.26100  0.59370  0.09370  Biso   1.000  C
  C1509    1.0000 0.22910  0.60250  0.10250  Biso   1.000  C
  C1510    1.0000 0.27080  0.60250  0.10250  Biso   1.000  C
  C1511    1.0000 0.23960  0.61200  0.11200  Biso   1.000  C
  C1512    1.0000 0.32286  0.07905  0.57905  Biso   1.000  C
  H860     1.0000 0.34200  0.07260  0.57260  Biso   1.000  H
  C1513    1.0000 0.26100  0.09370  0.59370  Biso   1.000  C
  C1514    1.0000 0.22910  0.10250  0.60250  Biso   1.000  C
  C1515    1.0000 0.27080  0.10250  0.60250  Biso   1.000  C
  C1516    1.0000 0.23960  0.11200  0.61200  Biso   1.000  C
  C1517    1.0000 0.82286  0.42095  0.42095  Biso   1.000  C
  H861     1.0000 0.84200  0.42740  0.42740  Biso   1.000  H
  C1518    1.0000 0.76100  0.40630  0.40630  Biso   1.000  C
  C1519    1.0000 0.72910  0.39750  0.39750  Biso   1.000  C
  C1520    1.0000 0.77080  0.39750  0.39750  Biso   1.000  C
  C1521    1.0000 0.73960  0.38800  0.38800  Biso   1.000  C
  C1522    1.0000 0.82286  0.92095  0.92095  Biso   1.000  C
  H862     1.0000 0.84200  0.92740  0.92740  Biso   1.000  H
  C1523    1.0000 0.76100  0.90630  0.90630  Biso   1.000  C
  C1524    1.0000 0.72910  0.89750  0.89750  Biso   1.000  C
  C1525    1.0000 0.77080  0.89750  0.89750  Biso   1.000  C
  C1526    1.0000 0.73960  0.88800  0.88800  Biso   1.000  C
  C1527    1.0000 0.32286  0.42095  0.92095  Biso   1.000  C
  H863     1.0000 0.34200  0.42740  0.92740  Biso   1.000  H
  C1528    1.0000 0.26100  0.40630  0.90630  Biso   1.000  C
  C1529    1.0000 0.22910  0.39750  0.89750  Biso   1.000  C
  C1530    1.0000 0.27080  0.39750  0.89750  Biso   1.000  C
  C1531    1.0000 0.23960  0.38800  0.88800  Biso   1.000  C
  C1532    1.0000 0.32286  0.92095  0.42095  Biso   1.000  C
  H864     1.0000 0.34200  0.92740  0.42740  Biso   1.000  H
  C1533    1.0000 0.26100  0.90630  0.40630  Biso   1.000  C
  C1534    1.0000 0.22910  0.89750  0.39750  Biso   1.000  C
  C1535    1.0000 0.27080  0.89750  0.39750  Biso   1.000  C
  C1536    1.0000 0.23960  0.88800  0.38800  Biso   1.000  C
  Cu97     1.0000 0.60030  0.65383  0.34617  Biso   1.000  Cu
  O577     1.0000 0.56880  0.67690  0.32310  Biso   1.000  O
  Cu98     1.0000 0.61300  0.66472  0.33528  Biso   1.000  Cu
  Cu99     1.0000 0.60030  0.15383  0.84617  Biso   1.000  Cu
  O578     1.0000 0.56880  0.17690  0.82310  Biso   1.000  O
  Cu100    1.0000 0.61300  0.16472  0.83528  Biso   1.000  Cu
  Cu101    1.0000 0.10030  0.65383  0.84617  Biso   1.000  Cu
  O579     1.0000 0.06880  0.67690  0.82310  Biso   1.000  O
  Cu102    1.0000 0.11300  0.66472  0.83528  Biso   1.000  Cu
  Cu103    1.0000 0.10030  0.15383  0.34617  Biso   1.000  Cu
  O580     1.0000 0.06880  0.17690  0.32310  Biso   1.000  O
  Cu104    1.0000 0.11300  0.16472  0.33528  Biso   1.000  Cu
  Cu105    1.0000 0.39970  0.34617  0.34617  Biso   1.000  Cu
  O581     1.0000 0.43120  0.32310  0.32310  Biso   1.000  O
  Cu106    1.0000 0.38700  0.33528  0.33528  Biso   1.000  Cu
  Cu107    1.0000 0.39970  0.84617  0.84617  Biso   1.000  Cu
  O582     1.0000 0.43120  0.82310  0.82310  Biso   1.000  O
  Cu108    1.0000 0.38700  0.83528  0.83528  Biso   1.000  Cu
  Cu109    1.0000 0.89970  0.34617  0.84617  Biso   1.000  Cu
  O583     1.0000 0.93120  0.32310  0.82310  Biso   1.000  O
  Cu110    1.0000 0.88700  0.33528  0.83528  Biso   1.000  Cu
  Cu111    1.0000 0.89970  0.84617  0.34617  Biso   1.000  Cu
  O584     1.0000 0.93120  0.82310  0.32310  Biso   1.000  O
  Cu112    1.0000 0.88700  0.83528  0.33528  Biso   1.000  Cu
  Cu113    1.0000 0.39970  0.65383  0.65383  Biso   1.000  Cu
  O585     1.0000 0.43120  0.67690  0.67690  Biso   1.000  O
  Cu114    1.0000 0.38700  0.66472  0.66472  Biso   1.000  Cu
  Cu115    1.0000 0.39970  0.15383  0.15383  Biso   1.000  Cu
  O586     1.0000 0.43120  0.17690  0.17690  Biso   1.000  O
  Cu116    1.0000 0.38700  0.16472  0.16472  Biso   1.000  Cu
  Cu117    1.0000 0.89970  0.65383  0.15383  Biso   1.000  Cu
  O587     1.0000 0.93120  0.67690  0.17690  Biso   1.000  O
  Cu118    1.0000 0.88700  0.66472  0.16472  Biso   1.000  Cu
  Cu119    1.0000 0.89970  0.15383  0.65383  Biso   1.000  Cu
  O588     1.0000 0.93120  0.17690  0.67690  Biso   1.000  O
  Cu120    1.0000 0.88700  0.16472  0.66472  Biso   1.000  Cu
  Cu121    1.0000 0.60030  0.34617  0.65383  Biso   1.000  Cu
  O589     1.0000 0.56880  0.32310  0.67690  Biso   1.000  O
  Cu122    1.0000 0.61300  0.33528  0.66472  Biso   1.000  Cu
  Cu123    1.0000 0.60030  0.84617  0.15383  Biso   1.000  Cu
  O590     1.0000 0.56880  0.82310  0.17690  Biso   1.000  O
  Cu124    1.0000 0.61300  0.83528  0.16472  Biso   1.000  Cu
  Cu125    1.0000 0.10030  0.34617  0.15383  Biso   1.000  Cu
  O591     1.0000 0.06880  0.32310  0.17690  Biso   1.000  O
  Cu126    1.0000 0.11300  0.33528  0.16472  Biso   1.000  Cu
  Cu127    1.0000 0.10030  0.84617  0.65383  Biso   1.000  Cu
  O592     1.0000 0.06880  0.82310  0.67690  Biso   1.000  O
  Cu128    1.0000 0.11300  0.83528  0.66472  Biso   1.000  Cu
  Cu129    1.0000 0.34617  0.60030  0.65383  Biso   1.000  Cu
  O593     1.0000 0.32310  0.56880  0.67690  Biso   1.000  O
  Cu130    1.0000 0.33528  0.61300  0.66472  Biso   1.000  Cu
  Cu131    1.0000 0.34617  0.10030  0.15383  Biso   1.000  Cu
  O594     1.0000 0.32310  0.06880  0.17690  Biso   1.000  O
  Cu132    1.0000 0.33528  0.11300  0.16472  Biso   1.000  Cu
  Cu133    1.0000 0.84617  0.60030  0.15383  Biso   1.000  Cu
  O595     1.0000 0.82310  0.56880  0.17690  Biso   1.000  O
  Cu134    1.0000 0.83528  0.61300  0.16472  Biso   1.000  Cu
  Cu135    1.0000 0.84617  0.10030  0.65383  Biso   1.000  Cu
  O596     1.0000 0.82310  0.06880  0.67690  Biso   1.000  O
  Cu136    1.0000 0.83528  0.11300  0.66472  Biso   1.000  Cu
  Cu137    1.0000 0.34617  0.39970  0.34617  Biso   1.000  Cu
  O597     1.0000 0.32310  0.43120  0.32310  Biso   1.000  O
  Cu138    1.0000 0.33528  0.38700  0.33528  Biso   1.000  Cu
  Cu139    1.0000 0.34617  0.89970  0.84617  Biso   1.000  Cu
  O598     1.0000 0.32310  0.93120  0.82310  Biso   1.000  O
  Cu140    1.0000 0.33528  0.88700  0.83528  Biso   1.000  Cu
  Cu141    1.0000 0.84617  0.39970  0.84617  Biso   1.000  Cu
  O599     1.0000 0.82310  0.43120  0.82310  Biso   1.000  O
  Cu142    1.0000 0.83528  0.38700  0.83528  Biso   1.000  Cu
  Cu143    1.0000 0.84617  0.89970  0.34617  Biso   1.000  Cu
  O600     1.0000 0.82310  0.93120  0.32310  Biso   1.000  O
  Cu144    1.0000 0.83528  0.88700  0.33528  Biso   1.000  Cu
  Cu145    1.0000 0.65383  0.39970  0.65383  Biso   1.000  Cu
  O601     1.0000 0.67690  0.43120  0.67690  Biso   1.000  O
  Cu146    1.0000 0.66472  0.38700  0.66472  Biso   1.000  Cu
  Cu147    1.0000 0.65383  0.89970  0.15383  Biso   1.000  Cu
  O602     1.0000 0.67690  0.93120  0.17690  Biso   1.000  O
  Cu148    1.0000 0.66472  0.88700  0.16472  Biso   1.000  Cu
  Cu149    1.0000 0.15383  0.39970  0.15383  Biso   1.000  Cu
  O603     1.0000 0.17690  0.43120  0.17690  Biso   1.000  O
  Cu150    1.0000 0.16472  0.38700  0.16472  Biso   1.000  Cu
  Cu151    1.0000 0.15383  0.89970  0.65383  Biso   1.000  Cu
  O604     1.0000 0.17690  0.93120  0.67690  Biso   1.000  O
  Cu152    1.0000 0.16472  0.88700  0.66472  Biso   1.000  Cu
  Cu153    1.0000 0.65383  0.60030  0.34617  Biso   1.000  Cu
  O605     1.0000 0.67690  0.56880  0.32310  Biso   1.000  O
  Cu154    1.0000 0.66472  0.61300  0.33528  Biso   1.000  Cu
  Cu155    1.0000 0.65383  0.10030  0.84617  Biso   1.000  Cu
  O606     1.0000 0.67690  0.06880  0.82310  Biso   1.000  O
  Cu156    1.0000 0.66472  0.11300  0.83528  Biso   1.000  Cu
  Cu157    1.0000 0.15383  0.60030  0.84617  Biso   1.000  Cu
  O607     1.0000 0.17690  0.56880  0.82310  Biso   1.000  O
  Cu158    1.0000 0.16472  0.61300  0.83528  Biso   1.000  Cu
  Cu159    1.0000 0.15383  0.10030  0.34617  Biso   1.000  Cu
  O608     1.0000 0.17690  0.06880  0.32310  Biso   1.000  O
  Cu160    1.0000 0.16472  0.11300  0.33528  Biso   1.000  Cu
  Cu161    1.0000 0.65383  0.34617  0.60030  Biso   1.000  Cu
  O609     1.0000 0.67690  0.32310  0.56880  Biso   1.000  O
  Cu162    1.0000 0.66472  0.33528  0.61300  Biso   1.000  Cu
  Cu163    1.0000 0.65383  0.84617  0.10030  Biso   1.000  Cu
  O610     1.0000 0.67690  0.82310  0.06880  Biso   1.000  O
  Cu164    1.0000 0.66472  0.83528  0.11300  Biso   1.000  Cu
  Cu165    1.0000 0.15383  0.34617  0.10030  Biso   1.000  Cu
  O611     1.0000 0.17690  0.32310  0.06880  Biso   1.000  O
  Cu166    1.0000 0.16472  0.33528  0.11300  Biso   1.000  Cu
  Cu167    1.0000 0.15383  0.84617  0.60030  Biso   1.000  Cu
  O612     1.0000 0.17690  0.82310  0.56880  Biso   1.000  O
  Cu168    1.0000 0.16472  0.83528  0.61300  Biso   1.000  Cu
  Cu169    1.0000 0.34617  0.34617  0.39970  Biso   1.000  Cu
  O613     1.0000 0.32310  0.32310  0.43120  Biso   1.000  O
  Cu170    1.0000 0.33528  0.33528  0.38700  Biso   1.000  Cu
  Cu171    1.0000 0.34617  0.84617  0.89970  Biso   1.000  Cu
  O614     1.0000 0.32310  0.82310  0.93120  Biso   1.000  O
  Cu172    1.0000 0.33528  0.83528  0.88700  Biso   1.000  Cu
  Cu173    1.0000 0.84617  0.34617  0.89970  Biso   1.000  Cu
  O615     1.0000 0.82310  0.32310  0.93120  Biso   1.000  O
  Cu174    1.0000 0.83528  0.33528  0.88700  Biso   1.000  Cu
  Cu175    1.0000 0.84617  0.84617  0.39970  Biso   1.000  Cu
  O616     1.0000 0.82310  0.82310  0.43120  Biso   1.000  O
  Cu176    1.0000 0.83528  0.83528  0.38700  Biso   1.000  Cu
  Cu177    1.0000 0.65383  0.65383  0.39970  Biso   1.000  Cu
  O617     1.0000 0.67690  0.67690  0.43120  Biso   1.000  O
  Cu178    1.0000 0.66472  0.66472  0.38700  Biso   1.000  Cu
  Cu179    1.0000 0.65383  0.15383  0.89970  Biso   1.000  Cu
  O618     1.0000 0.67690  0.17690  0.93120  Biso   1.000  O
  Cu180    1.0000 0.66472  0.16472  0.88700  Biso   1.000  Cu
  Cu181    1.0000 0.15383  0.65383  0.89970  Biso   1.000  Cu
  O619     1.0000 0.17690  0.67690  0.93120  Biso   1.000  O
  Cu182    1.0000 0.16472  0.66472  0.88700  Biso   1.000  Cu
  Cu183    1.0000 0.15383  0.15383  0.39970  Biso   1.000  Cu
  O620     1.0000 0.17690  0.17690  0.43120  Biso   1.000  O
  Cu184    1.0000 0.16472  0.16472  0.38700  Biso   1.000  Cu
  Cu185    1.0000 0.34617  0.65383  0.60030  Biso   1.000  Cu
  O621     1.0000 0.32310  0.67690  0.56880  Biso   1.000  O
  Cu186    1.0000 0.33528  0.66472  0.61300  Biso   1.000  Cu
  Cu187    1.0000 0.34617  0.15383  0.10030  Biso   1.000  Cu
  O622     1.0000 0.32310  0.17690  0.06880  Biso   1.000  O
  Cu188    1.0000 0.33528  0.16472  0.11300  Biso   1.000  Cu
  Cu189    1.0000 0.84617  0.65383  0.10030  Biso   1.000  Cu
  O623     1.0000 0.82310  0.67690  0.06880  Biso   1.000  O
  Cu190    1.0000 0.83528  0.66472  0.11300  Biso   1.000  Cu
  Cu191    1.0000 0.84617  0.15383  0.60030  Biso   1.000  Cu
  O624     1.0000 0.82310  0.17690  0.56880  Biso   1.000  O
  Cu192    1.0000 0.83528  0.16472  0.61300  Biso   1.000  Cu
  Cu193    1.0000 0.65383  0.60030  0.65383  Biso   1.000  Cu
  O625     1.0000 0.67690  0.56880  0.67690  Biso   1.000  O
  Cu194    1.0000 0.66472  0.61300  0.66472  Biso   1.000  Cu
  Cu195    1.0000 0.65383  0.10030  0.15383  Biso   1.000  Cu
  O626     1.0000 0.67690  0.06880  0.17690  Biso   1.000  O
  Cu196    1.0000 0.66472  0.11300  0.16472  Biso   1.000  Cu
  Cu197    1.0000 0.15383  0.60030  0.15383  Biso   1.000  Cu
  O627     1.0000 0.17690  0.56880  0.17690  Biso   1.000  O
  Cu198    1.0000 0.16472  0.61300  0.16472  Biso   1.000  Cu
  Cu199    1.0000 0.15383  0.10030  0.65383  Biso   1.000  Cu
  O628     1.0000 0.17690  0.06880  0.67690  Biso   1.000  O
  Cu200    1.0000 0.16472  0.11300  0.66472  Biso   1.000  Cu
  Cu201    1.0000 0.34617  0.39970  0.65383  Biso   1.000  Cu
  O629     1.0000 0.32310  0.43120  0.67690  Biso   1.000  O
  Cu202    1.0000 0.33528  0.38700  0.66472  Biso   1.000  Cu
  Cu203    1.0000 0.34617  0.89970  0.15383  Biso   1.000  Cu
  O630     1.0000 0.32310  0.93120  0.17690  Biso   1.000  O
  Cu204    1.0000 0.33528  0.88700  0.16472  Biso   1.000  Cu
  Cu205    1.0000 0.84617  0.39970  0.15383  Biso   1.000  Cu
  O631     1.0000 0.82310  0.43120  0.17690  Biso   1.000  O
  Cu206    1.0000 0.83528  0.38700  0.16472  Biso   1.000  Cu
  Cu207    1.0000 0.84617  0.89970  0.65383  Biso   1.000  Cu
  O632     1.0000 0.82310  0.93120  0.67690  Biso   1.000  O
  Cu208    1.0000 0.83528  0.88700  0.66472  Biso   1.000  Cu
  Cu209    1.0000 0.65383  0.39970  0.34617  Biso   1.000  Cu
  O633     1.0000 0.67690  0.43120  0.32310  Biso   1.000  O
  Cu210    1.0000 0.66472  0.38700  0.33528  Biso   1.000  Cu
  Cu211    1.0000 0.65383  0.89970  0.84617  Biso   1.000  Cu
  O634     1.0000 0.67690  0.93120  0.82310  Biso   1.000  O
  Cu212    1.0000 0.66472  0.88700  0.83528  Biso   1.000  Cu
  Cu213    1.0000 0.15383  0.39970  0.84617  Biso   1.000  Cu
  O635     1.0000 0.17690  0.43120  0.82310  Biso   1.000  O
  Cu214    1.0000 0.16472  0.38700  0.83528  Biso   1.000  Cu
  Cu215    1.0000 0.15383  0.89970  0.34617  Biso   1.000  Cu
  O636     1.0000 0.17690  0.93120  0.32310  Biso   1.000  O
  Cu216    1.0000 0.16472  0.88700  0.33528  Biso   1.000  Cu
  Cu217    1.0000 0.34617  0.60030  0.34617  Biso   1.000  Cu
  O637     1.0000 0.32310  0.56880  0.32310  Biso   1.000  O
  Cu218    1.0000 0.33528  0.61300  0.33528  Biso   1.000  Cu
  Cu219    1.0000 0.34617  0.10030  0.84617  Biso   1.000  Cu
  O638     1.0000 0.32310  0.06880  0.82310  Biso   1.000  O
  Cu220    1.0000 0.33528  0.11300  0.83528  Biso   1.000  Cu
  Cu221    1.0000 0.84617  0.60030  0.84617  Biso   1.000  Cu
  O639     1.0000 0.82310  0.56880  0.82310  Biso   1.000  O
  Cu222    1.0000 0.83528  0.61300  0.83528  Biso   1.000  Cu
  Cu223    1.0000 0.84617  0.10030  0.34617  Biso   1.000  Cu
  O640     1.0000 0.82310  0.06880  0.32310  Biso   1.000  O
  Cu224    1.0000 0.83528  0.11300  0.33528  Biso   1.000  Cu
  Cu225    1.0000 0.60030  0.34617  0.34617  Biso   1.000  Cu
  O641     1.0000 0.56880  0.32310  0.32310  Biso   1.000  O
  Cu226    1.0000 0.61300  0.33528  0.33528  Biso   1.000  Cu
  Cu227    1.0000 0.60030  0.84617  0.84617  Biso   1.000  Cu
  O642     1.0000 0.56880  0.82310  0.82310  Biso   1.000  O
  Cu228    1.0000 0.61300  0.83528  0.83528  Biso   1.000  Cu
  Cu229    1.0000 0.10030  0.34617  0.84617  Biso   1.000  Cu
  O643     1.0000 0.06880  0.32310  0.82310  Biso   1.000  O
  Cu230    1.0000 0.11300  0.33528  0.83528  Biso   1.000  Cu
  Cu231    1.0000 0.10030  0.84617  0.34617  Biso   1.000  Cu
  O644     1.0000 0.06880  0.82310  0.32310  Biso   1.000  O
  Cu232    1.0000 0.11300  0.83528  0.33528  Biso   1.000  Cu
  Cu233    1.0000 0.39970  0.34617  0.65383  Biso   1.000  Cu
  O645     1.0000 0.43120  0.32310  0.67690  Biso   1.000  O
  Cu234    1.0000 0.38700  0.33528  0.66472  Biso   1.000  Cu
  Cu235    1.0000 0.39970  0.84617  0.15383  Biso   1.000  Cu
  O646     1.0000 0.43120  0.82310  0.17690  Biso   1.000  O
  Cu236    1.0000 0.38700  0.83528  0.16472  Biso   1.000  Cu
  Cu237    1.0000 0.89970  0.34617  0.15383  Biso   1.000  Cu
  O647     1.0000 0.93120  0.32310  0.17690  Biso   1.000  O
  Cu238    1.0000 0.88700  0.33528  0.16472  Biso   1.000  Cu
  Cu239    1.0000 0.89970  0.84617  0.65383  Biso   1.000  Cu
  O648     1.0000 0.93120  0.82310  0.67690  Biso   1.000  O
  Cu240    1.0000 0.88700  0.83528  0.66472  Biso   1.000  Cu
  Cu241    1.0000 0.39970  0.65383  0.34617  Biso   1.000  Cu
  O649     1.0000 0.43120  0.67690  0.32310  Biso   1.000  O
  Cu242    1.0000 0.38700  0.66472  0.33528  Biso   1.000  Cu
  Cu243    1.0000 0.39970  0.15383  0.84617  Biso   1.000  Cu
  O650     1.0000 0.43120  0.17690  0.82310  Biso   1.000  O
  Cu244    1.0000 0.38700  0.16472  0.83528  Biso   1.000  Cu
  Cu245    1.0000 0.89970  0.65383  0.84617  Biso   1.000  Cu
  O651     1.0000 0.93120  0.67690  0.82310  Biso   1.000  O
  Cu246    1.0000 0.88700  0.66472  0.83528  Biso   1.000  Cu
  Cu247    1.0000 0.89970  0.15383  0.34617  Biso   1.000  Cu
  O652     1.0000 0.93120  0.17690  0.32310  Biso   1.000  O
  Cu248    1.0000 0.88700  0.16472  0.33528  Biso   1.000  Cu
  Cu249    1.0000 0.60030  0.65383  0.65383  Biso   1.000  Cu
  O653     1.0000 0.56880  0.67690  0.67690  Biso   1.000  O
  Cu250    1.0000 0.61300  0.66472  0.66472  Biso   1.000  Cu
  Cu251    1.0000 0.60030  0.15383  0.15383  Biso   1.000  Cu
  O654     1.0000 0.56880  0.17690  0.17690  Biso   1.000  O
  Cu252    1.0000 0.61300  0.16472  0.16472  Biso   1.000  Cu
  Cu253    1.0000 0.10030  0.65383  0.15383  Biso   1.000  Cu
  O655     1.0000 0.06880  0.67690  0.17690  Biso   1.000  O
  Cu254    1.0000 0.11300  0.66472  0.16472  Biso   1.000  Cu
  Cu255    1.0000 0.10030  0.15383  0.65383  Biso   1.000  Cu
  O656     1.0000 0.06880  0.17690  0.67690  Biso   1.000  O
  Cu256    1.0000 0.11300  0.16472  0.66472  Biso   1.000  Cu
  Cu257    1.0000 0.34617  0.65383  0.39970  Biso   1.000  Cu
  O657     1.0000 0.32310  0.67690  0.43120  Biso   1.000  O
  Cu258    1.0000 0.33528  0.66472  0.38700  Biso   1.000  Cu
  Cu259    1.0000 0.34617  0.15383  0.89970  Biso   1.000  Cu
  O658     1.0000 0.32310  0.17690  0.93120  Biso   1.000  O
  Cu260    1.0000 0.33528  0.16472  0.88700  Biso   1.000  Cu
  Cu261    1.0000 0.84617  0.65383  0.89970  Biso   1.000  Cu
  O659     1.0000 0.82310  0.67690  0.93120  Biso   1.000  O
  Cu262    1.0000 0.83528  0.66472  0.88700  Biso   1.000  Cu
  Cu263    1.0000 0.84617  0.15383  0.39970  Biso   1.000  Cu
  O660     1.0000 0.82310  0.17690  0.43120  Biso   1.000  O
  Cu264    1.0000 0.83528  0.16472  0.38700  Biso   1.000  Cu
  Cu265    1.0000 0.34617  0.34617  0.60030  Biso   1.000  Cu
  O661     1.0000 0.32310  0.32310  0.56880  Biso   1.000  O
  Cu266    1.0000 0.33528  0.33528  0.61300  Biso   1.000  Cu
  Cu267    1.0000 0.34617  0.84617  0.10030  Biso   1.000  Cu
  O662     1.0000 0.32310  0.82310  0.06880  Biso   1.000  O
  Cu268    1.0000 0.33528  0.83528  0.11300  Biso   1.000  Cu
  Cu269    1.0000 0.84617  0.34617  0.10030  Biso   1.000  Cu
  O663     1.0000 0.82310  0.32310  0.06880  Biso   1.000  O
  Cu270    1.0000 0.83528  0.33528  0.11300  Biso   1.000  Cu
  Cu271    1.0000 0.84617  0.84617  0.60030  Biso   1.000  Cu
  O664     1.0000 0.82310  0.82310  0.56880  Biso   1.000  O
  Cu272    1.0000 0.83528  0.83528  0.61300  Biso   1.000  Cu
  Cu273    1.0000 0.65383  0.65383  0.60030  Biso   1.000  Cu
  O665     1.0000 0.67690  0.67690  0.56880  Biso   1.000  O
  Cu274    1.0000 0.66472  0.66472  0.61300  Biso   1.000  Cu
  Cu275    1.0000 0.65383  0.15383  0.10030  Biso   1.000  Cu
  O666     1.0000 0.67690  0.17690  0.06880  Biso   1.000  O
  Cu276    1.0000 0.66472  0.16472  0.11300  Biso   1.000  Cu
  Cu277    1.0000 0.15383  0.65383  0.10030  Biso   1.000  Cu
  O667     1.0000 0.17690  0.67690  0.06880  Biso   1.000  O
  Cu278    1.0000 0.16472  0.66472  0.11300  Biso   1.000  Cu
  Cu279    1.0000 0.15383  0.15383  0.60030  Biso   1.000  Cu
  O668     1.0000 0.17690  0.17690  0.56880  Biso   1.000  O
  Cu280    1.0000 0.16472  0.16472  0.61300  Biso   1.000  Cu
  Cu281    1.0000 0.65383  0.34617  0.39970  Biso   1.000  Cu
  O669     1.0000 0.67690  0.32310  0.43120  Biso   1.000  O
  Cu282    1.0000 0.66472  0.33528  0.38700  Biso   1.000  Cu
  Cu283    1.0000 0.65383  0.84617  0.89970  Biso   1.000  Cu
  O670     1.0000 0.67690  0.82310  0.93120  Biso   1.000  O
  Cu284    1.0000 0.66472  0.83528  0.88700  Biso   1.000  Cu
  Cu285    1.0000 0.15383  0.34617  0.89970  Biso   1.000  Cu
  O671     1.0000 0.17690  0.32310  0.93120  Biso   1.000  O
  Cu286    1.0000 0.16472  0.33528  0.88700  Biso   1.000  Cu
  Cu287    1.0000 0.15383  0.84617  0.39970  Biso   1.000  Cu
  O672     1.0000 0.17690  0.82310  0.43120  Biso   1.000  O
  Cu288    1.0000 0.16472  0.83528  0.38700  Biso   1.000  Cu
  O673     1.0000 0.63360  0.63360  0.36640  Biso   1.000  O
  O674     1.0000 0.64420  0.64420  0.35580  Biso   1.000  O
  O675     1.0000 0.63360  0.13360  0.86640  Biso   1.000  O
  O676     1.0000 0.64420  0.14420  0.85580  Biso   1.000  O
  O677     1.0000 0.13360  0.63360  0.86640  Biso   1.000  O
  O678     1.0000 0.14420  0.64420  0.85580  Biso   1.000  O
  O679     1.0000 0.13360  0.13360  0.36640  Biso   1.000  O
  O680     1.0000 0.14420  0.14420  0.35580  Biso   1.000  O
  O681     1.0000 0.36640  0.36640  0.36640  Biso   1.000  O
  O682     1.0000 0.35580  0.35580  0.35580  Biso   1.000  O
  O683     1.0000 0.36640  0.86640  0.86640  Biso   1.000  O
  O684     1.0000 0.35580  0.85580  0.85580  Biso   1.000  O
  O685     1.0000 0.86640  0.36640  0.86640  Biso   1.000  O
  O686     1.0000 0.85580  0.35580  0.85580  Biso   1.000  O
  O687     1.0000 0.86640  0.86640  0.36640  Biso   1.000  O
  O688     1.0000 0.85580  0.85580  0.35580  Biso   1.000  O
  O689     1.0000 0.36640  0.63360  0.63360  Biso   1.000  O
  O690     1.0000 0.35580  0.64420  0.64420  Biso   1.000  O
  O691     1.0000 0.36640  0.13360  0.13360  Biso   1.000  O
  O692     1.0000 0.35580  0.14420  0.14420  Biso   1.000  O
  O693     1.0000 0.86640  0.63360  0.13360  Biso   1.000  O
  O694     1.0000 0.85580  0.64420  0.14420  Biso   1.000  O
  O695     1.0000 0.86640  0.13360  0.63360  Biso   1.000  O
  O696     1.0000 0.85580  0.14420  0.64420  Biso   1.000  O
  O697     1.0000 0.63360  0.36640  0.63360  Biso   1.000  O
  O698     1.0000 0.64420  0.35580  0.64420  Biso   1.000  O
  O699     1.0000 0.63360  0.86640  0.13360  Biso   1.000  O
  O700     1.0000 0.64420  0.85580  0.14420  Biso   1.000  O
  O701     1.0000 0.13360  0.36640  0.13360  Biso   1.000  O
  O702     1.0000 0.14420  0.35580  0.14420  Biso   1.000  O
  O703     1.0000 0.13360  0.86640  0.63360  Biso   1.000  O
  O704     1.0000 0.14420  0.85580  0.64420  Biso   1.000  O
  O705     1.0000 0.63360  0.63360  0.63360  Biso   1.000  O
  O706     1.0000 0.64420  0.64420  0.64420  Biso   1.000  O
  O707     1.0000 0.63360  0.13360  0.13360  Biso   1.000  O
  O708     1.0000 0.64420  0.14420  0.14420  Biso   1.000  O
  O709     1.0000 0.13360  0.63360  0.13360  Biso   1.000  O
  O710     1.0000 0.14420  0.64420  0.14420  Biso   1.000  O
  O711     1.0000 0.13360  0.13360  0.63360  Biso   1.000  O
  O712     1.0000 0.14420  0.14420  0.64420  Biso   1.000  O
  O713     1.0000 0.36640  0.36640  0.63360  Biso   1.000  O
  O714     1.0000 0.35580  0.35580  0.64420  Biso   1.000  O
  O715     1.0000 0.36640  0.86640  0.13360  Biso   1.000  O
  O716     1.0000 0.35580  0.85580  0.14420  Biso   1.000  O
  O717     1.0000 0.86640  0.36640  0.13360  Biso   1.000  O
  O718     1.0000 0.85580  0.35580  0.14420  Biso   1.000  O
  O719     1.0000 0.86640  0.86640  0.63360  Biso   1.000  O
  O720     1.0000 0.85580  0.85580  0.64420  Biso   1.000  O
  O721     1.0000 0.63360  0.36640  0.36640  Biso   1.000  O
  O722     1.0000 0.64420  0.35580  0.35580  Biso   1.000  O
  O723     1.0000 0.63360  0.86640  0.86640  Biso   1.000  O
  O724     1.0000 0.64420  0.85580  0.85580  Biso   1.000  O
  O725     1.0000 0.13360  0.36640  0.86640  Biso   1.000  O
  O726     1.0000 0.14420  0.35580  0.85580  Biso   1.000  O
  O727     1.0000 0.13360  0.86640  0.36640  Biso   1.000  O
  O728     1.0000 0.14420  0.85580  0.35580  Biso   1.000  O
  O729     1.0000 0.36640  0.63360  0.36640  Biso   1.000  O
  O730     1.0000 0.35580  0.64420  0.35580  Biso   1.000  O
  O731     1.0000 0.36640  0.13360  0.86640  Biso   1.000  O
  O732     1.0000 0.35580  0.14420  0.85580  Biso   1.000  O
  O733     1.0000 0.86640  0.63360  0.86640  Biso   1.000  O
  O734     1.0000 0.85580  0.64420  0.85580  Biso   1.000  O
  O735     1.0000 0.86640  0.13360  0.36640  Biso   1.000  O
  O736     1.0000 0.85580  0.14420  0.35580  Biso   1.000  O
