data_image0
_cell_length_a       22.328
_cell_length_b       22.328
_cell_length_c       22.328
_cell_angle_alpha    90
_cell_angle_beta     90
_cell_angle_gamma    90

_symmetry_space_group_name_H-M    "P 1"
_symmetry_int_tables_number       1

loop_
  _symmetry_equiv_pos_as_xyz
  'x, y, z'

loop_
  _atom_site_label
  _atom_site_occupancy
  _atom_site_fract_x
  _atom_site_fract_y
  _atom_site_fract_z
  _atom_site_thermal_displace_type
  _atom_site_B_iso_or_equiv
  _atom_site_type_symbol
  Zn1      1.0000 0.57819  0.03768  0.01585  Biso   1.000  Zn
  C1       1.0000 0.57940  0.06830  0.19680  Biso   1.000  C
  C2       1.0000 0.54270  0.08740  0.24200  Biso   1.000  C
  H1       1.0000 0.50050  0.08310  0.23780  Biso   1.000  H
  C3       1.0000 0.56530  0.11240  0.29290  Biso   1.000  C
  H2       1.0000 0.53880  0.12490  0.32380  Biso   1.000  H
  C4       1.0000 0.62510  0.11970  0.30000  Biso   1.000  C
  C5       1.0000 0.66260  0.09970  0.25770  Biso   1.000  C
  H3       1.0000 0.70460  0.10400  0.26300  Biso   1.000  H
  C6       1.0000 0.64050  0.07270  0.20570  Biso   1.000  C
  H4       1.0000 0.66750  0.05730  0.17660  Biso   1.000  H
  C7       1.0000 0.55800  0.04220  0.13940  Biso   1.000  C
  O1       1.0000 0.58280  0.00300  0.11020  Biso   1.000  O
  O2       1.0000 0.59430  0.03990  0.09880  Biso   1.000  O
  O3       1.0000 0.56430  0.12210  0.99500  Biso   1.000  O
  O4       1.0000 0.50280  0.02760  0.14180  Biso   1.000  O
  Zn2      1.0000 0.92181  0.96232  0.51585  Biso   1.000  Zn
  C8       1.0000 0.92060  0.93170  0.69680  Biso   1.000  C
  C9       1.0000 0.95730  0.91260  0.74200  Biso   1.000  C
  H5       1.0000 0.99950  0.91690  0.73780  Biso   1.000  H
  C10      1.0000 0.93470  0.88760  0.79290  Biso   1.000  C
  H6       1.0000 0.96120  0.87510  0.82380  Biso   1.000  H
  C11      1.0000 0.87490  0.88030  0.80000  Biso   1.000  C
  C12      1.0000 0.83740  0.90030  0.75770  Biso   1.000  C
  H7       1.0000 0.79540  0.89600  0.76300  Biso   1.000  H
  C13      1.0000 0.85950  0.92730  0.70570  Biso   1.000  C
  H8       1.0000 0.83250  0.94270  0.67660  Biso   1.000  H
  C14      1.0000 0.94200  0.95780  0.63940  Biso   1.000  C
  O5       1.0000 0.91720  0.99700  0.61020  Biso   1.000  O
  O6       1.0000 0.90570  0.96010  0.59880  Biso   1.000  O
  O7       1.0000 0.93570  0.87790  0.49500  Biso   1.000  O
  O8       1.0000 0.99720  0.97240  0.64180  Biso   1.000  O
  Zn3      1.0000 0.42181  0.53768  0.48415  Biso   1.000  Zn
  C15      1.0000 0.42060  0.56830  0.30320  Biso   1.000  C
  C16      1.0000 0.45730  0.58740  0.25800  Biso   1.000  C
  H9       1.0000 0.49950  0.58310  0.26220  Biso   1.000  H
  C17      1.0000 0.43470  0.61240  0.20710  Biso   1.000  C
  H10      1.0000 0.46120  0.62490  0.17620  Biso   1.000  H
  C18      1.0000 0.37490  0.61970  0.20000  Biso   1.000  C
  C19      1.0000 0.33740  0.59970  0.24230  Biso   1.000  C
  H11      1.0000 0.29540  0.60400  0.23700  Biso   1.000  H
  C20      1.0000 0.35950  0.57270  0.29430  Biso   1.000  C
  H12      1.0000 0.33250  0.55730  0.32340  Biso   1.000  H
  C21      1.0000 0.44200  0.54220  0.36060  Biso   1.000  C
  O9       1.0000 0.41720  0.50300  0.38980  Biso   1.000  O
  O10      1.0000 0.40570  0.53990  0.40120  Biso   1.000  O
  O11      1.0000 0.43570  0.62210  0.50500  Biso   1.000  O
  O12      1.0000 0.49720  0.52760  0.35820  Biso   1.000  O
  Zn4      1.0000 0.07819  0.46232  0.98415  Biso   1.000  Zn
  C22      1.0000 0.07940  0.43170  0.80320  Biso   1.000  C
  C23      1.0000 0.04270  0.41260  0.75800  Biso   1.000  C
  H13      1.0000 0.00050  0.41690  0.76220  Biso   1.000  H
  C24      1.0000 0.06530  0.38760  0.70710  Biso   1.000  C
  H14      1.0000 0.03880  0.37510  0.67620  Biso   1.000  H
  C25      1.0000 0.12510  0.38030  0.70000  Biso   1.000  C
  C26      1.0000 0.16260  0.40030  0.74230  Biso   1.000  C
  H15      1.0000 0.20460  0.39600  0.73700  Biso   1.000  H
  C27      1.0000 0.14050  0.42730  0.79430  Biso   1.000  C
  H16      1.0000 0.16750  0.44270  0.82340  Biso   1.000  H
  C28      1.0000 0.05800  0.45780  0.86060  Biso   1.000  C
  O13      1.0000 0.08280  0.49700  0.88980  Biso   1.000  O
  O14      1.0000 0.09430  0.46010  0.90120  Biso   1.000  O
  O15      1.0000 0.06430  0.37790  0.00500  Biso   1.000  O
  O16      1.0000 0.00280  0.47240  0.85820  Biso   1.000  O
  Zn5      1.0000 0.01585  0.57819  0.03768  Biso   1.000  Zn
  C29      1.0000 0.19680  0.57940  0.06830  Biso   1.000  C
  C30      1.0000 0.24200  0.54270  0.08740  Biso   1.000  C
  H17      1.0000 0.23780  0.50050  0.08310  Biso   1.000  H
  C31      1.0000 0.29290  0.56530  0.11240  Biso   1.000  C
  H18      1.0000 0.32380  0.53880  0.12490  Biso   1.000  H
  C32      1.0000 0.30000  0.62510  0.11970  Biso   1.000  C
  C33      1.0000 0.25770  0.66260  0.09970  Biso   1.000  C
  H19      1.0000 0.26300  0.70460  0.10400  Biso   1.000  H
  C34      1.0000 0.20570  0.64050  0.07270  Biso   1.000  C
  H20      1.0000 0.17660  0.66750  0.05730  Biso   1.000  H
  C35      1.0000 0.13940  0.55800  0.04220  Biso   1.000  C
  O17      1.0000 0.11020  0.58280  0.00300  Biso   1.000  O
  O18      1.0000 0.09880  0.59430  0.03990  Biso   1.000  O
  O19      1.0000 0.99500  0.56430  0.12210  Biso   1.000  O
  O20      1.0000 0.14180  0.50280  0.02760  Biso   1.000  O
  Zn6      1.0000 0.51585  0.92181  0.96232  Biso   1.000  Zn
  C36      1.0000 0.69680  0.92060  0.93170  Biso   1.000  C
  C37      1.0000 0.74200  0.95730  0.91260  Biso   1.000  C
  H21      1.0000 0.73780  0.99950  0.91690  Biso   1.000  H
  C38      1.0000 0.79290  0.93470  0.88760  Biso   1.000  C
  H22      1.0000 0.82380  0.96120  0.87510  Biso   1.000  H
  C39      1.0000 0.80000  0.87490  0.88030  Biso   1.000  C
  C40      1.0000 0.75770  0.83740  0.90030  Biso   1.000  C
  H23      1.0000 0.76300  0.79540  0.89600  Biso   1.000  H
  C41      1.0000 0.70570  0.85950  0.92730  Biso   1.000  C
  H24      1.0000 0.67660  0.83250  0.94270  Biso   1.000  H
  C42      1.0000 0.63940  0.94200  0.95780  Biso   1.000  C
  O21      1.0000 0.61020  0.91720  0.99700  Biso   1.000  O
  O22      1.0000 0.59880  0.90570  0.96010  Biso   1.000  O
  O23      1.0000 0.49500  0.93570  0.87790  Biso   1.000  O
  O24      1.0000 0.64180  0.99720  0.97240  Biso   1.000  O
  Zn7      1.0000 0.48415  0.42181  0.53768  Biso   1.000  Zn
  C43      1.0000 0.30320  0.42060  0.56830  Biso   1.000  C
  C44      1.0000 0.25800  0.45730  0.58740  Biso   1.000  C
  H25      1.0000 0.26220  0.49950  0.58310  Biso   1.000  H
  C45      1.0000 0.20710  0.43470  0.61240  Biso   1.000  C
  H26      1.0000 0.17620  0.46120  0.62490  Biso   1.000  H
  C46      1.0000 0.20000  0.37490  0.61970  Biso   1.000  C
  C47      1.0000 0.24230  0.33740  0.59970  Biso   1.000  C
  H27      1.0000 0.23700  0.29540  0.60400  Biso   1.000  H
  C48      1.0000 0.29430  0.35950  0.57270  Biso   1.000  C
  H28      1.0000 0.32340  0.33250  0.55730  Biso   1.000  H
  C49      1.0000 0.36060  0.44200  0.54220  Biso   1.000  C
  O25      1.0000 0.38980  0.41720  0.50300  Biso   1.000  O
  O26      1.0000 0.40120  0.40570  0.53990  Biso   1.000  O
  O27      1.0000 0.50500  0.43570  0.62210  Biso   1.000  O
  O28      1.0000 0.35820  0.49720  0.52760  Biso   1.000  O
  Zn8      1.0000 0.98415  0.07819  0.46232  Biso   1.000  Zn
  C50      1.0000 0.80320  0.07940  0.43170  Biso   1.000  C
  C51      1.0000 0.75800  0.04270  0.41260  Biso   1.000  C
  H29      1.0000 0.76220  0.00050  0.41690  Biso   1.000  H
  C52      1.0000 0.70710  0.06530  0.38760  Biso   1.000  C
  H30      1.0000 0.67620  0.03880  0.37510  Biso   1.000  H
  C53      1.0000 0.70000  0.12510  0.38030  Biso   1.000  C
  C54      1.0000 0.74230  0.16260  0.40030  Biso   1.000  C
  H31      1.0000 0.73700  0.20460  0.39600  Biso   1.000  H
  C55      1.0000 0.79430  0.14050  0.42730  Biso   1.000  C
  H32      1.0000 0.82340  0.16750  0.44270  Biso   1.000  H
  C56      1.0000 0.86060  0.05800  0.45780  Biso   1.000  C
  O29      1.0000 0.88980  0.08280  0.49700  Biso   1.000  O
  O30      1.0000 0.90120  0.09430  0.46010  Biso   1.000  O
  O31      1.0000 0.00500  0.06430  0.37790  Biso   1.000  O
  O32      1.0000 0.85820  0.00280  0.47240  Biso   1.000  O
  Zn9      1.0000 0.03768  0.01585  0.57819  Biso   1.000  Zn
  C57      1.0000 0.06830  0.19680  0.57940  Biso   1.000  C
  C58      1.0000 0.08740  0.24200  0.54270  Biso   1.000  C
  H33      1.0000 0.08310  0.23780  0.50050  Biso   1.000  H
  C59      1.0000 0.11240  0.29290  0.56530  Biso   1.000  C
  H34      1.0000 0.12490  0.32380  0.53880  Biso   1.000  H
  C60      1.0000 0.11970  0.30000  0.62510  Biso   1.000  C
  C61      1.0000 0.09970  0.25770  0.66260  Biso   1.000  C
  H35      1.0000 0.10400  0.26300  0.70460  Biso   1.000  H
  C62      1.0000 0.07270  0.20570  0.64050  Biso   1.000  C
  H36      1.0000 0.05730  0.17660  0.66750  Biso   1.000  H
  C63      1.0000 0.04220  0.13940  0.55800  Biso   1.000  C
  O33      1.0000 0.00300  0.11020  0.58280  Biso   1.000  O
  O34      1.0000 0.03990  0.09880  0.59430  Biso   1.000  O
  O35      1.0000 0.12210  0.99500  0.56430  Biso   1.000  O
  O36      1.0000 0.02760  0.14180  0.50280  Biso   1.000  O
  Zn10     1.0000 0.96232  0.51585  0.92181  Biso   1.000  Zn
  C64      1.0000 0.93170  0.69680  0.92060  Biso   1.000  C
  C65      1.0000 0.91260  0.74200  0.95730  Biso   1.000  C
  H37      1.0000 0.91690  0.73780  0.99950  Biso   1.000  H
  C66      1.0000 0.88760  0.79290  0.93470  Biso   1.000  C
  H38      1.0000 0.87510  0.82380  0.96120  Biso   1.000  H
  C67      1.0000 0.88030  0.80000  0.87490  Biso   1.000  C
  C68      1.0000 0.90030  0.75770  0.83740  Biso   1.000  C
  H39      1.0000 0.89600  0.76300  0.79540  Biso   1.000  H
  C69      1.0000 0.92730  0.70570  0.85950  Biso   1.000  C
  H40      1.0000 0.94270  0.67660  0.83250  Biso   1.000  H
  C70      1.0000 0.95780  0.63940  0.94200  Biso   1.000  C
  O37      1.0000 0.99700  0.61020  0.91720  Biso   1.000  O
  O38      1.0000 0.96010  0.59880  0.90570  Biso   1.000  O
  O39      1.0000 0.87790  0.49500  0.93570  Biso   1.000  O
  O40      1.0000 0.97240  0.64180  0.99720  Biso   1.000  O
  Zn11     1.0000 0.53768  0.48415  0.42181  Biso   1.000  Zn
  C71      1.0000 0.56830  0.30320  0.42060  Biso   1.000  C
  C72      1.0000 0.58740  0.25800  0.45730  Biso   1.000  C
  H41      1.0000 0.58310  0.26220  0.49950  Biso   1.000  H
  C73      1.0000 0.61240  0.20710  0.43470  Biso   1.000  C
  H42      1.0000 0.62490  0.17620  0.46120  Biso   1.000  H
  C74      1.0000 0.61970  0.20000  0.37490  Biso   1.000  C
  C75      1.0000 0.59970  0.24230  0.33740  Biso   1.000  C
  H43      1.0000 0.60400  0.23700  0.29540  Biso   1.000  H
  C76      1.0000 0.57270  0.29430  0.35950  Biso   1.000  C
  H44      1.0000 0.55730  0.32340  0.33250  Biso   1.000  H
  C77      1.0000 0.54220  0.36060  0.44200  Biso   1.000  C
  O41      1.0000 0.50300  0.38980  0.41720  Biso   1.000  O
  O42      1.0000 0.53990  0.40120  0.40570  Biso   1.000  O
  O43      1.0000 0.62210  0.50500  0.43570  Biso   1.000  O
  O44      1.0000 0.52760  0.35820  0.49720  Biso   1.000  O
  Zn12     1.0000 0.46232  0.98415  0.07819  Biso   1.000  Zn
  C78      1.0000 0.43170  0.80320  0.07940  Biso   1.000  C
  C79      1.0000 0.41260  0.75800  0.04270  Biso   1.000  C
  H45      1.0000 0.41690  0.76220  0.00050  Biso   1.000  H
  C80      1.0000 0.38760  0.70710  0.06530  Biso   1.000  C
  H46      1.0000 0.37510  0.67620  0.03880  Biso   1.000  H
  C81      1.0000 0.38030  0.70000  0.12510  Biso   1.000  C
  C82      1.0000 0.40030  0.74230  0.16260  Biso   1.000  C
  H47      1.0000 0.39600  0.73700  0.20460  Biso   1.000  H
  C83      1.0000 0.42730  0.79430  0.14050  Biso   1.000  C
  H48      1.0000 0.44270  0.82340  0.16750  Biso   1.000  H
  C84      1.0000 0.45780  0.86060  0.05800  Biso   1.000  C
  O45      1.0000 0.49700  0.88980  0.08280  Biso   1.000  O
  O46      1.0000 0.46010  0.90120  0.09430  Biso   1.000  O
  O47      1.0000 0.37790  0.00500  0.06430  Biso   1.000  O
  O48      1.0000 0.47240  0.85820  0.00280  Biso   1.000  O
  Zn13     1.0000 0.42181  0.96232  0.98415  Biso   1.000  Zn
  C85      1.0000 0.42060  0.93170  0.80320  Biso   1.000  C
  C86      1.0000 0.45730  0.91260  0.75800  Biso   1.000  C
  H49      1.0000 0.49950  0.91690  0.76220  Biso   1.000  H
  C87      1.0000 0.43470  0.88760  0.70710  Biso   1.000  C
  H50      1.0000 0.46120  0.87510  0.67620  Biso   1.000  H
  C88      1.0000 0.37490  0.88030  0.70000  Biso   1.000  C
  C89      1.0000 0.33740  0.90030  0.74230  Biso   1.000  C
  H51      1.0000 0.29540  0.89600  0.73700  Biso   1.000  H
  C90      1.0000 0.35950  0.92730  0.79430  Biso   1.000  C
  H52      1.0000 0.33250  0.94270  0.82340  Biso   1.000  H
  C91      1.0000 0.44200  0.95780  0.86060  Biso   1.000  C
  O49      1.0000 0.41720  0.99700  0.88980  Biso   1.000  O
  O50      1.0000 0.40570  0.96010  0.90120  Biso   1.000  O
  O51      1.0000 0.43570  0.87790  0.00500  Biso   1.000  O
  O52      1.0000 0.49720  0.97240  0.85820  Biso   1.000  O
  Zn14     1.0000 0.07819  0.03768  0.48415  Biso   1.000  Zn
  C92      1.0000 0.07940  0.06830  0.30320  Biso   1.000  C
  C93      1.0000 0.04270  0.08740  0.25800  Biso   1.000  C
  H53      1.0000 0.00050  0.08310  0.26220  Biso   1.000  H
  C94      1.0000 0.06530  0.11240  0.20710  Biso   1.000  C
  H54      1.0000 0.03880  0.12490  0.17620  Biso   1.000  H
  C95      1.0000 0.12510  0.11970  0.20000  Biso   1.000  C
  C96      1.0000 0.16260  0.09970  0.24230  Biso   1.000  C
  H55      1.0000 0.20460  0.10400  0.23700  Biso   1.000  H
  C97      1.0000 0.14050  0.07270  0.29430  Biso   1.000  C
  H56      1.0000 0.16750  0.05730  0.32340  Biso   1.000  H
  C98      1.0000 0.05800  0.04220  0.36060  Biso   1.000  C
  O53      1.0000 0.08280  0.00300  0.38980  Biso   1.000  O
  O54      1.0000 0.09430  0.03990  0.40120  Biso   1.000  O
  O55      1.0000 0.06430  0.12210  0.50500  Biso   1.000  O
  O56      1.0000 0.00280  0.02760  0.35820  Biso   1.000  O
  Zn15     1.0000 0.57819  0.46232  0.51585  Biso   1.000  Zn
  C99      1.0000 0.57940  0.43170  0.69680  Biso   1.000  C
  C100     1.0000 0.54270  0.41260  0.74200  Biso   1.000  C
  H57      1.0000 0.50050  0.41690  0.73780  Biso   1.000  H
  C101     1.0000 0.56530  0.38760  0.79290  Biso   1.000  C
  H58      1.0000 0.53880  0.37510  0.82380  Biso   1.000  H
  C102     1.0000 0.62510  0.38030  0.80000  Biso   1.000  C
  C103     1.0000 0.66260  0.40030  0.75770  Biso   1.000  C
  H59      1.0000 0.70460  0.39600  0.76300  Biso   1.000  H
  C104     1.0000 0.64050  0.42730  0.70570  Biso   1.000  C
  H60      1.0000 0.66750  0.44270  0.67660  Biso   1.000  H
  C105     1.0000 0.55800  0.45780  0.63940  Biso   1.000  C
  O57      1.0000 0.58280  0.49700  0.61020  Biso   1.000  O
  O58      1.0000 0.59430  0.46010  0.59880  Biso   1.000  O
  O59      1.0000 0.56430  0.37790  0.49500  Biso   1.000  O
  O60      1.0000 0.50280  0.47240  0.64180  Biso   1.000  O
  Zn16     1.0000 0.92181  0.53768  0.01585  Biso   1.000  Zn
  C106     1.0000 0.92060  0.56830  0.19680  Biso   1.000  C
  C107     1.0000 0.95730  0.58740  0.24200  Biso   1.000  C
  H61      1.0000 0.99950  0.58310  0.23780  Biso   1.000  H
  C108     1.0000 0.93470  0.61240  0.29290  Biso   1.000  C
  H62      1.0000 0.96120  0.62490  0.32380  Biso   1.000  H
  C109     1.0000 0.87490  0.61970  0.30000  Biso   1.000  C
  C110     1.0000 0.83740  0.59970  0.25770  Biso   1.000  C
  H63      1.0000 0.79540  0.60400  0.26300  Biso   1.000  H
  C111     1.0000 0.85950  0.57270  0.20570  Biso   1.000  C
  H64      1.0000 0.83250  0.55730  0.17660  Biso   1.000  H
  C112     1.0000 0.94200  0.54220  0.13940  Biso   1.000  C
  O61      1.0000 0.91720  0.50300  0.11020  Biso   1.000  O
  O62      1.0000 0.90570  0.53990  0.09880  Biso   1.000  O
  O63      1.0000 0.93570  0.62210  0.99500  Biso   1.000  O
  O64      1.0000 0.99720  0.52760  0.14180  Biso   1.000  O
  Zn17     1.0000 0.98415  0.42181  0.96232  Biso   1.000  Zn
  C113     1.0000 0.80320  0.42060  0.93170  Biso   1.000  C
  C114     1.0000 0.75800  0.45730  0.91260  Biso   1.000  C
  H65      1.0000 0.76220  0.49950  0.91690  Biso   1.000  H
  C115     1.0000 0.70710  0.43470  0.88760  Biso   1.000  C
  H66      1.0000 0.67620  0.46120  0.87510  Biso   1.000  H
  C116     1.0000 0.70000  0.37490  0.88030  Biso   1.000  C
  C117     1.0000 0.74230  0.33740  0.90030  Biso   1.000  C
  H67      1.0000 0.73700  0.29540  0.89600  Biso   1.000  H
  C118     1.0000 0.79430  0.35950  0.92730  Biso   1.000  C
  H68      1.0000 0.82340  0.33250  0.94270  Biso   1.000  H
  C119     1.0000 0.86060  0.44200  0.95780  Biso   1.000  C
  O65      1.0000 0.88980  0.41720  0.99700  Biso   1.000  O
  O66      1.0000 0.90120  0.40570  0.96010  Biso   1.000  O
  O67      1.0000 0.00500  0.43570  0.87790  Biso   1.000  O
  O68      1.0000 0.85820  0.49720  0.97240  Biso   1.000  O
  Zn18     1.0000 0.48415  0.07819  0.03768  Biso   1.000  Zn
  C120     1.0000 0.30320  0.07940  0.06830  Biso   1.000  C
  C121     1.0000 0.25800  0.04270  0.08740  Biso   1.000  C
  H69      1.0000 0.26220  0.00050  0.08310  Biso   1.000  H
  C122     1.0000 0.20710  0.06530  0.11240  Biso   1.000  C
  H70      1.0000 0.17620  0.03880  0.12490  Biso   1.000  H
  C123     1.0000 0.20000  0.12510  0.11970  Biso   1.000  C
  C124     1.0000 0.24230  0.16260  0.09970  Biso   1.000  C
  H71      1.0000 0.23700  0.20460  0.10400  Biso   1.000  H
  C125     1.0000 0.29430  0.14050  0.07270  Biso   1.000  C
  H72      1.0000 0.32340  0.16750  0.05730  Biso   1.000  H
  C126     1.0000 0.36060  0.05800  0.04220  Biso   1.000  C
  O69      1.0000 0.38980  0.08280  0.00300  Biso   1.000  O
  O70      1.0000 0.40120  0.09430  0.03990  Biso   1.000  O
  O71      1.0000 0.50500  0.06430  0.12210  Biso   1.000  O
  O72      1.0000 0.35820  0.00280  0.02760  Biso   1.000  O
  Zn19     1.0000 0.51585  0.57819  0.46232  Biso   1.000  Zn
  C127     1.0000 0.69680  0.57940  0.43170  Biso   1.000  C
  C128     1.0000 0.74200  0.54270  0.41260  Biso   1.000  C
  H73      1.0000 0.73780  0.50050  0.41690  Biso   1.000  H
  C129     1.0000 0.79290  0.56530  0.38760  Biso   1.000  C
  H74      1.0000 0.82380  0.53880  0.37510  Biso   1.000  H
  C130     1.0000 0.80000  0.62510  0.38030  Biso   1.000  C
  C131     1.0000 0.75770  0.66260  0.40030  Biso   1.000  C
  H75      1.0000 0.76300  0.70460  0.39600  Biso   1.000  H
  C132     1.0000 0.70570  0.64050  0.42730  Biso   1.000  C
  H76      1.0000 0.67660  0.66750  0.44270  Biso   1.000  H
  C133     1.0000 0.63940  0.55800  0.45780  Biso   1.000  C
  O73      1.0000 0.61020  0.58280  0.49700  Biso   1.000  O
  O74      1.0000 0.59880  0.59430  0.46010  Biso   1.000  O
  O75      1.0000 0.49500  0.56430  0.37790  Biso   1.000  O
  O76      1.0000 0.64180  0.50280  0.47240  Biso   1.000  O
  Zn20     1.0000 0.01585  0.92181  0.53768  Biso   1.000  Zn
  C134     1.0000 0.19680  0.92060  0.56830  Biso   1.000  C
  C135     1.0000 0.24200  0.95730  0.58740  Biso   1.000  C
  H77      1.0000 0.23780  0.99950  0.58310  Biso   1.000  H
  C136     1.0000 0.29290  0.93470  0.61240  Biso   1.000  C
  H78      1.0000 0.32380  0.96120  0.62490  Biso   1.000  H
  C137     1.0000 0.30000  0.87490  0.61970  Biso   1.000  C
  C138     1.0000 0.25770  0.83740  0.59970  Biso   1.000  C
  H79      1.0000 0.26300  0.79540  0.60400  Biso   1.000  H
  C139     1.0000 0.20570  0.85950  0.57270  Biso   1.000  C
  H80      1.0000 0.17660  0.83250  0.55730  Biso   1.000  H
  C140     1.0000 0.13940  0.94200  0.54220  Biso   1.000  C
  O77      1.0000 0.11020  0.91720  0.50300  Biso   1.000  O
  O78      1.0000 0.09880  0.90570  0.53990  Biso   1.000  O
  O79      1.0000 0.99500  0.93570  0.62210  Biso   1.000  O
  O80      1.0000 0.14180  0.99720  0.52760  Biso   1.000  O
  Zn21     1.0000 0.96232  0.98415  0.42181  Biso   1.000  Zn
  C141     1.0000 0.93170  0.80320  0.42060  Biso   1.000  C
  C142     1.0000 0.91260  0.75800  0.45730  Biso   1.000  C
  H81      1.0000 0.91690  0.76220  0.49950  Biso   1.000  H
  C143     1.0000 0.88760  0.70710  0.43470  Biso   1.000  C
  H82      1.0000 0.87510  0.67620  0.46120  Biso   1.000  H
  C144     1.0000 0.88030  0.70000  0.37490  Biso   1.000  C
  C145     1.0000 0.90030  0.74230  0.33740  Biso   1.000  C
  H83      1.0000 0.89600  0.73700  0.29540  Biso   1.000  H
  C146     1.0000 0.92730  0.79430  0.35950  Biso   1.000  C
  H84      1.0000 0.94270  0.82340  0.33250  Biso   1.000  H
  C147     1.0000 0.95780  0.86060  0.44200  Biso   1.000  C
  O81      1.0000 0.99700  0.88980  0.41720  Biso   1.000  O
  O82      1.0000 0.96010  0.90120  0.40570  Biso   1.000  O
  O83      1.0000 0.87790  0.00500  0.43570  Biso   1.000  O
  O84      1.0000 0.97240  0.85820  0.49720  Biso   1.000  O
  Zn22     1.0000 0.03768  0.48415  0.07819  Biso   1.000  Zn
  C148     1.0000 0.06830  0.30320  0.07940  Biso   1.000  C
  C149     1.0000 0.08740  0.25800  0.04270  Biso   1.000  C
  H85      1.0000 0.08310  0.26220  0.00050  Biso   1.000  H
  C150     1.0000 0.11240  0.20710  0.06530  Biso   1.000  C
  H86      1.0000 0.12490  0.17620  0.03880  Biso   1.000  H
  C151     1.0000 0.11970  0.20000  0.12510  Biso   1.000  C
  C152     1.0000 0.09970  0.24230  0.16260  Biso   1.000  C
  H87      1.0000 0.10400  0.23700  0.20460  Biso   1.000  H
  C153     1.0000 0.07270  0.29430  0.14050  Biso   1.000  C
  H88      1.0000 0.05730  0.32340  0.16750  Biso   1.000  H
  C154     1.0000 0.04220  0.36060  0.05800  Biso   1.000  C
  O85      1.0000 0.00300  0.38980  0.08280  Biso   1.000  O
  O86      1.0000 0.03990  0.40120  0.09430  Biso   1.000  O
  O87      1.0000 0.12210  0.50500  0.06430  Biso   1.000  O
  O88      1.0000 0.02760  0.35820  0.00280  Biso   1.000  O
  Zn23     1.0000 0.46232  0.51585  0.57819  Biso   1.000  Zn
  C155     1.0000 0.43170  0.69680  0.57940  Biso   1.000  C
  C156     1.0000 0.41260  0.74200  0.54270  Biso   1.000  C
  H89      1.0000 0.41690  0.73780  0.50050  Biso   1.000  H
  C157     1.0000 0.38760  0.79290  0.56530  Biso   1.000  C
  H90      1.0000 0.37510  0.82380  0.53880  Biso   1.000  H
  C158     1.0000 0.38030  0.80000  0.62510  Biso   1.000  C
  C159     1.0000 0.40030  0.75770  0.66260  Biso   1.000  C
  H91      1.0000 0.39600  0.76300  0.70460  Biso   1.000  H
  C160     1.0000 0.42730  0.70570  0.64050  Biso   1.000  C
  H92      1.0000 0.44270  0.67660  0.66750  Biso   1.000  H
  C161     1.0000 0.45780  0.63940  0.55800  Biso   1.000  C
  O89      1.0000 0.49700  0.61020  0.58280  Biso   1.000  O
  O90      1.0000 0.46010  0.59880  0.59430  Biso   1.000  O
  O91      1.0000 0.37790  0.49500  0.56430  Biso   1.000  O
  O92      1.0000 0.47240  0.64180  0.50280  Biso   1.000  O
  Zn24     1.0000 0.53768  0.01585  0.92181  Biso   1.000  Zn
  C162     1.0000 0.56830  0.19680  0.92060  Biso   1.000  C
  C163     1.0000 0.58740  0.24200  0.95730  Biso   1.000  C
  H93      1.0000 0.58310  0.23780  0.99950  Biso   1.000  H
  C164     1.0000 0.61240  0.29290  0.93470  Biso   1.000  C
  H94      1.0000 0.62490  0.32380  0.96120  Biso   1.000  H
  C165     1.0000 0.61970  0.30000  0.87490  Biso   1.000  C
  C166     1.0000 0.59970  0.25770  0.83740  Biso   1.000  C
  H95      1.0000 0.60400  0.26300  0.79540  Biso   1.000  H
  C167     1.0000 0.57270  0.20570  0.85950  Biso   1.000  C
  H96      1.0000 0.55730  0.17660  0.83250  Biso   1.000  H
  C168     1.0000 0.54220  0.13940  0.94200  Biso   1.000  C
  O93      1.0000 0.50300  0.11020  0.91720  Biso   1.000  O
  O94      1.0000 0.53990  0.09880  0.90570  Biso   1.000  O
  O95      1.0000 0.62210  0.99500  0.93570  Biso   1.000  O
  O96      1.0000 0.52760  0.14180  0.99720  Biso   1.000  O
  Zn25     1.0000 0.54650  0.95350  0.04650  Biso   1.000  Zn
  Zn26     1.0000 0.95350  0.04650  0.54650  Biso   1.000  Zn
  Zn27     1.0000 0.45350  0.45350  0.45350  Biso   1.000  Zn
  Zn28     1.0000 0.04650  0.54650  0.95350  Biso   1.000  Zn
  Zn29     1.0000 0.45350  0.04650  0.95350  Biso   1.000  Zn
  Zn30     1.0000 0.04650  0.95350  0.45350  Biso   1.000  Zn
  Zn31     1.0000 0.54650  0.54650  0.54650  Biso   1.000  Zn
  Zn32     1.0000 0.95350  0.45350  0.04650  Biso   1.000  Zn
  N1       1.0000 0.64800  0.14800  0.35200  Biso   1.000  N
  N2       1.0000 0.85200  0.85200  0.85200  Biso   1.000  N
  N3       1.0000 0.35200  0.64800  0.14800  Biso   1.000  N
  N4       1.0000 0.14800  0.35200  0.64800  Biso   1.000  N
  N5       1.0000 0.35200  0.85200  0.64800  Biso   1.000  N
  N6       1.0000 0.14800  0.14800  0.14800  Biso   1.000  N
  N7       1.0000 0.64800  0.35200  0.85200  Biso   1.000  N
  N8       1.0000 0.85200  0.64800  0.35200  Biso   1.000  N
  O97      1.0000 0.50000  0.00000  0.00000  Biso   1.000  O
  O98      1.0000 0.00000  0.00000  0.50000  Biso   1.000  O
  O99      1.0000 0.50000  0.50000  0.50000  Biso   1.000  O
  O100     1.0000 0.00000  0.50000  0.00000  Biso   1.000  O
  Zn33     1.0000 0.07819  0.53768  0.51585  Biso   1.000  Zn
  C169     1.0000 0.07940  0.56830  0.69680  Biso   1.000  C
  C170     1.0000 0.04270  0.58740  0.74200  Biso   1.000  C
  H97      1.0000 0.00050  0.58310  0.73780  Biso   1.000  H
  C171     1.0000 0.06530  0.61240  0.79290  Biso   1.000  C
  H98      1.0000 0.03880  0.62490  0.82380  Biso   1.000  H
  C172     1.0000 0.12510  0.61970  0.80000  Biso   1.000  C
  C173     1.0000 0.16260  0.59970  0.75770  Biso   1.000  C
  H99      1.0000 0.20460  0.60400  0.76300  Biso   1.000  H
  C174     1.0000 0.14050  0.57270  0.70570  Biso   1.000  C
  H100     1.0000 0.16750  0.55730  0.67660  Biso   1.000  H
  C175     1.0000 0.05800  0.54220  0.63940  Biso   1.000  C
  O101     1.0000 0.08280  0.50300  0.61020  Biso   1.000  O
  O102     1.0000 0.09430  0.53990  0.59880  Biso   1.000  O
  O103     1.0000 0.06430  0.62210  0.49500  Biso   1.000  O
  O104     1.0000 0.00280  0.52760  0.64180  Biso   1.000  O
  Zn34     1.0000 0.42181  0.46232  0.01585  Biso   1.000  Zn
  C176     1.0000 0.42060  0.43170  0.19680  Biso   1.000  C
  C177     1.0000 0.45730  0.41260  0.24200  Biso   1.000  C
  H101     1.0000 0.49950  0.41690  0.23780  Biso   1.000  H
  C178     1.0000 0.43470  0.38760  0.29290  Biso   1.000  C
  H102     1.0000 0.46120  0.37510  0.32380  Biso   1.000  H
  C179     1.0000 0.37490  0.38030  0.30000  Biso   1.000  C
  C180     1.0000 0.33740  0.40030  0.25770  Biso   1.000  C
  H103     1.0000 0.29540  0.39600  0.26300  Biso   1.000  H
  C181     1.0000 0.35950  0.42730  0.20570  Biso   1.000  C
  H104     1.0000 0.33250  0.44270  0.17660  Biso   1.000  H
  C182     1.0000 0.44200  0.45780  0.13940  Biso   1.000  C
  O105     1.0000 0.41720  0.49700  0.11020  Biso   1.000  O
  O106     1.0000 0.40570  0.46010  0.09880  Biso   1.000  O
  O107     1.0000 0.43570  0.37790  0.99500  Biso   1.000  O
  O108     1.0000 0.49720  0.47240  0.14180  Biso   1.000  O
  Zn35     1.0000 0.92181  0.03768  0.98415  Biso   1.000  Zn
  C183     1.0000 0.92060  0.06830  0.80320  Biso   1.000  C
  C184     1.0000 0.95730  0.08740  0.75800  Biso   1.000  C
  H105     1.0000 0.99950  0.08310  0.76220  Biso   1.000  H
  C185     1.0000 0.93470  0.11240  0.70710  Biso   1.000  C
  H106     1.0000 0.96120  0.12490  0.67620  Biso   1.000  H
  C186     1.0000 0.87490  0.11970  0.70000  Biso   1.000  C
  C187     1.0000 0.83740  0.09970  0.74230  Biso   1.000  C
  H107     1.0000 0.79540  0.10400  0.73700  Biso   1.000  H
  C188     1.0000 0.85950  0.07270  0.79430  Biso   1.000  C
  H108     1.0000 0.83250  0.05730  0.82340  Biso   1.000  H
  C189     1.0000 0.94200  0.04220  0.86060  Biso   1.000  C
  O109     1.0000 0.91720  0.00300  0.88980  Biso   1.000  O
  O110     1.0000 0.90570  0.03990  0.90120  Biso   1.000  O
  O111     1.0000 0.93570  0.12210  0.00500  Biso   1.000  O
  O112     1.0000 0.99720  0.02760  0.85820  Biso   1.000  O
  Zn36     1.0000 0.57819  0.96232  0.48415  Biso   1.000  Zn
  C190     1.0000 0.57940  0.93170  0.30320  Biso   1.000  C
  C191     1.0000 0.54270  0.91260  0.25800  Biso   1.000  C
  H109     1.0000 0.50050  0.91690  0.26220  Biso   1.000  H
  C192     1.0000 0.56530  0.88760  0.20710  Biso   1.000  C
  H110     1.0000 0.53880  0.87510  0.17620  Biso   1.000  H
  C193     1.0000 0.62510  0.88030  0.20000  Biso   1.000  C
  C194     1.0000 0.66260  0.90030  0.24230  Biso   1.000  C
  H111     1.0000 0.70460  0.89600  0.23700  Biso   1.000  H
  C195     1.0000 0.64050  0.92730  0.29430  Biso   1.000  C
  H112     1.0000 0.66750  0.94270  0.32340  Biso   1.000  H
  C196     1.0000 0.55800  0.95780  0.36060  Biso   1.000  C
  O113     1.0000 0.58280  0.99700  0.38980  Biso   1.000  O
  O114     1.0000 0.59430  0.96010  0.40120  Biso   1.000  O
  O115     1.0000 0.56430  0.87790  0.50500  Biso   1.000  O
  O116     1.0000 0.50280  0.97240  0.35820  Biso   1.000  O
  Zn37     1.0000 0.51585  0.07819  0.53768  Biso   1.000  Zn
  C197     1.0000 0.69680  0.07940  0.56830  Biso   1.000  C
  C198     1.0000 0.74200  0.04270  0.58740  Biso   1.000  C
  H113     1.0000 0.73780  0.00050  0.58310  Biso   1.000  H
  C199     1.0000 0.79290  0.06530  0.61240  Biso   1.000  C
  H114     1.0000 0.82380  0.03880  0.62490  Biso   1.000  H
  C200     1.0000 0.80000  0.12510  0.61970  Biso   1.000  C
  C201     1.0000 0.75770  0.16260  0.59970  Biso   1.000  C
  H115     1.0000 0.76300  0.20460  0.60400  Biso   1.000  H
  C202     1.0000 0.70570  0.14050  0.57270  Biso   1.000  C
  H116     1.0000 0.67660  0.16750  0.55730  Biso   1.000  H
  C203     1.0000 0.63940  0.05800  0.54220  Biso   1.000  C
  O117     1.0000 0.61020  0.08280  0.50300  Biso   1.000  O
  O118     1.0000 0.59880  0.09430  0.53990  Biso   1.000  O
  O119     1.0000 0.49500  0.06430  0.62210  Biso   1.000  O
  O120     1.0000 0.64180  0.00280  0.52760  Biso   1.000  O
  Zn38     1.0000 0.01585  0.42181  0.46232  Biso   1.000  Zn
  C204     1.0000 0.19680  0.42060  0.43170  Biso   1.000  C
  C205     1.0000 0.24200  0.45730  0.41260  Biso   1.000  C
  H117     1.0000 0.23780  0.49950  0.41690  Biso   1.000  H
  C206     1.0000 0.29290  0.43470  0.38760  Biso   1.000  C
  H118     1.0000 0.32380  0.46120  0.37510  Biso   1.000  H
  C207     1.0000 0.30000  0.37490  0.38030  Biso   1.000  C
  C208     1.0000 0.25770  0.33740  0.40030  Biso   1.000  C
  H119     1.0000 0.26300  0.29540  0.39600  Biso   1.000  H
  C209     1.0000 0.20570  0.35950  0.42730  Biso   1.000  C
  H120     1.0000 0.17660  0.33250  0.44270  Biso   1.000  H
  C210     1.0000 0.13940  0.44200  0.45780  Biso   1.000  C
  O121     1.0000 0.11020  0.41720  0.49700  Biso   1.000  O
  O122     1.0000 0.09880  0.40570  0.46010  Biso   1.000  O
  O123     1.0000 0.99500  0.43570  0.37790  Biso   1.000  O
  O124     1.0000 0.14180  0.49720  0.47240  Biso   1.000  O
  Zn39     1.0000 0.98415  0.92181  0.03768  Biso   1.000  Zn
  C211     1.0000 0.80320  0.92060  0.06830  Biso   1.000  C
  C212     1.0000 0.75800  0.95730  0.08740  Biso   1.000  C
  H121     1.0000 0.76220  0.99950  0.08310  Biso   1.000  H
  C213     1.0000 0.70710  0.93470  0.11240  Biso   1.000  C
  H122     1.0000 0.67620  0.96120  0.12490  Biso   1.000  H
  C214     1.0000 0.70000  0.87490  0.11970  Biso   1.000  C
  C215     1.0000 0.74230  0.83740  0.09970  Biso   1.000  C
  H123     1.0000 0.73700  0.79540  0.10400  Biso   1.000  H
  C216     1.0000 0.79430  0.85950  0.07270  Biso   1.000  C
  H124     1.0000 0.82340  0.83250  0.05730  Biso   1.000  H
  C217     1.0000 0.86060  0.94200  0.04220  Biso   1.000  C
  O125     1.0000 0.88980  0.91720  0.00300  Biso   1.000  O
  O126     1.0000 0.90120  0.90570  0.03990  Biso   1.000  O
  O127     1.0000 0.00500  0.93570  0.12210  Biso   1.000  O
  O128     1.0000 0.85820  0.99720  0.02760  Biso   1.000  O
  Zn40     1.0000 0.48415  0.57819  0.96232  Biso   1.000  Zn
  C218     1.0000 0.30320  0.57940  0.93170  Biso   1.000  C
  C219     1.0000 0.25800  0.54270  0.91260  Biso   1.000  C
  H125     1.0000 0.26220  0.50050  0.91690  Biso   1.000  H
  C220     1.0000 0.20710  0.56530  0.88760  Biso   1.000  C
  H126     1.0000 0.17620  0.53880  0.87510  Biso   1.000  H
  C221     1.0000 0.20000  0.62510  0.88030  Biso   1.000  C
  C222     1.0000 0.24230  0.66260  0.90030  Biso   1.000  C
  H127     1.0000 0.23700  0.70460  0.89600  Biso   1.000  H
  C223     1.0000 0.29430  0.64050  0.92730  Biso   1.000  C
  H128     1.0000 0.32340  0.66750  0.94270  Biso   1.000  H
  C224     1.0000 0.36060  0.55800  0.95780  Biso   1.000  C
  O129     1.0000 0.38980  0.58280  0.99700  Biso   1.000  O
  O130     1.0000 0.40120  0.59430  0.96010  Biso   1.000  O
  O131     1.0000 0.50500  0.56430  0.87790  Biso   1.000  O
  O132     1.0000 0.35820  0.50280  0.97240  Biso   1.000  O
  Zn41     1.0000 0.53768  0.51585  0.07819  Biso   1.000  Zn
  C225     1.0000 0.56830  0.69680  0.07940  Biso   1.000  C
  C226     1.0000 0.58740  0.74200  0.04270  Biso   1.000  C
  H129     1.0000 0.58310  0.73780  0.00050  Biso   1.000  H
  C227     1.0000 0.61240  0.79290  0.06530  Biso   1.000  C
  H130     1.0000 0.62490  0.82380  0.03880  Biso   1.000  H
  C228     1.0000 0.61970  0.80000  0.12510  Biso   1.000  C
  C229     1.0000 0.59970  0.75770  0.16260  Biso   1.000  C
  H131     1.0000 0.60400  0.76300  0.20460  Biso   1.000  H
  C230     1.0000 0.57270  0.70570  0.14050  Biso   1.000  C
  H132     1.0000 0.55730  0.67660  0.16750  Biso   1.000  H
  C231     1.0000 0.54220  0.63940  0.05800  Biso   1.000  C
  O133     1.0000 0.50300  0.61020  0.08280  Biso   1.000  O
  O134     1.0000 0.53990  0.59880  0.09430  Biso   1.000  O
  O135     1.0000 0.62210  0.49500  0.06430  Biso   1.000  O
  O136     1.0000 0.52760  0.64180  0.00280  Biso   1.000  O
  Zn42     1.0000 0.46232  0.01585  0.42181  Biso   1.000  Zn
  C232     1.0000 0.43170  0.19680  0.42060  Biso   1.000  C
  C233     1.0000 0.41260  0.24200  0.45730  Biso   1.000  C
  H133     1.0000 0.41690  0.23780  0.49950  Biso   1.000  H
  C234     1.0000 0.38760  0.29290  0.43470  Biso   1.000  C
  H134     1.0000 0.37510  0.32380  0.46120  Biso   1.000  H
  C235     1.0000 0.38030  0.30000  0.37490  Biso   1.000  C
  C236     1.0000 0.40030  0.25770  0.33740  Biso   1.000  C
  H135     1.0000 0.39600  0.26300  0.29540  Biso   1.000  H
  C237     1.0000 0.42730  0.20570  0.35950  Biso   1.000  C
  H136     1.0000 0.44270  0.17660  0.33250  Biso   1.000  H
  C238     1.0000 0.45780  0.13940  0.44200  Biso   1.000  C
  O137     1.0000 0.49700  0.11020  0.41720  Biso   1.000  O
  O138     1.0000 0.46010  0.09880  0.40570  Biso   1.000  O
  O139     1.0000 0.37790  0.99500  0.43570  Biso   1.000  O
  O140     1.0000 0.47240  0.14180  0.49720  Biso   1.000  O
  Zn43     1.0000 0.03768  0.98415  0.92181  Biso   1.000  Zn
  C239     1.0000 0.06830  0.80320  0.92060  Biso   1.000  C
  C240     1.0000 0.08740  0.75800  0.95730  Biso   1.000  C
  H137     1.0000 0.08310  0.76220  0.99950  Biso   1.000  H
  C241     1.0000 0.11240  0.70710  0.93470  Biso   1.000  C
  H138     1.0000 0.12490  0.67620  0.96120  Biso   1.000  H
  C242     1.0000 0.11970  0.70000  0.87490  Biso   1.000  C
  C243     1.0000 0.09970  0.74230  0.83740  Biso   1.000  C
  H139     1.0000 0.10400  0.73700  0.79540  Biso   1.000  H
  C244     1.0000 0.07270  0.79430  0.85950  Biso   1.000  C
  H140     1.0000 0.05730  0.82340  0.83250  Biso   1.000  H
  C245     1.0000 0.04220  0.86060  0.94200  Biso   1.000  C
  O141     1.0000 0.00300  0.88980  0.91720  Biso   1.000  O
  O142     1.0000 0.03990  0.90120  0.90570  Biso   1.000  O
  O143     1.0000 0.12210  0.00500  0.93570  Biso   1.000  O
  O144     1.0000 0.02760  0.85820  0.99720  Biso   1.000  O
  Zn44     1.0000 0.96232  0.48415  0.57819  Biso   1.000  Zn
  C246     1.0000 0.93170  0.30320  0.57940  Biso   1.000  C
  C247     1.0000 0.91260  0.25800  0.54270  Biso   1.000  C
  H141     1.0000 0.91690  0.26220  0.50050  Biso   1.000  H
  C248     1.0000 0.88760  0.20710  0.56530  Biso   1.000  C
  H142     1.0000 0.87510  0.17620  0.53880  Biso   1.000  H
  C249     1.0000 0.88030  0.20000  0.62510  Biso   1.000  C
  C250     1.0000 0.90030  0.24230  0.66260  Biso   1.000  C
  H143     1.0000 0.89600  0.23700  0.70460  Biso   1.000  H
  C251     1.0000 0.92730  0.29430  0.64050  Biso   1.000  C
  H144     1.0000 0.94270  0.32340  0.66750  Biso   1.000  H
  C252     1.0000 0.95780  0.36060  0.55800  Biso   1.000  C
  O145     1.0000 0.99700  0.38980  0.58280  Biso   1.000  O
  O146     1.0000 0.96010  0.40120  0.59430  Biso   1.000  O
  O147     1.0000 0.87790  0.50500  0.56430  Biso   1.000  O
  O148     1.0000 0.97240  0.35820  0.50280  Biso   1.000  O
  Zn45     1.0000 0.92181  0.46232  0.48415  Biso   1.000  Zn
  C253     1.0000 0.92060  0.43170  0.30320  Biso   1.000  C
  C254     1.0000 0.95730  0.41260  0.25800  Biso   1.000  C
  H145     1.0000 0.99950  0.41690  0.26220  Biso   1.000  H
  C255     1.0000 0.93470  0.38760  0.20710  Biso   1.000  C
  H146     1.0000 0.96120  0.37510  0.17620  Biso   1.000  H
  C256     1.0000 0.87490  0.38030  0.20000  Biso   1.000  C
  C257     1.0000 0.83740  0.40030  0.24230  Biso   1.000  C
  H147     1.0000 0.79540  0.39600  0.23700  Biso   1.000  H
  C258     1.0000 0.85950  0.42730  0.29430  Biso   1.000  C
  H148     1.0000 0.83250  0.44270  0.32340  Biso   1.000  H
  C259     1.0000 0.94200  0.45780  0.36060  Biso   1.000  C
  O149     1.0000 0.91720  0.49700  0.38980  Biso   1.000  O
  O150     1.0000 0.90570  0.46010  0.40120  Biso   1.000  O
  O151     1.0000 0.93570  0.37790  0.50500  Biso   1.000  O
  O152     1.0000 0.99720  0.47240  0.35820  Biso   1.000  O
  Zn46     1.0000 0.57819  0.53768  0.98415  Biso   1.000  Zn
  C260     1.0000 0.57940  0.56830  0.80320  Biso   1.000  C
  C261     1.0000 0.54270  0.58740  0.75800  Biso   1.000  C
  H149     1.0000 0.50050  0.58310  0.76220  Biso   1.000  H
  C262     1.0000 0.56530  0.61240  0.70710  Biso   1.000  C
  H150     1.0000 0.53880  0.62490  0.67620  Biso   1.000  H
  C263     1.0000 0.62510  0.61970  0.70000  Biso   1.000  C
  C264     1.0000 0.66260  0.59970  0.74230  Biso   1.000  C
  H151     1.0000 0.70460  0.60400  0.73700  Biso   1.000  H
  C265     1.0000 0.64050  0.57270  0.79430  Biso   1.000  C
  H152     1.0000 0.66750  0.55730  0.82340  Biso   1.000  H
  C266     1.0000 0.55800  0.54220  0.86060  Biso   1.000  C
  O153     1.0000 0.58280  0.50300  0.88980  Biso   1.000  O
  O154     1.0000 0.59430  0.53990  0.90120  Biso   1.000  O
  O155     1.0000 0.56430  0.62210  0.00500  Biso   1.000  O
  O156     1.0000 0.50280  0.52760  0.85820  Biso   1.000  O
  Zn47     1.0000 0.07819  0.96232  0.01585  Biso   1.000  Zn
  C267     1.0000 0.07940  0.93170  0.19680  Biso   1.000  C
  C268     1.0000 0.04270  0.91260  0.24200  Biso   1.000  C
  H153     1.0000 0.00050  0.91690  0.23780  Biso   1.000  H
  C269     1.0000 0.06530  0.88760  0.29290  Biso   1.000  C
  H154     1.0000 0.03880  0.87510  0.32380  Biso   1.000  H
  C270     1.0000 0.12510  0.88030  0.30000  Biso   1.000  C
  C271     1.0000 0.16260  0.90030  0.25770  Biso   1.000  C
  H155     1.0000 0.20460  0.89600  0.26300  Biso   1.000  H
  C272     1.0000 0.14050  0.92730  0.20570  Biso   1.000  C
  H156     1.0000 0.16750  0.94270  0.17660  Biso   1.000  H
  C273     1.0000 0.05800  0.95780  0.13940  Biso   1.000  C
  O157     1.0000 0.08280  0.99700  0.11020  Biso   1.000  O
  O158     1.0000 0.09430  0.96010  0.09880  Biso   1.000  O
  O159     1.0000 0.06430  0.87790  0.99500  Biso   1.000  O
  O160     1.0000 0.00280  0.97240  0.14180  Biso   1.000  O
  Zn48     1.0000 0.42181  0.03768  0.51585  Biso   1.000  Zn
  C274     1.0000 0.42060  0.06830  0.69680  Biso   1.000  C
  C275     1.0000 0.45730  0.08740  0.74200  Biso   1.000  C
  H157     1.0000 0.49950  0.08310  0.73780  Biso   1.000  H
  C276     1.0000 0.43470  0.11240  0.79290  Biso   1.000  C
  H158     1.0000 0.46120  0.12490  0.82380  Biso   1.000  H
  C277     1.0000 0.37490  0.11970  0.80000  Biso   1.000  C
  C278     1.0000 0.33740  0.09970  0.75770  Biso   1.000  C
  H159     1.0000 0.29540  0.10400  0.76300  Biso   1.000  H
  C279     1.0000 0.35950  0.07270  0.70570  Biso   1.000  C
  H160     1.0000 0.33250  0.05730  0.67660  Biso   1.000  H
  C280     1.0000 0.44200  0.04220  0.63940  Biso   1.000  C
  O161     1.0000 0.41720  0.00300  0.61020  Biso   1.000  O
  O162     1.0000 0.40570  0.03990  0.59880  Biso   1.000  O
  O163     1.0000 0.43570  0.12210  0.49500  Biso   1.000  O
  O164     1.0000 0.49720  0.02760  0.64180  Biso   1.000  O
  Zn49     1.0000 0.48415  0.92181  0.46232  Biso   1.000  Zn
  C281     1.0000 0.30320  0.92060  0.43170  Biso   1.000  C
  C282     1.0000 0.25800  0.95730  0.41260  Biso   1.000  C
  H161     1.0000 0.26220  0.99950  0.41690  Biso   1.000  H
  C283     1.0000 0.20710  0.93470  0.38760  Biso   1.000  C
  H162     1.0000 0.17620  0.96120  0.37510  Biso   1.000  H
  C284     1.0000 0.20000  0.87490  0.38030  Biso   1.000  C
  C285     1.0000 0.24230  0.83740  0.40030  Biso   1.000  C
  H163     1.0000 0.23700  0.79540  0.39600  Biso   1.000  H
  C286     1.0000 0.29430  0.85950  0.42730  Biso   1.000  C
  H164     1.0000 0.32340  0.83250  0.44270  Biso   1.000  H
  C287     1.0000 0.36060  0.94200  0.45780  Biso   1.000  C
  O165     1.0000 0.38980  0.91720  0.49700  Biso   1.000  O
  O166     1.0000 0.40120  0.90570  0.46010  Biso   1.000  O
  O167     1.0000 0.50500  0.93570  0.37790  Biso   1.000  O
  O168     1.0000 0.35820  0.99720  0.47240  Biso   1.000  O
  Zn50     1.0000 0.98415  0.57819  0.53768  Biso   1.000  Zn
  C288     1.0000 0.80320  0.57940  0.56830  Biso   1.000  C
  C289     1.0000 0.75800  0.54270  0.58740  Biso   1.000  C
  H165     1.0000 0.76220  0.50050  0.58310  Biso   1.000  H
  C290     1.0000 0.70710  0.56530  0.61240  Biso   1.000  C
  H166     1.0000 0.67620  0.53880  0.62490  Biso   1.000  H
  C291     1.0000 0.70000  0.62510  0.61970  Biso   1.000  C
  C292     1.0000 0.74230  0.66260  0.59970  Biso   1.000  C
  H167     1.0000 0.73700  0.70460  0.60400  Biso   1.000  H
  C293     1.0000 0.79430  0.64050  0.57270  Biso   1.000  C
  H168     1.0000 0.82340  0.66750  0.55730  Biso   1.000  H
  C294     1.0000 0.86060  0.55800  0.54220  Biso   1.000  C
  O169     1.0000 0.88980  0.58280  0.50300  Biso   1.000  O
  O170     1.0000 0.90120  0.59430  0.53990  Biso   1.000  O
  O171     1.0000 0.00500  0.56430  0.62210  Biso   1.000  O
  O172     1.0000 0.85820  0.50280  0.52760  Biso   1.000  O
  Zn51     1.0000 0.01585  0.07819  0.96232  Biso   1.000  Zn
  C295     1.0000 0.19680  0.07940  0.93170  Biso   1.000  C
  C296     1.0000 0.24200  0.04270  0.91260  Biso   1.000  C
  H169     1.0000 0.23780  0.00050  0.91690  Biso   1.000  H
  C297     1.0000 0.29290  0.06530  0.88760  Biso   1.000  C
  H170     1.0000 0.32380  0.03880  0.87510  Biso   1.000  H
  C298     1.0000 0.30000  0.12510  0.88030  Biso   1.000  C
  C299     1.0000 0.25770  0.16260  0.90030  Biso   1.000  C
  H171     1.0000 0.26300  0.20460  0.89600  Biso   1.000  H
  C300     1.0000 0.20570  0.14050  0.92730  Biso   1.000  C
  H172     1.0000 0.17660  0.16750  0.94270  Biso   1.000  H
  C301     1.0000 0.13940  0.05800  0.95780  Biso   1.000  C
  O173     1.0000 0.11020  0.08280  0.99700  Biso   1.000  O
  O174     1.0000 0.09880  0.09430  0.96010  Biso   1.000  O
  O175     1.0000 0.99500  0.06430  0.87790  Biso   1.000  O
  O176     1.0000 0.14180  0.00280  0.97240  Biso   1.000  O
  Zn52     1.0000 0.51585  0.42181  0.03768  Biso   1.000  Zn
  C302     1.0000 0.69680  0.42060  0.06830  Biso   1.000  C
  C303     1.0000 0.74200  0.45730  0.08740  Biso   1.000  C
  H173     1.0000 0.73780  0.49950  0.08310  Biso   1.000  H
  C304     1.0000 0.79290  0.43470  0.11240  Biso   1.000  C
  H174     1.0000 0.82380  0.46120  0.12490  Biso   1.000  H
  C305     1.0000 0.80000  0.37490  0.11970  Biso   1.000  C
  C306     1.0000 0.75770  0.33740  0.09970  Biso   1.000  C
  H175     1.0000 0.76300  0.29540  0.10400  Biso   1.000  H
  C307     1.0000 0.70570  0.35950  0.07270  Biso   1.000  C
  H176     1.0000 0.67660  0.33250  0.05730  Biso   1.000  H
  C308     1.0000 0.63940  0.44200  0.04220  Biso   1.000  C
  O177     1.0000 0.61020  0.41720  0.00300  Biso   1.000  O
  O178     1.0000 0.59880  0.40570  0.03990  Biso   1.000  O
  O179     1.0000 0.49500  0.43570  0.12210  Biso   1.000  O
  O180     1.0000 0.64180  0.49720  0.02760  Biso   1.000  O
  Zn53     1.0000 0.46232  0.48415  0.92181  Biso   1.000  Zn
  C309     1.0000 0.43170  0.30320  0.92060  Biso   1.000  C
  C310     1.0000 0.41260  0.25800  0.95730  Biso   1.000  C
  H177     1.0000 0.41690  0.26220  0.99950  Biso   1.000  H
  C311     1.0000 0.38760  0.20710  0.93470  Biso   1.000  C
  H178     1.0000 0.37510  0.17620  0.96120  Biso   1.000  H
  C312     1.0000 0.38030  0.20000  0.87490  Biso   1.000  C
  C313     1.0000 0.40030  0.24230  0.83740  Biso   1.000  C
  H179     1.0000 0.39600  0.23700  0.79540  Biso   1.000  H
  C314     1.0000 0.42730  0.29430  0.85950  Biso   1.000  C
  H180     1.0000 0.44270  0.32340  0.83250  Biso   1.000  H
  C315     1.0000 0.45780  0.36060  0.94200  Biso   1.000  C
  O181     1.0000 0.49700  0.38980  0.91720  Biso   1.000  O
  O182     1.0000 0.46010  0.40120  0.90570  Biso   1.000  O
  O183     1.0000 0.37790  0.50500  0.93570  Biso   1.000  O
  O184     1.0000 0.47240  0.35820  0.99720  Biso   1.000  O
  Zn54     1.0000 0.53768  0.98415  0.57819  Biso   1.000  Zn
  C316     1.0000 0.56830  0.80320  0.57940  Biso   1.000  C
  C317     1.0000 0.58740  0.75800  0.54270  Biso   1.000  C
  H181     1.0000 0.58310  0.76220  0.50050  Biso   1.000  H
  C318     1.0000 0.61240  0.70710  0.56530  Biso   1.000  C
  H182     1.0000 0.62490  0.67620  0.53880  Biso   1.000  H
  C319     1.0000 0.61970  0.70000  0.62510  Biso   1.000  C
  C320     1.0000 0.59970  0.74230  0.66260  Biso   1.000  C
  H183     1.0000 0.60400  0.73700  0.70460  Biso   1.000  H
  C321     1.0000 0.57270  0.79430  0.64050  Biso   1.000  C
  H184     1.0000 0.55730  0.82340  0.66750  Biso   1.000  H
  C322     1.0000 0.54220  0.86060  0.55800  Biso   1.000  C
  O185     1.0000 0.50300  0.88980  0.58280  Biso   1.000  O
  O186     1.0000 0.53990  0.90120  0.59430  Biso   1.000  O
  O187     1.0000 0.62210  0.00500  0.56430  Biso   1.000  O
  O188     1.0000 0.52760  0.85820  0.50280  Biso   1.000  O
  Zn55     1.0000 0.96232  0.01585  0.07819  Biso   1.000  Zn
  C323     1.0000 0.93170  0.19680  0.07940  Biso   1.000  C
  C324     1.0000 0.91260  0.24200  0.04270  Biso   1.000  C
  H185     1.0000 0.91690  0.23780  0.00050  Biso   1.000  H
  C325     1.0000 0.88760  0.29290  0.06530  Biso   1.000  C
  H186     1.0000 0.87510  0.32380  0.03880  Biso   1.000  H
  C326     1.0000 0.88030  0.30000  0.12510  Biso   1.000  C
  C327     1.0000 0.90030  0.25770  0.16260  Biso   1.000  C
  H187     1.0000 0.89600  0.26300  0.20460  Biso   1.000  H
  C328     1.0000 0.92730  0.20570  0.14050  Biso   1.000  C
  H188     1.0000 0.94270  0.17660  0.16750  Biso   1.000  H
  C329     1.0000 0.95780  0.13940  0.05800  Biso   1.000  C
  O189     1.0000 0.99700  0.11020  0.08280  Biso   1.000  O
  O190     1.0000 0.96010  0.09880  0.09430  Biso   1.000  O
  O191     1.0000 0.87790  0.99500  0.06430  Biso   1.000  O
  O192     1.0000 0.97240  0.14180  0.00280  Biso   1.000  O
  Zn56     1.0000 0.03768  0.51585  0.42181  Biso   1.000  Zn
  C330     1.0000 0.06830  0.69680  0.42060  Biso   1.000  C
  C331     1.0000 0.08740  0.74200  0.45730  Biso   1.000  C
  H189     1.0000 0.08310  0.73780  0.49950  Biso   1.000  H
  C332     1.0000 0.11240  0.79290  0.43470  Biso   1.000  C
  H190     1.0000 0.12490  0.82380  0.46120  Biso   1.000  H
  C333     1.0000 0.11970  0.80000  0.37490  Biso   1.000  C
  C334     1.0000 0.09970  0.75770  0.33740  Biso   1.000  C
  H191     1.0000 0.10400  0.76300  0.29540  Biso   1.000  H
  C335     1.0000 0.07270  0.70570  0.35950  Biso   1.000  C
  H192     1.0000 0.05730  0.67660  0.33250  Biso   1.000  H
  C336     1.0000 0.04220  0.63940  0.44200  Biso   1.000  C
  O193     1.0000 0.00300  0.61020  0.41720  Biso   1.000  O
  O194     1.0000 0.03990  0.59880  0.40570  Biso   1.000  O
  O195     1.0000 0.12210  0.49500  0.43570  Biso   1.000  O
  O196     1.0000 0.02760  0.64180  0.49720  Biso   1.000  O
  Zn57     1.0000 0.04650  0.45350  0.54650  Biso   1.000  Zn
  Zn58     1.0000 0.45350  0.54650  0.04650  Biso   1.000  Zn
  Zn59     1.0000 0.95350  0.95350  0.95350  Biso   1.000  Zn
  Zn60     1.0000 0.54650  0.04650  0.45350  Biso   1.000  Zn
  Zn61     1.0000 0.95350  0.54650  0.45350  Biso   1.000  Zn
  Zn62     1.0000 0.54650  0.45350  0.95350  Biso   1.000  Zn
  Zn63     1.0000 0.04650  0.04650  0.04650  Biso   1.000  Zn
  Zn64     1.0000 0.45350  0.95350  0.54650  Biso   1.000  Zn
  N9       1.0000 0.14800  0.64800  0.85200  Biso   1.000  N
  N10      1.0000 0.35200  0.35200  0.35200  Biso   1.000  N
  N11      1.0000 0.85200  0.14800  0.64800  Biso   1.000  N
  N12      1.0000 0.64800  0.85200  0.14800  Biso   1.000  N
  N13      1.0000 0.85200  0.35200  0.14800  Biso   1.000  N
  N14      1.0000 0.64800  0.64800  0.64800  Biso   1.000  N
  N15      1.0000 0.14800  0.85200  0.35200  Biso   1.000  N
  N16      1.0000 0.35200  0.14800  0.85200  Biso   1.000  N
  O197     1.0000 0.00000  0.50000  0.50000  Biso   1.000  O
  O198     1.0000 0.50000  0.50000  0.00000  Biso   1.000  O
  O199     1.0000 0.00000  0.00000  0.00000  Biso   1.000  O
  O200     1.0000 0.50000  0.00000  0.50000  Biso   1.000  O
