data_image0
_cell_length_a       35.1763
_cell_length_b       14.9671
_cell_length_c       30.2349
_cell_angle_alpha    90
_cell_angle_beta     100.759
_cell_angle_gamma    90

_symmetry_space_group_name_H-M    "P 1"
_symmetry_int_tables_number       1

loop_
  _symmetry_equiv_pos_as_xyz
  'x, y, z'

loop_
  _atom_site_label
  _atom_site_occupancy
  _atom_site_fract_x
  _atom_site_fract_y
  _atom_site_fract_z
  _atom_site_thermal_displace_type
  _atom_site_B_iso_or_equiv
  _atom_site_type_symbol
  I1       1.0000 0.61563  0.23668  0.55840  Biso   1.000  I
  I2       1.0000 0.52080  0.15676  0.63481  Biso   1.000  I
  I3       1.0000 0.34910  0.42139  0.51575  Biso   1.000  I
  I4       1.0000 0.38946  0.27447  0.39862  Biso   1.000  I
  Zn1      1.0000 0.57858  0.12670  0.59799  Biso   1.000  Zn
  Zn2      1.0000 0.37082  0.41258  0.43919  Biso   1.000  Zn
  N1       1.0000 0.68633  0.48680  0.78146  Biso   1.000  N
  N2       1.0000 0.56553  0.01760  0.55453  Biso   1.000  N
  N3       1.0000 0.73172  0.80420  0.81111  Biso   1.000  N
  N4       1.0000 0.67848  0.81470  0.75012  Biso   1.000  N
  N5       1.0000 0.53650  0.65080  0.41401  Biso   1.000  N
  N6       1.0000 0.71792  0.94140  0.77183  Biso   1.000  N
  N7       1.0000 0.57440  0.77520  0.44434  Biso   1.000  N
  N8       1.0000 0.61714  0.05420  0.64483  Biso   1.000  N
  N9       1.0000 0.52063  0.72990  0.47620  Biso   1.000  N
  C1       1.0000 0.69617  0.67120  0.78313  Biso   1.000  C
  C2       1.0000 0.55574  0.86480  0.50255  Biso   1.000  C
  C3       1.0000 0.65343  0.71850  0.36109  Biso   1.000  C
  H1       1.0000 0.67790  0.74450  0.36660  Biso   1.000  H
  C4       1.0000 0.66375  0.95280  0.71011  Biso   1.000  C
  C5       1.0000 0.70244  0.76910  0.78190  Biso   1.000  C
  C6       1.0000 0.68814  0.89970  0.74616  Biso   1.000  C
  C7       1.0000 0.56655  0.70630  0.41601  Biso   1.000  C
  C8       1.0000 0.55017  0.78440  0.47305  Biso   1.000  C
  C9       1.0000 0.62877  0.73390  0.39066  Biso   1.000  C
  H2       1.0000 0.63620  0.77160  0.41520  Biso   1.000  H
  C10      1.0000 0.65327  0.08010  0.66160  Biso   1.000  C
  H3       1.0000 0.66260  0.13240  0.65080  Biso   1.000  H
  C11      1.0000 0.51478  0.66550  0.44525  Biso   1.000  C
  C12      1.0000 0.59284  0.69290  0.38367  Biso   1.000  C
  C13      1.0000 0.77791  0.02470  0.82939  Biso   1.000  C
  H4       1.0000 0.76400  0.05610  0.80510  Biso   1.000  H
  C14      1.0000 0.58882  0.91610  0.50537  Biso   1.000  C
  H5       1.0000 0.60810  0.89960  0.48980  Biso   1.000  H
  C15      1.0000 0.43570  0.53350  0.48156  Biso   1.000  C
  H6       1.0000 0.42740  0.51920  0.50810  Biso   1.000  H
  C16      1.0000 0.66785  0.63100  0.75112  Biso   1.000  C
  H7       1.0000 0.65160  0.66540  0.73000  Biso   1.000  H
  C17      1.0000 0.52784  0.89030  0.52702  Biso   1.000  C
  H8       1.0000 0.50560  0.85640  0.52640  Biso   1.000  H
  N10      1.0000 0.41623  0.50050  0.44281  Biso   1.000  N
  N11      1.0000 0.82795  0.02380  0.89435  Biso   1.000  N
  C18      1.0000 0.48053  0.60800  0.44436  Biso   1.000  C
  C19      1.0000 0.46029  0.57500  0.40396  Biso   1.000  C
  H9       1.0000 0.46820  0.58810  0.37700  Biso   1.000  H
  C20      1.0000 0.53412  0.96760  0.55243  Biso   1.000  C
  H10      1.0000 0.51550  0.98520  0.56880  Biso   1.000  H
  C21      1.0000 0.58232  0.63870  0.34584  Biso   1.000  C
  H11      1.0000 0.55840  0.61020  0.34010  Biso   1.000  H
  C22      1.0000 0.80769  0.06560  0.85871  Biso   1.000  C
  H12      1.0000 0.81380  0.12460  0.85330  Biso   1.000  H
  C23      1.0000 0.62675  0.92460  0.69217  Biso   1.000  C
  H13      1.0000 0.61720  0.87090  0.70120  Biso   1.000  H
  C24      1.0000 0.42820  0.52230  0.40453  Biso   1.000  C
  H14      1.0000 0.41430  0.50100  0.37740  Biso   1.000  H
  C25      1.0000 0.60813  0.62830  0.31732  Biso   1.000  C
  H15      1.0000 0.60110  0.59300  0.29180  Biso   1.000  H
  C26      1.0000 0.71880  0.61660  0.81519  Biso   1.000  C
  H16      1.0000 0.73750  0.64140  0.83770  Biso   1.000  H
  C27      1.0000 0.73793  0.89090  0.80476  Biso   1.000  C
  C28      1.0000 0.71310  0.52640  0.81300  Biso   1.000  C
  H17      1.0000 0.72850  0.49060  0.83430  Biso   1.000  H
  C29      1.0000 0.78995  0.89320  0.87387  Biso   1.000  C
  H18      1.0000 0.78450  0.83410  0.87980  Biso   1.000  H
  C30      1.0000 0.81897  0.93910  0.90213  Biso   1.000  C
  H19      1.0000 0.83270  0.91000  0.92730  Biso   1.000  H
  C31      1.0000 0.60421  0.97850  0.66037  Biso   1.000  C
  H20      1.0000 0.57880  0.96120  0.64930  Biso   1.000  H
  C32      1.0000 0.59276  0.99180  0.53148  Biso   1.000  C
  H21      1.0000 0.61500  0.02620  0.53330  Biso   1.000  H
  C33      1.0000 0.67736  0.03170  0.69464  Biso   1.000  C
  H22      1.0000 0.70220  0.05170  0.70620  Biso   1.000  H
  C34      1.0000 0.46760  0.58760  0.48374  Biso   1.000  C
  H23      1.0000 0.48030  0.61020  0.51120  Biso   1.000  H
  C35      1.0000 0.66431  0.53970  0.75116  Biso   1.000  C
  H24      1.0000 0.64580  0.51320  0.72910  Biso   1.000  H
  Zn3      1.0000 0.67877  0.34943  0.77818  Biso   1.000  Zn
  I5       1.0000 0.74355  0.27619  0.81089  Biso   1.000  I
  I6       1.0000 0.63870  0.31640  0.70079  Biso   1.000  I
  N12      1.0000 0.64309  0.66710  0.32470  Biso   1.000  N
  C36      1.0000 0.76910  0.93660  0.83661  Biso   1.000  C
  I7       1.0000 0.35060  0.41190  0.51150  Biso   1.000  I
  I8       1.0000 0.73280  0.26350  0.79550  Biso   1.000  I
  I9       1.0000 0.11563  0.73668  0.55840  Biso   1.000  I
  I10      1.0000 0.02080  0.65676  0.63481  Biso   1.000  I
  I11      1.0000 0.84910  0.92139  0.51575  Biso   1.000  I
  I12      1.0000 0.88946  0.77447  0.39862  Biso   1.000  I
  Zn4      1.0000 0.07858  0.62670  0.59799  Biso   1.000  Zn
  Zn5      1.0000 0.87082  0.91258  0.43919  Biso   1.000  Zn
  N13      1.0000 0.18633  0.98680  0.78146  Biso   1.000  N
  N14      1.0000 0.06553  0.51760  0.55453  Biso   1.000  N
  N15      1.0000 0.23172  0.30420  0.81111  Biso   1.000  N
  N16      1.0000 0.17848  0.31470  0.75012  Biso   1.000  N
  N17      1.0000 0.03650  0.15080  0.41401  Biso   1.000  N
  N18      1.0000 0.21792  0.44140  0.77183  Biso   1.000  N
  N19      1.0000 0.07440  0.27520  0.44434  Biso   1.000  N
  N20      1.0000 0.11714  0.55420  0.64483  Biso   1.000  N
  N21      1.0000 0.02063  0.22990  0.47620  Biso   1.000  N
  C37      1.0000 0.19617  0.17120  0.78313  Biso   1.000  C
  C38      1.0000 0.05574  0.36480  0.50255  Biso   1.000  C
  C39      1.0000 0.15343  0.21850  0.36109  Biso   1.000  C
  H25      1.0000 0.17790  0.24450  0.36660  Biso   1.000  H
  C40      1.0000 0.16375  0.45280  0.71011  Biso   1.000  C
  C41      1.0000 0.20244  0.26910  0.78190  Biso   1.000  C
  C42      1.0000 0.18814  0.39970  0.74616  Biso   1.000  C
  C43      1.0000 0.06655  0.20630  0.41601  Biso   1.000  C
  C44      1.0000 0.05017  0.28440  0.47305  Biso   1.000  C
  C45      1.0000 0.12877  0.23390  0.39066  Biso   1.000  C
  H26      1.0000 0.13620  0.27160  0.41520  Biso   1.000  H
  C46      1.0000 0.15327  0.58010  0.66160  Biso   1.000  C
  H27      1.0000 0.16260  0.63240  0.65080  Biso   1.000  H
  C47      1.0000 0.01478  0.16550  0.44525  Biso   1.000  C
  C48      1.0000 0.09284  0.19290  0.38367  Biso   1.000  C
  C49      1.0000 0.27791  0.52470  0.82939  Biso   1.000  C
  H28      1.0000 0.26400  0.55610  0.80510  Biso   1.000  H
  C50      1.0000 0.08882  0.41610  0.50537  Biso   1.000  C
  H29      1.0000 0.10810  0.39960  0.48980  Biso   1.000  H
  C51      1.0000 0.93570  0.03350  0.48156  Biso   1.000  C
  H30      1.0000 0.92740  0.01920  0.50810  Biso   1.000  H
  C52      1.0000 0.16785  0.13100  0.75112  Biso   1.000  C
  H31      1.0000 0.15160  0.16540  0.73000  Biso   1.000  H
  C53      1.0000 0.02784  0.39030  0.52702  Biso   1.000  C
  H32      1.0000 0.00560  0.35640  0.52640  Biso   1.000  H
  N22      1.0000 0.91623  0.00050  0.44281  Biso   1.000  N
  N23      1.0000 0.32795  0.52380  0.89435  Biso   1.000  N
  C54      1.0000 0.98053  0.10800  0.44436  Biso   1.000  C
  C55      1.0000 0.96029  0.07500  0.40396  Biso   1.000  C
  H33      1.0000 0.96820  0.08810  0.37700  Biso   1.000  H
  C56      1.0000 0.03412  0.46760  0.55243  Biso   1.000  C
  H34      1.0000 0.01550  0.48520  0.56880  Biso   1.000  H
  C57      1.0000 0.08232  0.13870  0.34584  Biso   1.000  C
  H35      1.0000 0.05840  0.11020  0.34010  Biso   1.000  H
  C58      1.0000 0.30769  0.56560  0.85871  Biso   1.000  C
  H36      1.0000 0.31380  0.62460  0.85330  Biso   1.000  H
  C59      1.0000 0.12675  0.42460  0.69217  Biso   1.000  C
  H37      1.0000 0.11720  0.37090  0.70120  Biso   1.000  H
  C60      1.0000 0.92820  0.02230  0.40453  Biso   1.000  C
  H38      1.0000 0.91430  0.00100  0.37740  Biso   1.000  H
  C61      1.0000 0.10813  0.12830  0.31732  Biso   1.000  C
  H39      1.0000 0.10110  0.09300  0.29180  Biso   1.000  H
  C62      1.0000 0.21880  0.11660  0.81519  Biso   1.000  C
  H40      1.0000 0.23750  0.14140  0.83770  Biso   1.000  H
  C63      1.0000 0.23793  0.39090  0.80476  Biso   1.000  C
  C64      1.0000 0.21310  0.02640  0.81300  Biso   1.000  C
  H41      1.0000 0.22850  0.99060  0.83430  Biso   1.000  H
  C65      1.0000 0.28995  0.39320  0.87387  Biso   1.000  C
  H42      1.0000 0.28450  0.33410  0.87980  Biso   1.000  H
  C66      1.0000 0.31897  0.43910  0.90213  Biso   1.000  C
  H43      1.0000 0.33270  0.41000  0.92730  Biso   1.000  H
  C67      1.0000 0.10421  0.47850  0.66037  Biso   1.000  C
  H44      1.0000 0.07880  0.46120  0.64930  Biso   1.000  H
  C68      1.0000 0.09276  0.49180  0.53148  Biso   1.000  C
  H45      1.0000 0.11500  0.52620  0.53330  Biso   1.000  H
  C69      1.0000 0.17736  0.53170  0.69464  Biso   1.000  C
  H46      1.0000 0.20220  0.55170  0.70620  Biso   1.000  H
  C70      1.0000 0.96760  0.08760  0.48374  Biso   1.000  C
  H47      1.0000 0.98030  0.11020  0.51120  Biso   1.000  H
  C71      1.0000 0.16431  0.03970  0.75116  Biso   1.000  C
  H48      1.0000 0.14580  0.01320  0.72910  Biso   1.000  H
  Zn6      1.0000 0.17877  0.84943  0.77818  Biso   1.000  Zn
  I13      1.0000 0.24355  0.77619  0.81089  Biso   1.000  I
  I14      1.0000 0.13870  0.81640  0.70079  Biso   1.000  I
  N24      1.0000 0.14309  0.16710  0.32470  Biso   1.000  N
  C72      1.0000 0.26910  0.43660  0.83661  Biso   1.000  C
  I15      1.0000 0.85060  0.91190  0.51150  Biso   1.000  I
  I16      1.0000 0.23280  0.76350  0.79550  Biso   1.000  I
  I17      1.0000 0.61563  0.76332  0.05840  Biso   1.000  I
  I18      1.0000 0.52080  0.84324  0.13481  Biso   1.000  I
  I19      1.0000 0.34910  0.57861  0.01575  Biso   1.000  I
  I20      1.0000 0.38946  0.72553  0.89862  Biso   1.000  I
  Zn7      1.0000 0.57858  0.87330  0.09799  Biso   1.000  Zn
  Zn8      1.0000 0.37082  0.58742  0.93919  Biso   1.000  Zn
  N25      1.0000 0.68633  0.51320  0.28146  Biso   1.000  N
  N26      1.0000 0.56553  0.98240  0.05453  Biso   1.000  N
  N27      1.0000 0.73172  0.19580  0.31111  Biso   1.000  N
  N28      1.0000 0.67848  0.18530  0.25012  Biso   1.000  N
  N29      1.0000 0.53650  0.34920  0.91401  Biso   1.000  N
  N30      1.0000 0.71792  0.05860  0.27183  Biso   1.000  N
  N31      1.0000 0.57440  0.22480  0.94434  Biso   1.000  N
  N32      1.0000 0.61714  0.94580  0.14483  Biso   1.000  N
  N33      1.0000 0.52063  0.27010  0.97620  Biso   1.000  N
  C73      1.0000 0.69617  0.32880  0.28313  Biso   1.000  C
  C74      1.0000 0.55574  0.13520  0.00255  Biso   1.000  C
  C75      1.0000 0.65343  0.28150  0.86109  Biso   1.000  C
  H49      1.0000 0.67790  0.25550  0.86660  Biso   1.000  H
  C76      1.0000 0.66375  0.04720  0.21011  Biso   1.000  C
  C77      1.0000 0.70244  0.23090  0.28190  Biso   1.000  C
  C78      1.0000 0.68814  0.10030  0.24616  Biso   1.000  C
  C79      1.0000 0.56655  0.29370  0.91601  Biso   1.000  C
  C80      1.0000 0.55017  0.21560  0.97305  Biso   1.000  C
  C81      1.0000 0.62877  0.26610  0.89066  Biso   1.000  C
  H50      1.0000 0.63620  0.22840  0.91520  Biso   1.000  H
  C82      1.0000 0.65327  0.91990  0.16160  Biso   1.000  C
  H51      1.0000 0.66260  0.86760  0.15080  Biso   1.000  H
  C83      1.0000 0.51478  0.33450  0.94525  Biso   1.000  C
  C84      1.0000 0.59284  0.30710  0.88367  Biso   1.000  C
  C85      1.0000 0.77791  0.97530  0.32939  Biso   1.000  C
  H52      1.0000 0.76400  0.94390  0.30510  Biso   1.000  H
  C86      1.0000 0.58882  0.08390  0.00537  Biso   1.000  C
  H53      1.0000 0.60810  0.10040  0.98980  Biso   1.000  H
  C87      1.0000 0.43570  0.46650  0.98156  Biso   1.000  C
  H54      1.0000 0.42740  0.48080  0.00810  Biso   1.000  H
  C88      1.0000 0.66785  0.36900  0.25112  Biso   1.000  C
  H55      1.0000 0.65160  0.33460  0.23000  Biso   1.000  H
  C89      1.0000 0.52784  0.10970  0.02702  Biso   1.000  C
  H56      1.0000 0.50560  0.14360  0.02640  Biso   1.000  H
  N34      1.0000 0.41623  0.49950  0.94281  Biso   1.000  N
  N35      1.0000 0.82795  0.97620  0.39435  Biso   1.000  N
  C90      1.0000 0.48053  0.39200  0.94436  Biso   1.000  C
  C91      1.0000 0.46029  0.42500  0.90396  Biso   1.000  C
  H57      1.0000 0.46820  0.41190  0.87700  Biso   1.000  H
  C92      1.0000 0.53412  0.03240  0.05243  Biso   1.000  C
  H58      1.0000 0.51550  0.01480  0.06880  Biso   1.000  H
  C93      1.0000 0.58232  0.36130  0.84584  Biso   1.000  C
  H59      1.0000 0.55840  0.38980  0.84010  Biso   1.000  H
  C94      1.0000 0.80769  0.93440  0.35871  Biso   1.000  C
  H60      1.0000 0.81380  0.87540  0.35330  Biso   1.000  H
  C95      1.0000 0.62675  0.07540  0.19217  Biso   1.000  C
  H61      1.0000 0.61720  0.12910  0.20120  Biso   1.000  H
  C96      1.0000 0.42820  0.47770  0.90453  Biso   1.000  C
  H62      1.0000 0.41430  0.49900  0.87740  Biso   1.000  H
  C97      1.0000 0.60813  0.37170  0.81732  Biso   1.000  C
  H63      1.0000 0.60110  0.40700  0.79180  Biso   1.000  H
  C98      1.0000 0.71880  0.38340  0.31519  Biso   1.000  C
  H64      1.0000 0.73750  0.35860  0.33770  Biso   1.000  H
  C99      1.0000 0.73793  0.10910  0.30476  Biso   1.000  C
  C100     1.0000 0.71310  0.47360  0.31300  Biso   1.000  C
  H65      1.0000 0.72850  0.50940  0.33430  Biso   1.000  H
  C101     1.0000 0.78995  0.10680  0.37387  Biso   1.000  C
  H66      1.0000 0.78450  0.16590  0.37980  Biso   1.000  H
  C102     1.0000 0.81897  0.06090  0.40213  Biso   1.000  C
  H67      1.0000 0.83270  0.09000  0.42730  Biso   1.000  H
  C103     1.0000 0.60421  0.02150  0.16037  Biso   1.000  C
  H68      1.0000 0.57880  0.03880  0.14930  Biso   1.000  H
  C104     1.0000 0.59276  0.00820  0.03148  Biso   1.000  C
  H69      1.0000 0.61500  0.97380  0.03330  Biso   1.000  H
  C105     1.0000 0.67736  0.96830  0.19464  Biso   1.000  C
  H70      1.0000 0.70220  0.94830  0.20620  Biso   1.000  H
  C106     1.0000 0.46760  0.41240  0.98374  Biso   1.000  C
  H71      1.0000 0.48030  0.38980  0.01120  Biso   1.000  H
  C107     1.0000 0.66431  0.46030  0.25116  Biso   1.000  C
  H72      1.0000 0.64580  0.48680  0.22910  Biso   1.000  H
  Zn9      1.0000 0.67877  0.65057  0.27818  Biso   1.000  Zn
  I21      1.0000 0.74355  0.72381  0.31089  Biso   1.000  I
  I22      1.0000 0.63870  0.68360  0.20079  Biso   1.000  I
  N36      1.0000 0.64309  0.33290  0.82470  Biso   1.000  N
  C108     1.0000 0.76910  0.06340  0.33661  Biso   1.000  C
  I23      1.0000 0.35060  0.58810  0.01150  Biso   1.000  I
  I24      1.0000 0.73280  0.73650  0.29550  Biso   1.000  I
  I25      1.0000 0.11563  0.26332  0.05840  Biso   1.000  I
  I26      1.0000 0.02080  0.34324  0.13481  Biso   1.000  I
  I27      1.0000 0.84910  0.07861  0.01575  Biso   1.000  I
  I28      1.0000 0.88946  0.22553  0.89862  Biso   1.000  I
  Zn10     1.0000 0.07858  0.37330  0.09799  Biso   1.000  Zn
  Zn11     1.0000 0.87082  0.08742  0.93919  Biso   1.000  Zn
  N37      1.0000 0.18633  0.01320  0.28146  Biso   1.000  N
  N38      1.0000 0.06553  0.48240  0.05453  Biso   1.000  N
  N39      1.0000 0.23172  0.69580  0.31111  Biso   1.000  N
  N40      1.0000 0.17848  0.68530  0.25012  Biso   1.000  N
  N41      1.0000 0.03650  0.84920  0.91401  Biso   1.000  N
  N42      1.0000 0.21792  0.55860  0.27183  Biso   1.000  N
  N43      1.0000 0.07440  0.72480  0.94434  Biso   1.000  N
  N44      1.0000 0.11714  0.44580  0.14483  Biso   1.000  N
  N45      1.0000 0.02063  0.77010  0.97620  Biso   1.000  N
  C109     1.0000 0.19617  0.82880  0.28313  Biso   1.000  C
  C110     1.0000 0.05574  0.63520  0.00255  Biso   1.000  C
  C111     1.0000 0.15343  0.78150  0.86109  Biso   1.000  C
  H73      1.0000 0.17790  0.75550  0.86660  Biso   1.000  H
  C112     1.0000 0.16375  0.54720  0.21011  Biso   1.000  C
  C113     1.0000 0.20244  0.73090  0.28190  Biso   1.000  C
  C114     1.0000 0.18814  0.60030  0.24616  Biso   1.000  C
  C115     1.0000 0.06655  0.79370  0.91601  Biso   1.000  C
  C116     1.0000 0.05017  0.71560  0.97305  Biso   1.000  C
  C117     1.0000 0.12877  0.76610  0.89066  Biso   1.000  C
  H74      1.0000 0.13620  0.72840  0.91520  Biso   1.000  H
  C118     1.0000 0.15327  0.41990  0.16160  Biso   1.000  C
  H75      1.0000 0.16260  0.36760  0.15080  Biso   1.000  H
  C119     1.0000 0.01478  0.83450  0.94525  Biso   1.000  C
  C120     1.0000 0.09284  0.80710  0.88367  Biso   1.000  C
  C121     1.0000 0.27791  0.47530  0.32939  Biso   1.000  C
  H76      1.0000 0.26400  0.44390  0.30510  Biso   1.000  H
  C122     1.0000 0.08882  0.58390  0.00537  Biso   1.000  C
  H77      1.0000 0.10810  0.60040  0.98980  Biso   1.000  H
  C123     1.0000 0.93570  0.96650  0.98156  Biso   1.000  C
  H78      1.0000 0.92740  0.98080  0.00810  Biso   1.000  H
  C124     1.0000 0.16785  0.86900  0.25112  Biso   1.000  C
  H79      1.0000 0.15160  0.83460  0.23000  Biso   1.000  H
  C125     1.0000 0.02784  0.60970  0.02702  Biso   1.000  C
  H80      1.0000 0.00560  0.64360  0.02640  Biso   1.000  H
  N46      1.0000 0.91623  0.99950  0.94281  Biso   1.000  N
  N47      1.0000 0.32795  0.47620  0.39435  Biso   1.000  N
  C126     1.0000 0.98053  0.89200  0.94436  Biso   1.000  C
  C127     1.0000 0.96029  0.92500  0.90396  Biso   1.000  C
  H81      1.0000 0.96820  0.91190  0.87700  Biso   1.000  H
  C128     1.0000 0.03412  0.53240  0.05243  Biso   1.000  C
  H82      1.0000 0.01550  0.51480  0.06880  Biso   1.000  H
  C129     1.0000 0.08232  0.86130  0.84584  Biso   1.000  C
  H83      1.0000 0.05840  0.88980  0.84010  Biso   1.000  H
  C130     1.0000 0.30769  0.43440  0.35871  Biso   1.000  C
  H84      1.0000 0.31380  0.37540  0.35330  Biso   1.000  H
  C131     1.0000 0.12675  0.57540  0.19217  Biso   1.000  C
  H85      1.0000 0.11720  0.62910  0.20120  Biso   1.000  H
  C132     1.0000 0.92820  0.97770  0.90453  Biso   1.000  C
  H86      1.0000 0.91430  0.99900  0.87740  Biso   1.000  H
  C133     1.0000 0.10813  0.87170  0.81732  Biso   1.000  C
  H87      1.0000 0.10110  0.90700  0.79180  Biso   1.000  H
  C134     1.0000 0.21880  0.88340  0.31519  Biso   1.000  C
  H88      1.0000 0.23750  0.85860  0.33770  Biso   1.000  H
  C135     1.0000 0.23793  0.60910  0.30476  Biso   1.000  C
  C136     1.0000 0.21310  0.97360  0.31300  Biso   1.000  C
  H89      1.0000 0.22850  0.00940  0.33430  Biso   1.000  H
  C137     1.0000 0.28995  0.60680  0.37387  Biso   1.000  C
  H90      1.0000 0.28450  0.66590  0.37980  Biso   1.000  H
  C138     1.0000 0.31897  0.56090  0.40213  Biso   1.000  C
  H91      1.0000 0.33270  0.59000  0.42730  Biso   1.000  H
  C139     1.0000 0.10421  0.52150  0.16037  Biso   1.000  C
  H92      1.0000 0.07880  0.53880  0.14930  Biso   1.000  H
  C140     1.0000 0.09276  0.50820  0.03148  Biso   1.000  C
  H93      1.0000 0.11500  0.47380  0.03330  Biso   1.000  H
  C141     1.0000 0.17736  0.46830  0.19464  Biso   1.000  C
  H94      1.0000 0.20220  0.44830  0.20620  Biso   1.000  H
  C142     1.0000 0.96760  0.91240  0.98374  Biso   1.000  C
  H95      1.0000 0.98030  0.88980  0.01120  Biso   1.000  H
  C143     1.0000 0.16431  0.96030  0.25116  Biso   1.000  C
  H96      1.0000 0.14580  0.98680  0.22910  Biso   1.000  H
  Zn12     1.0000 0.17877  0.15057  0.27818  Biso   1.000  Zn
  I29      1.0000 0.24355  0.22381  0.31089  Biso   1.000  I
  I30      1.0000 0.13870  0.18360  0.20079  Biso   1.000  I
  N48      1.0000 0.14309  0.83290  0.82470  Biso   1.000  N
  C144     1.0000 0.26910  0.56340  0.33661  Biso   1.000  C
  I31      1.0000 0.85060  0.08810  0.01150  Biso   1.000  I
  I32      1.0000 0.23280  0.23650  0.29550  Biso   1.000  I
  I33      1.0000 0.38437  0.23668  0.94160  Biso   1.000  I
  I34      1.0000 0.47920  0.15676  0.86519  Biso   1.000  I
  I35      1.0000 0.65090  0.42139  0.98425  Biso   1.000  I
  I36      1.0000 0.61054  0.27447  0.10138  Biso   1.000  I
  Zn13     1.0000 0.42142  0.12670  0.90201  Biso   1.000  Zn
  Zn14     1.0000 0.62918  0.41258  0.06081  Biso   1.000  Zn
  N49      1.0000 0.31367  0.48680  0.71854  Biso   1.000  N
  N50      1.0000 0.43447  0.01760  0.94547  Biso   1.000  N
  N51      1.0000 0.26828  0.80420  0.68889  Biso   1.000  N
  N52      1.0000 0.32152  0.81470  0.74988  Biso   1.000  N
  N53      1.0000 0.46350  0.65080  0.08599  Biso   1.000  N
  N54      1.0000 0.28208  0.94140  0.72817  Biso   1.000  N
  N55      1.0000 0.42560  0.77520  0.05566  Biso   1.000  N
  N56      1.0000 0.38286  0.05420  0.85517  Biso   1.000  N
  N57      1.0000 0.47937  0.72990  0.02380  Biso   1.000  N
  C145     1.0000 0.30383  0.67120  0.71687  Biso   1.000  C
  C146     1.0000 0.44426  0.86480  0.99745  Biso   1.000  C
  C147     1.0000 0.34657  0.71850  0.13891  Biso   1.000  C
  H97      1.0000 0.32210  0.74450  0.13340  Biso   1.000  H
  C148     1.0000 0.33625  0.95280  0.78989  Biso   1.000  C
  C149     1.0000 0.29756  0.76910  0.71810  Biso   1.000  C
  C150     1.0000 0.31186  0.89970  0.75384  Biso   1.000  C
  C151     1.0000 0.43345  0.70630  0.08399  Biso   1.000  C
  C152     1.0000 0.44983  0.78440  0.02695  Biso   1.000  C
  C153     1.0000 0.37123  0.73390  0.10934  Biso   1.000  C
  H98      1.0000 0.36380  0.77160  0.08480  Biso   1.000  H
  C154     1.0000 0.34673  0.08010  0.83840  Biso   1.000  C
  H99      1.0000 0.33740  0.13240  0.84920  Biso   1.000  H
  C155     1.0000 0.48522  0.66550  0.05475  Biso   1.000  C
  C156     1.0000 0.40716  0.69290  0.11633  Biso   1.000  C
  C157     1.0000 0.22209  0.02470  0.67061  Biso   1.000  C
  H100     1.0000 0.23600  0.05610  0.69490  Biso   1.000  H
  C158     1.0000 0.41118  0.91610  0.99463  Biso   1.000  C
  H101     1.0000 0.39190  0.89960  0.01020  Biso   1.000  H
  C159     1.0000 0.56430  0.53350  0.01844  Biso   1.000  C
  H102     1.0000 0.57260  0.51920  0.99190  Biso   1.000  H
  C160     1.0000 0.33215  0.63100  0.74888  Biso   1.000  C
  H103     1.0000 0.34840  0.66540  0.77000  Biso   1.000  H
  C161     1.0000 0.47216  0.89030  0.97298  Biso   1.000  C
  H104     1.0000 0.49440  0.85640  0.97360  Biso   1.000  H
  N58      1.0000 0.58377  0.50050  0.05719  Biso   1.000  N
  N59      1.0000 0.17205  0.02380  0.60565  Biso   1.000  N
  C162     1.0000 0.51947  0.60800  0.05564  Biso   1.000  C
  C163     1.0000 0.53971  0.57500  0.09604  Biso   1.000  C
  H105     1.0000 0.53180  0.58810  0.12300  Biso   1.000  H
  C164     1.0000 0.46588  0.96760  0.94757  Biso   1.000  C
  H106     1.0000 0.48450  0.98520  0.93120  Biso   1.000  H
  C165     1.0000 0.41768  0.63870  0.15416  Biso   1.000  C
  H107     1.0000 0.44160  0.61020  0.15990  Biso   1.000  H
  C166     1.0000 0.19231  0.06560  0.64129  Biso   1.000  C
  H108     1.0000 0.18620  0.12460  0.64670  Biso   1.000  H
  C167     1.0000 0.37325  0.92460  0.80783  Biso   1.000  C
  H109     1.0000 0.38280  0.87090  0.79880  Biso   1.000  H
  C168     1.0000 0.57180  0.52230  0.09547  Biso   1.000  C
  H110     1.0000 0.58570  0.50100  0.12260  Biso   1.000  H
  C169     1.0000 0.39187  0.62830  0.18268  Biso   1.000  C
  H111     1.0000 0.39890  0.59300  0.20820  Biso   1.000  H
  C170     1.0000 0.28120  0.61660  0.68481  Biso   1.000  C
  H112     1.0000 0.26250  0.64140  0.66230  Biso   1.000  H
  C171     1.0000 0.26207  0.89090  0.69524  Biso   1.000  C
  C172     1.0000 0.28690  0.52640  0.68700  Biso   1.000  C
  H113     1.0000 0.27150  0.49060  0.66570  Biso   1.000  H
  C173     1.0000 0.21005  0.89320  0.62613  Biso   1.000  C
  H114     1.0000 0.21550  0.83410  0.62020  Biso   1.000  H
  C174     1.0000 0.18103  0.93910  0.59787  Biso   1.000  C
  H115     1.0000 0.16730  0.91000  0.57270  Biso   1.000  H
  C175     1.0000 0.39579  0.97850  0.83963  Biso   1.000  C
  H116     1.0000 0.42120  0.96120  0.85070  Biso   1.000  H
  C176     1.0000 0.40724  0.99180  0.96852  Biso   1.000  C
  H117     1.0000 0.38500  0.02620  0.96670  Biso   1.000  H
  C177     1.0000 0.32264  0.03170  0.80536  Biso   1.000  C
  H118     1.0000 0.29780  0.05170  0.79380  Biso   1.000  H
  C178     1.0000 0.53240  0.58760  0.01626  Biso   1.000  C
  H119     1.0000 0.51970  0.61020  0.98880  Biso   1.000  H
  C179     1.0000 0.33569  0.53970  0.74884  Biso   1.000  C
  H120     1.0000 0.35420  0.51320  0.77090  Biso   1.000  H
  Zn15     1.0000 0.32123  0.34943  0.72182  Biso   1.000  Zn
  I37      1.0000 0.25645  0.27619  0.68911  Biso   1.000  I
  I38      1.0000 0.36130  0.31640  0.79921  Biso   1.000  I
  N60      1.0000 0.35691  0.66710  0.17530  Biso   1.000  N
  C180     1.0000 0.23090  0.93660  0.66339  Biso   1.000  C
  I39      1.0000 0.64940  0.41190  0.98850  Biso   1.000  I
  I40      1.0000 0.26720  0.26350  0.70450  Biso   1.000  I
  I41      1.0000 0.88437  0.73668  0.94160  Biso   1.000  I
  I42      1.0000 0.97920  0.65676  0.86519  Biso   1.000  I
  I43      1.0000 0.15090  0.92139  0.98425  Biso   1.000  I
  I44      1.0000 0.11054  0.77447  0.10138  Biso   1.000  I
  Zn16     1.0000 0.92142  0.62670  0.90201  Biso   1.000  Zn
  Zn17     1.0000 0.12918  0.91258  0.06081  Biso   1.000  Zn
  N61      1.0000 0.81367  0.98680  0.71854  Biso   1.000  N
  N62      1.0000 0.93447  0.51760  0.94547  Biso   1.000  N
  N63      1.0000 0.76828  0.30420  0.68889  Biso   1.000  N
  N64      1.0000 0.82152  0.31470  0.74988  Biso   1.000  N
  N65      1.0000 0.96350  0.15080  0.08599  Biso   1.000  N
  N66      1.0000 0.78208  0.44140  0.72817  Biso   1.000  N
  N67      1.0000 0.92560  0.27520  0.05566  Biso   1.000  N
  N68      1.0000 0.88286  0.55420  0.85517  Biso   1.000  N
  N69      1.0000 0.97937  0.22990  0.02380  Biso   1.000  N
  C181     1.0000 0.80383  0.17120  0.71687  Biso   1.000  C
  C182     1.0000 0.94426  0.36480  0.99745  Biso   1.000  C
  C183     1.0000 0.84657  0.21850  0.13891  Biso   1.000  C
  H121     1.0000 0.82210  0.24450  0.13340  Biso   1.000  H
  C184     1.0000 0.83625  0.45280  0.78989  Biso   1.000  C
  C185     1.0000 0.79756  0.26910  0.71810  Biso   1.000  C
  C186     1.0000 0.81186  0.39970  0.75384  Biso   1.000  C
  C187     1.0000 0.93345  0.20630  0.08399  Biso   1.000  C
  C188     1.0000 0.94983  0.28440  0.02695  Biso   1.000  C
  C189     1.0000 0.87123  0.23390  0.10934  Biso   1.000  C
  H122     1.0000 0.86380  0.27160  0.08480  Biso   1.000  H
  C190     1.0000 0.84673  0.58010  0.83840  Biso   1.000  C
  H123     1.0000 0.83740  0.63240  0.84920  Biso   1.000  H
  C191     1.0000 0.98522  0.16550  0.05475  Biso   1.000  C
  C192     1.0000 0.90716  0.19290  0.11633  Biso   1.000  C
  C193     1.0000 0.72209  0.52470  0.67061  Biso   1.000  C
  H124     1.0000 0.73600  0.55610  0.69490  Biso   1.000  H
  C194     1.0000 0.91118  0.41610  0.99463  Biso   1.000  C
  H125     1.0000 0.89190  0.39960  0.01020  Biso   1.000  H
  C195     1.0000 0.06430  0.03350  0.01844  Biso   1.000  C
  H126     1.0000 0.07260  0.01920  0.99190  Biso   1.000  H
  C196     1.0000 0.83215  0.13100  0.74888  Biso   1.000  C
  H127     1.0000 0.84840  0.16540  0.77000  Biso   1.000  H
  C197     1.0000 0.97216  0.39030  0.97298  Biso   1.000  C
  H128     1.0000 0.99440  0.35640  0.97360  Biso   1.000  H
  N70      1.0000 0.08377  0.00050  0.05719  Biso   1.000  N
  N71      1.0000 0.67205  0.52380  0.60565  Biso   1.000  N
  C198     1.0000 0.01947  0.10800  0.05564  Biso   1.000  C
  C199     1.0000 0.03971  0.07500  0.09604  Biso   1.000  C
  H129     1.0000 0.03180  0.08810  0.12300  Biso   1.000  H
  C200     1.0000 0.96588  0.46760  0.94757  Biso   1.000  C
  H130     1.0000 0.98450  0.48520  0.93120  Biso   1.000  H
  C201     1.0000 0.91768  0.13870  0.15416  Biso   1.000  C
  H131     1.0000 0.94160  0.11020  0.15990  Biso   1.000  H
  C202     1.0000 0.69231  0.56560  0.64129  Biso   1.000  C
  H132     1.0000 0.68620  0.62460  0.64670  Biso   1.000  H
  C203     1.0000 0.87325  0.42460  0.80783  Biso   1.000  C
  H133     1.0000 0.88280  0.37090  0.79880  Biso   1.000  H
  C204     1.0000 0.07180  0.02230  0.09547  Biso   1.000  C
  H134     1.0000 0.08570  0.00100  0.12260  Biso   1.000  H
  C205     1.0000 0.89187  0.12830  0.18268  Biso   1.000  C
  H135     1.0000 0.89890  0.09300  0.20820  Biso   1.000  H
  C206     1.0000 0.78120  0.11660  0.68481  Biso   1.000  C
  H136     1.0000 0.76250  0.14140  0.66230  Biso   1.000  H
  C207     1.0000 0.76207  0.39090  0.69524  Biso   1.000  C
  C208     1.0000 0.78690  0.02640  0.68700  Biso   1.000  C
  H137     1.0000 0.77150  0.99060  0.66570  Biso   1.000  H
  C209     1.0000 0.71005  0.39320  0.62613  Biso   1.000  C
  H138     1.0000 0.71550  0.33410  0.62020  Biso   1.000  H
  C210     1.0000 0.68103  0.43910  0.59787  Biso   1.000  C
  H139     1.0000 0.66730  0.41000  0.57270  Biso   1.000  H
  C211     1.0000 0.89579  0.47850  0.83963  Biso   1.000  C
  H140     1.0000 0.92120  0.46120  0.85070  Biso   1.000  H
  C212     1.0000 0.90724  0.49180  0.96852  Biso   1.000  C
  H141     1.0000 0.88500  0.52620  0.96670  Biso   1.000  H
  C213     1.0000 0.82264  0.53170  0.80536  Biso   1.000  C
  H142     1.0000 0.79780  0.55170  0.79380  Biso   1.000  H
  C214     1.0000 0.03240  0.08760  0.01626  Biso   1.000  C
  H143     1.0000 0.01970  0.11020  0.98880  Biso   1.000  H
  C215     1.0000 0.83569  0.03970  0.74884  Biso   1.000  C
  H144     1.0000 0.85420  0.01320  0.77090  Biso   1.000  H
  Zn18     1.0000 0.82123  0.84943  0.72182  Biso   1.000  Zn
  I45      1.0000 0.75645  0.77619  0.68911  Biso   1.000  I
  I46      1.0000 0.86130  0.81640  0.79921  Biso   1.000  I
  N72      1.0000 0.85691  0.16710  0.17530  Biso   1.000  N
  C216     1.0000 0.73090  0.43660  0.66339  Biso   1.000  C
  I47      1.0000 0.14940  0.91190  0.98850  Biso   1.000  I
  I48      1.0000 0.76720  0.76350  0.70450  Biso   1.000  I
  I49      1.0000 0.38437  0.76332  0.44160  Biso   1.000  I
  I50      1.0000 0.47920  0.84324  0.36519  Biso   1.000  I
  I51      1.0000 0.65090  0.57861  0.48425  Biso   1.000  I
  I52      1.0000 0.61054  0.72553  0.60138  Biso   1.000  I
  Zn19     1.0000 0.42142  0.87330  0.40201  Biso   1.000  Zn
  Zn20     1.0000 0.62918  0.58742  0.56081  Biso   1.000  Zn
  N73      1.0000 0.31367  0.51320  0.21854  Biso   1.000  N
  N74      1.0000 0.43447  0.98240  0.44547  Biso   1.000  N
  N75      1.0000 0.26828  0.19580  0.18889  Biso   1.000  N
  N76      1.0000 0.32152  0.18530  0.24988  Biso   1.000  N
  N77      1.0000 0.46350  0.34920  0.58599  Biso   1.000  N
  N78      1.0000 0.28208  0.05860  0.22817  Biso   1.000  N
  N79      1.0000 0.42560  0.22480  0.55566  Biso   1.000  N
  N80      1.0000 0.38286  0.94580  0.35517  Biso   1.000  N
  N81      1.0000 0.47937  0.27010  0.52380  Biso   1.000  N
  C217     1.0000 0.30383  0.32880  0.21687  Biso   1.000  C
  C218     1.0000 0.44426  0.13520  0.49745  Biso   1.000  C
  C219     1.0000 0.34657  0.28150  0.63891  Biso   1.000  C
  H145     1.0000 0.32210  0.25550  0.63340  Biso   1.000  H
  C220     1.0000 0.33625  0.04720  0.28989  Biso   1.000  C
  C221     1.0000 0.29756  0.23090  0.21810  Biso   1.000  C
  C222     1.0000 0.31186  0.10030  0.25384  Biso   1.000  C
  C223     1.0000 0.43345  0.29370  0.58399  Biso   1.000  C
  C224     1.0000 0.44983  0.21560  0.52695  Biso   1.000  C
  C225     1.0000 0.37123  0.26610  0.60934  Biso   1.000  C
  H146     1.0000 0.36380  0.22840  0.58480  Biso   1.000  H
  C226     1.0000 0.34673  0.91990  0.33840  Biso   1.000  C
  H147     1.0000 0.33740  0.86760  0.34920  Biso   1.000  H
  C227     1.0000 0.48522  0.33450  0.55475  Biso   1.000  C
  C228     1.0000 0.40716  0.30710  0.61633  Biso   1.000  C
  C229     1.0000 0.22209  0.97530  0.17061  Biso   1.000  C
  H148     1.0000 0.23600  0.94390  0.19490  Biso   1.000  H
  C230     1.0000 0.41118  0.08390  0.49463  Biso   1.000  C
  H149     1.0000 0.39190  0.10040  0.51020  Biso   1.000  H
  C231     1.0000 0.56430  0.46650  0.51844  Biso   1.000  C
  H150     1.0000 0.57260  0.48080  0.49190  Biso   1.000  H
  C232     1.0000 0.33215  0.36900  0.24888  Biso   1.000  C
  H151     1.0000 0.34840  0.33460  0.27000  Biso   1.000  H
  C233     1.0000 0.47216  0.10970  0.47298  Biso   1.000  C
  H152     1.0000 0.49440  0.14360  0.47360  Biso   1.000  H
  N82      1.0000 0.58377  0.49950  0.55719  Biso   1.000  N
  N83      1.0000 0.17205  0.97620  0.10565  Biso   1.000  N
  C234     1.0000 0.51947  0.39200  0.55564  Biso   1.000  C
  C235     1.0000 0.53971  0.42500  0.59604  Biso   1.000  C
  H153     1.0000 0.53180  0.41190  0.62300  Biso   1.000  H
  C236     1.0000 0.46588  0.03240  0.44757  Biso   1.000  C
  H154     1.0000 0.48450  0.01480  0.43120  Biso   1.000  H
  C237     1.0000 0.41768  0.36130  0.65416  Biso   1.000  C
  H155     1.0000 0.44160  0.38980  0.65990  Biso   1.000  H
  C238     1.0000 0.19231  0.93440  0.14129  Biso   1.000  C
  H156     1.0000 0.18620  0.87540  0.14670  Biso   1.000  H
  C239     1.0000 0.37325  0.07540  0.30783  Biso   1.000  C
  H157     1.0000 0.38280  0.12910  0.29880  Biso   1.000  H
  C240     1.0000 0.57180  0.47770  0.59547  Biso   1.000  C
  H158     1.0000 0.58570  0.49900  0.62260  Biso   1.000  H
  C241     1.0000 0.39187  0.37170  0.68268  Biso   1.000  C
  H159     1.0000 0.39890  0.40700  0.70820  Biso   1.000  H
  C242     1.0000 0.28120  0.38340  0.18481  Biso   1.000  C
  H160     1.0000 0.26250  0.35860  0.16230  Biso   1.000  H
  C243     1.0000 0.26207  0.10910  0.19524  Biso   1.000  C
  C244     1.0000 0.28690  0.47360  0.18700  Biso   1.000  C
  H161     1.0000 0.27150  0.50940  0.16570  Biso   1.000  H
  C245     1.0000 0.21005  0.10680  0.12613  Biso   1.000  C
  H162     1.0000 0.21550  0.16590  0.12020  Biso   1.000  H
  C246     1.0000 0.18103  0.06090  0.09787  Biso   1.000  C
  H163     1.0000 0.16730  0.09000  0.07270  Biso   1.000  H
  C247     1.0000 0.39579  0.02150  0.33963  Biso   1.000  C
  H164     1.0000 0.42120  0.03880  0.35070  Biso   1.000  H
  C248     1.0000 0.40724  0.00820  0.46852  Biso   1.000  C
  H165     1.0000 0.38500  0.97380  0.46670  Biso   1.000  H
  C249     1.0000 0.32264  0.96830  0.30536  Biso   1.000  C
  H166     1.0000 0.29780  0.94830  0.29380  Biso   1.000  H
  C250     1.0000 0.53240  0.41240  0.51626  Biso   1.000  C
  H167     1.0000 0.51970  0.38980  0.48880  Biso   1.000  H
  C251     1.0000 0.33569  0.46030  0.24884  Biso   1.000  C
  H168     1.0000 0.35420  0.48680  0.27090  Biso   1.000  H
  Zn21     1.0000 0.32123  0.65057  0.22182  Biso   1.000  Zn
  I53      1.0000 0.25645  0.72381  0.18911  Biso   1.000  I
  I54      1.0000 0.36130  0.68360  0.29921  Biso   1.000  I
  N84      1.0000 0.35691  0.33290  0.67530  Biso   1.000  N
  C252     1.0000 0.23090  0.06340  0.16339  Biso   1.000  C
  I55      1.0000 0.64940  0.58810  0.48850  Biso   1.000  I
  I56      1.0000 0.26720  0.73650  0.20450  Biso   1.000  I
  I57      1.0000 0.88437  0.26332  0.44160  Biso   1.000  I
  I58      1.0000 0.97920  0.34324  0.36519  Biso   1.000  I
  I59      1.0000 0.15090  0.07861  0.48425  Biso   1.000  I
  I60      1.0000 0.11054  0.22553  0.60138  Biso   1.000  I
  Zn22     1.0000 0.92142  0.37330  0.40201  Biso   1.000  Zn
  Zn23     1.0000 0.12918  0.08742  0.56081  Biso   1.000  Zn
  N85      1.0000 0.81367  0.01320  0.21854  Biso   1.000  N
  N86      1.0000 0.93447  0.48240  0.44547  Biso   1.000  N
  N87      1.0000 0.76828  0.69580  0.18889  Biso   1.000  N
  N88      1.0000 0.82152  0.68530  0.24988  Biso   1.000  N
  N89      1.0000 0.96350  0.84920  0.58599  Biso   1.000  N
  N90      1.0000 0.78208  0.55860  0.22817  Biso   1.000  N
  N91      1.0000 0.92560  0.72480  0.55566  Biso   1.000  N
  N92      1.0000 0.88286  0.44580  0.35517  Biso   1.000  N
  N93      1.0000 0.97937  0.77010  0.52380  Biso   1.000  N
  C253     1.0000 0.80383  0.82880  0.21687  Biso   1.000  C
  C254     1.0000 0.94426  0.63520  0.49745  Biso   1.000  C
  C255     1.0000 0.84657  0.78150  0.63891  Biso   1.000  C
  H169     1.0000 0.82210  0.75550  0.63340  Biso   1.000  H
  C256     1.0000 0.83625  0.54720  0.28989  Biso   1.000  C
  C257     1.0000 0.79756  0.73090  0.21810  Biso   1.000  C
  C258     1.0000 0.81186  0.60030  0.25384  Biso   1.000  C
  C259     1.0000 0.93345  0.79370  0.58399  Biso   1.000  C
  C260     1.0000 0.94983  0.71560  0.52695  Biso   1.000  C
  C261     1.0000 0.87123  0.76610  0.60934  Biso   1.000  C
  H170     1.0000 0.86380  0.72840  0.58480  Biso   1.000  H
  C262     1.0000 0.84673  0.41990  0.33840  Biso   1.000  C
  H171     1.0000 0.83740  0.36760  0.34920  Biso   1.000  H
  C263     1.0000 0.98522  0.83450  0.55475  Biso   1.000  C
  C264     1.0000 0.90716  0.80710  0.61633  Biso   1.000  C
  C265     1.0000 0.72209  0.47530  0.17061  Biso   1.000  C
  H172     1.0000 0.73600  0.44390  0.19490  Biso   1.000  H
  C266     1.0000 0.91118  0.58390  0.49463  Biso   1.000  C
  H173     1.0000 0.89190  0.60040  0.51020  Biso   1.000  H
  C267     1.0000 0.06430  0.96650  0.51844  Biso   1.000  C
  H174     1.0000 0.07260  0.98080  0.49190  Biso   1.000  H
  C268     1.0000 0.83215  0.86900  0.24888  Biso   1.000  C
  H175     1.0000 0.84840  0.83460  0.27000  Biso   1.000  H
  C269     1.0000 0.97216  0.60970  0.47298  Biso   1.000  C
  H176     1.0000 0.99440  0.64360  0.47360  Biso   1.000  H
  N94      1.0000 0.08377  0.99950  0.55719  Biso   1.000  N
  N95      1.0000 0.67205  0.47620  0.10565  Biso   1.000  N
  C270     1.0000 0.01947  0.89200  0.55564  Biso   1.000  C
  C271     1.0000 0.03971  0.92500  0.59604  Biso   1.000  C
  H177     1.0000 0.03180  0.91190  0.62300  Biso   1.000  H
  C272     1.0000 0.96588  0.53240  0.44757  Biso   1.000  C
  H178     1.0000 0.98450  0.51480  0.43120  Biso   1.000  H
  C273     1.0000 0.91768  0.86130  0.65416  Biso   1.000  C
  H179     1.0000 0.94160  0.88980  0.65990  Biso   1.000  H
  C274     1.0000 0.69231  0.43440  0.14129  Biso   1.000  C
  H180     1.0000 0.68620  0.37540  0.14670  Biso   1.000  H
  C275     1.0000 0.87325  0.57540  0.30783  Biso   1.000  C
  H181     1.0000 0.88280  0.62910  0.29880  Biso   1.000  H
  C276     1.0000 0.07180  0.97770  0.59547  Biso   1.000  C
  H182     1.0000 0.08570  0.99900  0.62260  Biso   1.000  H
  C277     1.0000 0.89187  0.87170  0.68268  Biso   1.000  C
  H183     1.0000 0.89890  0.90700  0.70820  Biso   1.000  H
  C278     1.0000 0.78120  0.88340  0.18481  Biso   1.000  C
  H184     1.0000 0.76250  0.85860  0.16230  Biso   1.000  H
  C279     1.0000 0.76207  0.60910  0.19524  Biso   1.000  C
  C280     1.0000 0.78690  0.97360  0.18700  Biso   1.000  C
  H185     1.0000 0.77150  0.00940  0.16570  Biso   1.000  H
  C281     1.0000 0.71005  0.60680  0.12613  Biso   1.000  C
  H186     1.0000 0.71550  0.66590  0.12020  Biso   1.000  H
  C282     1.0000 0.68103  0.56090  0.09787  Biso   1.000  C
  H187     1.0000 0.66730  0.59000  0.07270  Biso   1.000  H
  C283     1.0000 0.89579  0.52150  0.33963  Biso   1.000  C
  H188     1.0000 0.92120  0.53880  0.35070  Biso   1.000  H
  C284     1.0000 0.90724  0.50820  0.46852  Biso   1.000  C
  H189     1.0000 0.88500  0.47380  0.46670  Biso   1.000  H
  C285     1.0000 0.82264  0.46830  0.30536  Biso   1.000  C
  H190     1.0000 0.79780  0.44830  0.29380  Biso   1.000  H
  C286     1.0000 0.03240  0.91240  0.51626  Biso   1.000  C
  H191     1.0000 0.01970  0.88980  0.48880  Biso   1.000  H
  C287     1.0000 0.83569  0.96030  0.24884  Biso   1.000  C
  H192     1.0000 0.85420  0.98680  0.27090  Biso   1.000  H
  Zn24     1.0000 0.82123  0.15057  0.22182  Biso   1.000  Zn
  I61      1.0000 0.75645  0.22381  0.18911  Biso   1.000  I
  I62      1.0000 0.86130  0.18360  0.29921  Biso   1.000  I
  N96      1.0000 0.85691  0.83290  0.67530  Biso   1.000  N
  C288     1.0000 0.73090  0.56340  0.16339  Biso   1.000  C
  I63      1.0000 0.14940  0.08810  0.48850  Biso   1.000  I
  I64      1.0000 0.76720  0.23650  0.20450  Biso   1.000  I
