data_image0
_cell_length_a       35.0087
_cell_length_b       14.9458
_cell_length_c       30.6949
_cell_angle_alpha    90
_cell_angle_beta     100.8
_cell_angle_gamma    90

_symmetry_space_group_name_H-M    "P 1"
_symmetry_int_tables_number       1

loop_
  _symmetry_equiv_pos_as_xyz
  'x, y, z'

loop_
  _atom_site_label
  _atom_site_occupancy
  _atom_site_fract_x
  _atom_site_fract_y
  _atom_site_fract_z
  _atom_site_thermal_displace_type
  _atom_site_B_iso_or_equiv
  _atom_site_type_symbol
  I1       1.0000 0.38396  0.23726  0.43965  Biso   1.000  I
  I2       1.0000 0.47889  0.15581  0.36602  Biso   1.000  I
  I3       1.0000 0.61087  0.27100  0.59806  Biso   1.000  I
  I4       1.0000 0.25658  0.72426  0.69000  Biso   1.000  I
  Zn1      1.0000 0.42090  0.12396  0.40206  Biso   1.000  Zn
  Zn2      1.0000 0.62907  0.41010  0.56190  Biso   1.000  Zn
  Zn3      1.0000 0.32204  0.64978  0.72175  Biso   1.000  Zn
  N1       1.0000 0.43390  0.01680  0.44520  Biso   1.000  N
  N2       1.0000 0.58330  0.49750  0.55830  Biso   1.000  N
  N3       1.0000 0.35730  0.66630  0.67540  Biso   1.000  N
  N4       1.0000 0.46310  0.65080  0.58570  Biso   1.000  N
  N5       1.0000 0.47910  0.73030  0.52440  Biso   1.000  N
  N6       1.0000 0.42510  0.77610  0.55580  Biso   1.000  N
  N7       1.0000 0.38250  0.94860  0.85510  Biso   1.000  N
  N8       1.0000 0.17170  0.97470  0.60680  Biso   1.000  N
  N9       1.0000 0.31370  0.51230  0.71890  Biso   1.000  N
  N10      1.0000 0.32070  0.18430  0.74890  Biso   1.000  N
  N11      1.0000 0.26730  0.19550  0.68990  Biso   1.000  N
  N12      1.0000 0.28190  0.05690  0.72780  Biso   1.000  N
  C1       1.0000 0.56480  0.53380  0.52030  Biso   1.000  C
  H1       1.0000 0.57420  0.52150  0.49460  Biso   1.000  H
  C2       1.0000 0.53270  0.58840  0.51710  Biso   1.000  C
  H2       1.0000 0.52050  0.61160  0.49000  Biso   1.000  H
  C3       1.0000 0.51910  0.60770  0.55620  Biso   1.000  C
  C4       1.0000 0.53840  0.57330  0.59520  Biso   1.000  C
  H3       1.0000 0.52970  0.58510  0.62150  Biso   1.000  H
  C5       1.0000 0.57130  0.51990  0.59570  Biso   1.000  C
  H4       1.0000 0.58520  0.49960  0.62270  Biso   1.000  H
  C6       1.0000 0.44390  0.86440  0.49840  Biso   1.000  C
  C7       1.0000 0.47160  0.89050  0.47410  Biso   1.000  C
  H5       1.0000 0.49430  0.85730  0.47540  Biso   1.000  H
  C8       1.0000 0.46540  0.96500  0.44840  Biso   1.000  C
  H6       1.0000 0.48410  0.98080  0.43200  Biso   1.000  H
  C9       1.0000 0.40640  0.99160  0.46890  Biso   1.000  C
  H7       1.0000 0.38420  0.02640  0.46720  Biso   1.000  H
  C10      1.0000 0.41050  0.91590  0.49540  Biso   1.000  C
  H8       1.0000 0.39110  0.89970  0.51090  Biso   1.000  H
  C11      1.0000 0.40720  0.69290  0.61570  Biso   1.000  C
  C12      1.0000 0.36990  0.73160  0.60940  Biso   1.000  C
  H9       1.0000 0.36150  0.76840  0.58510  Biso   1.000  H
  C13      1.0000 0.34620  0.71530  0.63870  Biso   1.000  C
  H10      1.0000 0.32120  0.73920  0.63320  Biso   1.000  H
  C14      1.0000 0.39280  0.62950  0.68250  Biso   1.000  C
  H11      1.0000 0.40070  0.59500  0.70780  Biso   1.000  H
  C15      1.0000 0.41800  0.64150  0.65350  Biso   1.000  C
  H12      1.0000 0.44240  0.61490  0.65940  Biso   1.000  H
  C16      1.0000 0.43300  0.70660  0.58380  Biso   1.000  C
  C17      1.0000 0.44920  0.78570  0.52770  Biso   1.000  C
  C18      1.0000 0.48520  0.66610  0.55530  Biso   1.000  C
  C19      1.0000 0.33600  0.04580  0.78910  Biso   1.000  C
  C20      1.0000 0.37270  0.07820  0.80930  Biso   1.000  C
  H13      1.0000 0.38210  0.13250  0.80090  Biso   1.000  H
  C21      1.0000 0.39410  0.02610  0.84200  Biso   1.000  C
  H14      1.0000 0.41840  0.04710  0.85570  Biso   1.000  H
  C22      1.0000 0.34730  0.91780  0.83520  Biso   1.000  C
  H15      1.0000 0.33880  0.86290  0.84400  Biso   1.000  H
  C23      1.0000 0.32400  0.96490  0.80240  Biso   1.000  C
  H16      1.0000 0.29990  0.94190  0.78910  Biso   1.000  H
  C24      1.0000 0.23050  0.06160  0.66410  Biso   1.000  C
  C25      1.0000 0.22240  0.97180  0.67050  Biso   1.000  C
  H17      1.0000 0.23680  0.93990  0.69400  Biso   1.000  H
  C26      1.0000 0.19280  0.93120  0.64170  Biso   1.000  C
  H18      1.0000 0.18700  0.87160  0.64630  Biso   1.000  H
  C27      1.0000 0.17980  0.05950  0.59990  Biso   1.000  C
  H19      1.0000 0.16560  0.08900  0.57540  Biso   1.000  H
  C28      1.0000 0.20870  0.10570  0.62800  Biso   1.000  C
  H20      1.0000 0.21350  0.16550  0.62280  Biso   1.000  H
  C29      1.0000 0.30360  0.32760  0.71700  Biso   1.000  C
  C30      1.0000 0.27950  0.38220  0.68690  Biso   1.000  C
  H21      1.0000 0.25960  0.35790  0.66590  Biso   1.000  H
  C31      1.0000 0.28600  0.47390  0.68900  Biso   1.000  C
  H22      1.0000 0.27030  0.51040  0.66850  Biso   1.000  H
  C32      1.0000 0.33620  0.45950  0.74780  Biso   1.000  C
  H23      1.0000 0.35550  0.48600  0.76880  Biso   1.000  H
  C33      1.0000 0.33240  0.36670  0.74840  Biso   1.000  C
  H24      1.0000 0.34870  0.33200  0.76910  Biso   1.000  H
  C34      1.0000 0.29700  0.22950  0.71850  Biso   1.000  C
  C35      1.0000 0.26170  0.10630  0.69550  Biso   1.000  C
  C36      1.0000 0.31180  0.09930  0.75370  Biso   1.000  C
  I5       1.0000 0.65075  0.42135  0.48578  Biso   1.000  I
  I6       1.0000 0.36845  0.68260  0.79960  Biso   1.000  I
  I7       1.0000 0.35711  0.68270  0.79530  Biso   1.000  I
  I8       1.0000 0.60630  0.27570  0.61250  Biso   1.000  I
  I9       1.0000 0.64924  0.38640  0.49740  Biso   1.000  I
  I10      1.0000 0.26600  0.73600  0.70290  Biso   1.000  I
  I11      1.0000 0.39430  0.21200  0.45540  Biso   1.000  I
  I12      1.0000 0.88396  0.73726  0.43965  Biso   1.000  I
  I13      1.0000 0.97889  0.65581  0.36602  Biso   1.000  I
  I14      1.0000 0.11087  0.77100  0.59806  Biso   1.000  I
  I15      1.0000 0.75658  0.22426  0.69000  Biso   1.000  I
  Zn4      1.0000 0.92090  0.62396  0.40206  Biso   1.000  Zn
  Zn5      1.0000 0.12907  0.91010  0.56190  Biso   1.000  Zn
  Zn6      1.0000 0.82204  0.14978  0.72175  Biso   1.000  Zn
  N13      1.0000 0.93390  0.51680  0.44520  Biso   1.000  N
  N14      1.0000 0.08330  0.99750  0.55830  Biso   1.000  N
  N15      1.0000 0.85730  0.16630  0.67540  Biso   1.000  N
  N16      1.0000 0.96310  0.15080  0.58570  Biso   1.000  N
  N17      1.0000 0.97910  0.23030  0.52440  Biso   1.000  N
  N18      1.0000 0.92510  0.27610  0.55580  Biso   1.000  N
  N19      1.0000 0.88250  0.44860  0.85510  Biso   1.000  N
  N20      1.0000 0.67170  0.47470  0.60680  Biso   1.000  N
  N21      1.0000 0.81370  0.01230  0.71890  Biso   1.000  N
  N22      1.0000 0.82070  0.68430  0.74890  Biso   1.000  N
  N23      1.0000 0.76730  0.69550  0.68990  Biso   1.000  N
  N24      1.0000 0.78190  0.55690  0.72780  Biso   1.000  N
  C37      1.0000 0.06480  0.03380  0.52030  Biso   1.000  C
  H25      1.0000 0.07420  0.02150  0.49460  Biso   1.000  H
  C38      1.0000 0.03270  0.08840  0.51710  Biso   1.000  C
  H26      1.0000 0.02050  0.11160  0.49000  Biso   1.000  H
  C39      1.0000 0.01910  0.10770  0.55620  Biso   1.000  C
  C40      1.0000 0.03840  0.07330  0.59520  Biso   1.000  C
  H27      1.0000 0.02970  0.08510  0.62150  Biso   1.000  H
  C41      1.0000 0.07130  0.01990  0.59570  Biso   1.000  C
  H28      1.0000 0.08520  0.99960  0.62270  Biso   1.000  H
  C42      1.0000 0.94390  0.36440  0.49840  Biso   1.000  C
  C43      1.0000 0.97160  0.39050  0.47410  Biso   1.000  C
  H29      1.0000 0.99430  0.35730  0.47540  Biso   1.000  H
  C44      1.0000 0.96540  0.46500  0.44840  Biso   1.000  C
  H30      1.0000 0.98410  0.48080  0.43200  Biso   1.000  H
  C45      1.0000 0.90640  0.49160  0.46890  Biso   1.000  C
  H31      1.0000 0.88420  0.52640  0.46720  Biso   1.000  H
  C46      1.0000 0.91050  0.41590  0.49540  Biso   1.000  C
  H32      1.0000 0.89110  0.39970  0.51090  Biso   1.000  H
  C47      1.0000 0.90720  0.19290  0.61570  Biso   1.000  C
  C48      1.0000 0.86990  0.23160  0.60940  Biso   1.000  C
  H33      1.0000 0.86150  0.26840  0.58510  Biso   1.000  H
  C49      1.0000 0.84620  0.21530  0.63870  Biso   1.000  C
  H34      1.0000 0.82120  0.23920  0.63320  Biso   1.000  H
  C50      1.0000 0.89280  0.12950  0.68250  Biso   1.000  C
  H35      1.0000 0.90070  0.09500  0.70780  Biso   1.000  H
  C51      1.0000 0.91800  0.14150  0.65350  Biso   1.000  C
  H36      1.0000 0.94240  0.11490  0.65940  Biso   1.000  H
  C52      1.0000 0.93300  0.20660  0.58380  Biso   1.000  C
  C53      1.0000 0.94920  0.28570  0.52770  Biso   1.000  C
  C54      1.0000 0.98520  0.16610  0.55530  Biso   1.000  C
  C55      1.0000 0.83600  0.54580  0.78910  Biso   1.000  C
  C56      1.0000 0.87270  0.57820  0.80930  Biso   1.000  C
  H37      1.0000 0.88210  0.63250  0.80090  Biso   1.000  H
  C57      1.0000 0.89410  0.52610  0.84200  Biso   1.000  C
  H38      1.0000 0.91840  0.54710  0.85570  Biso   1.000  H
  C58      1.0000 0.84730  0.41780  0.83520  Biso   1.000  C
  H39      1.0000 0.83880  0.36290  0.84400  Biso   1.000  H
  C59      1.0000 0.82400  0.46490  0.80240  Biso   1.000  C
  H40      1.0000 0.79990  0.44190  0.78910  Biso   1.000  H
  C60      1.0000 0.73050  0.56160  0.66410  Biso   1.000  C
  C61      1.0000 0.72240  0.47180  0.67050  Biso   1.000  C
  H41      1.0000 0.73680  0.43990  0.69400  Biso   1.000  H
  C62      1.0000 0.69280  0.43120  0.64170  Biso   1.000  C
  H42      1.0000 0.68700  0.37160  0.64630  Biso   1.000  H
  C63      1.0000 0.67980  0.55950  0.59990  Biso   1.000  C
  H43      1.0000 0.66560  0.58900  0.57540  Biso   1.000  H
  C64      1.0000 0.70870  0.60570  0.62800  Biso   1.000  C
  H44      1.0000 0.71350  0.66550  0.62280  Biso   1.000  H
  C65      1.0000 0.80360  0.82760  0.71700  Biso   1.000  C
  C66      1.0000 0.77950  0.88220  0.68690  Biso   1.000  C
  H45      1.0000 0.75960  0.85790  0.66590  Biso   1.000  H
  C67      1.0000 0.78600  0.97390  0.68900  Biso   1.000  C
  H46      1.0000 0.77030  0.01040  0.66850  Biso   1.000  H
  C68      1.0000 0.83620  0.95950  0.74780  Biso   1.000  C
  H47      1.0000 0.85550  0.98600  0.76880  Biso   1.000  H
  C69      1.0000 0.83240  0.86670  0.74840  Biso   1.000  C
  H48      1.0000 0.84870  0.83200  0.76910  Biso   1.000  H
  C70      1.0000 0.79700  0.72950  0.71850  Biso   1.000  C
  C71      1.0000 0.76170  0.60630  0.69550  Biso   1.000  C
  C72      1.0000 0.81180  0.59930  0.75370  Biso   1.000  C
  I16      1.0000 0.15075  0.92135  0.48578  Biso   1.000  I
  I17      1.0000 0.86845  0.18260  0.79960  Biso   1.000  I
  I18      1.0000 0.85711  0.18270  0.79530  Biso   1.000  I
  I19      1.0000 0.10630  0.77570  0.61250  Biso   1.000  I
  I20      1.0000 0.14924  0.88640  0.49740  Biso   1.000  I
  I21      1.0000 0.76600  0.23600  0.70290  Biso   1.000  I
  I22      1.0000 0.89430  0.71200  0.45540  Biso   1.000  I
  I23      1.0000 0.38396  0.76274  0.93965  Biso   1.000  I
  I24      1.0000 0.47889  0.84419  0.86602  Biso   1.000  I
  I25      1.0000 0.61087  0.72900  0.09806  Biso   1.000  I
  I26      1.0000 0.25658  0.27574  0.19000  Biso   1.000  I
  Zn7      1.0000 0.42090  0.87604  0.90206  Biso   1.000  Zn
  Zn8      1.0000 0.62907  0.58990  0.06190  Biso   1.000  Zn
  Zn9      1.0000 0.32204  0.35022  0.22175  Biso   1.000  Zn
  N25      1.0000 0.43390  0.98320  0.94520  Biso   1.000  N
  N26      1.0000 0.58330  0.50250  0.05830  Biso   1.000  N
  N27      1.0000 0.35730  0.33370  0.17540  Biso   1.000  N
  N28      1.0000 0.46310  0.34920  0.08570  Biso   1.000  N
  N29      1.0000 0.47910  0.26970  0.02440  Biso   1.000  N
  N30      1.0000 0.42510  0.22390  0.05580  Biso   1.000  N
  N31      1.0000 0.38250  0.05140  0.35510  Biso   1.000  N
  N32      1.0000 0.17170  0.02530  0.10680  Biso   1.000  N
  N33      1.0000 0.31370  0.48770  0.21890  Biso   1.000  N
  N34      1.0000 0.32070  0.81570  0.24890  Biso   1.000  N
  N35      1.0000 0.26730  0.80450  0.18990  Biso   1.000  N
  N36      1.0000 0.28190  0.94310  0.22780  Biso   1.000  N
  C73      1.0000 0.56480  0.46620  0.02030  Biso   1.000  C
  H49      1.0000 0.57420  0.47850  0.99460  Biso   1.000  H
  C74      1.0000 0.53270  0.41160  0.01710  Biso   1.000  C
  H50      1.0000 0.52050  0.38840  0.99000  Biso   1.000  H
  C75      1.0000 0.51910  0.39230  0.05620  Biso   1.000  C
  C76      1.0000 0.53840  0.42670  0.09520  Biso   1.000  C
  H51      1.0000 0.52970  0.41490  0.12150  Biso   1.000  H
  C77      1.0000 0.57130  0.48010  0.09570  Biso   1.000  C
  H52      1.0000 0.58520  0.50040  0.12270  Biso   1.000  H
  C78      1.0000 0.44390  0.13560  0.99840  Biso   1.000  C
  C79      1.0000 0.47160  0.10950  0.97410  Biso   1.000  C
  H53      1.0000 0.49430  0.14270  0.97540  Biso   1.000  H
  C80      1.0000 0.46540  0.03500  0.94840  Biso   1.000  C
  H54      1.0000 0.48410  0.01920  0.93200  Biso   1.000  H
  C81      1.0000 0.40640  0.00840  0.96890  Biso   1.000  C
  H55      1.0000 0.38420  0.97360  0.96720  Biso   1.000  H
  C82      1.0000 0.41050  0.08410  0.99540  Biso   1.000  C
  H56      1.0000 0.39110  0.10030  0.01090  Biso   1.000  H
  C83      1.0000 0.40720  0.30710  0.11570  Biso   1.000  C
  C84      1.0000 0.36990  0.26840  0.10940  Biso   1.000  C
  H57      1.0000 0.36150  0.23160  0.08510  Biso   1.000  H
  C85      1.0000 0.34620  0.28470  0.13870  Biso   1.000  C
  H58      1.0000 0.32120  0.26080  0.13320  Biso   1.000  H
  C86      1.0000 0.39280  0.37050  0.18250  Biso   1.000  C
  H59      1.0000 0.40070  0.40500  0.20780  Biso   1.000  H
  C87      1.0000 0.41800  0.35850  0.15350  Biso   1.000  C
  H60      1.0000 0.44240  0.38510  0.15940  Biso   1.000  H
  C88      1.0000 0.43300  0.29340  0.08380  Biso   1.000  C
  C89      1.0000 0.44920  0.21430  0.02770  Biso   1.000  C
  C90      1.0000 0.48520  0.33390  0.05530  Biso   1.000  C
  C91      1.0000 0.33600  0.95420  0.28910  Biso   1.000  C
  C92      1.0000 0.37270  0.92180  0.30930  Biso   1.000  C
  H61      1.0000 0.38210  0.86750  0.30090  Biso   1.000  H
  C93      1.0000 0.39410  0.97390  0.34200  Biso   1.000  C
  H62      1.0000 0.41840  0.95290  0.35570  Biso   1.000  H
  C94      1.0000 0.34730  0.08220  0.33520  Biso   1.000  C
  H63      1.0000 0.33880  0.13710  0.34400  Biso   1.000  H
  C95      1.0000 0.32400  0.03510  0.30240  Biso   1.000  C
  H64      1.0000 0.29990  0.05810  0.28910  Biso   1.000  H
  C96      1.0000 0.23050  0.93840  0.16410  Biso   1.000  C
  C97      1.0000 0.22240  0.02820  0.17050  Biso   1.000  C
  H65      1.0000 0.23680  0.06010  0.19400  Biso   1.000  H
  C98      1.0000 0.19280  0.06880  0.14170  Biso   1.000  C
  H66      1.0000 0.18700  0.12840  0.14630  Biso   1.000  H
  C99      1.0000 0.17980  0.94050  0.09990  Biso   1.000  C
  H67      1.0000 0.16560  0.91100  0.07540  Biso   1.000  H
  C100     1.0000 0.20870  0.89430  0.12800  Biso   1.000  C
  H68      1.0000 0.21350  0.83450  0.12280  Biso   1.000  H
  C101     1.0000 0.30360  0.67240  0.21700  Biso   1.000  C
  C102     1.0000 0.27950  0.61780  0.18690  Biso   1.000  C
  H69      1.0000 0.25960  0.64210  0.16590  Biso   1.000  H
  C103     1.0000 0.28600  0.52610  0.18900  Biso   1.000  C
  H70      1.0000 0.27030  0.48960  0.16850  Biso   1.000  H
  C104     1.0000 0.33620  0.54050  0.24780  Biso   1.000  C
  H71      1.0000 0.35550  0.51400  0.26880  Biso   1.000  H
  C105     1.0000 0.33240  0.63330  0.24840  Biso   1.000  C
  H72      1.0000 0.34870  0.66800  0.26910  Biso   1.000  H
  C106     1.0000 0.29700  0.77050  0.21850  Biso   1.000  C
  C107     1.0000 0.26170  0.89370  0.19550  Biso   1.000  C
  C108     1.0000 0.31180  0.90070  0.25370  Biso   1.000  C
  I27      1.0000 0.65075  0.57865  0.98578  Biso   1.000  I
  I28      1.0000 0.36845  0.31740  0.29960  Biso   1.000  I
  I29      1.0000 0.35711  0.31730  0.29530  Biso   1.000  I
  I30      1.0000 0.60630  0.72430  0.11250  Biso   1.000  I
  I31      1.0000 0.64924  0.61360  0.99740  Biso   1.000  I
  I32      1.0000 0.26600  0.26400  0.20290  Biso   1.000  I
  I33      1.0000 0.39430  0.78800  0.95540  Biso   1.000  I
  I34      1.0000 0.88396  0.26274  0.93965  Biso   1.000  I
  I35      1.0000 0.97889  0.34419  0.86602  Biso   1.000  I
  I36      1.0000 0.11087  0.22900  0.09806  Biso   1.000  I
  I37      1.0000 0.75658  0.77574  0.19000  Biso   1.000  I
  Zn10     1.0000 0.92090  0.37604  0.90206  Biso   1.000  Zn
  Zn11     1.0000 0.12907  0.08990  0.06190  Biso   1.000  Zn
  Zn12     1.0000 0.82204  0.85022  0.22175  Biso   1.000  Zn
  N37      1.0000 0.93390  0.48320  0.94520  Biso   1.000  N
  N38      1.0000 0.08330  0.00250  0.05830  Biso   1.000  N
  N39      1.0000 0.85730  0.83370  0.17540  Biso   1.000  N
  N40      1.0000 0.96310  0.84920  0.08570  Biso   1.000  N
  N41      1.0000 0.97910  0.76970  0.02440  Biso   1.000  N
  N42      1.0000 0.92510  0.72390  0.05580  Biso   1.000  N
  N43      1.0000 0.88250  0.55140  0.35510  Biso   1.000  N
  N44      1.0000 0.67170  0.52530  0.10680  Biso   1.000  N
  N45      1.0000 0.81370  0.98770  0.21890  Biso   1.000  N
  N46      1.0000 0.82070  0.31570  0.24890  Biso   1.000  N
  N47      1.0000 0.76730  0.30450  0.18990  Biso   1.000  N
  N48      1.0000 0.78190  0.44310  0.22780  Biso   1.000  N
  C109     1.0000 0.06480  0.96620  0.02030  Biso   1.000  C
  H73      1.0000 0.07420  0.97850  0.99460  Biso   1.000  H
  C110     1.0000 0.03270  0.91160  0.01710  Biso   1.000  C
  H74      1.0000 0.02050  0.88840  0.99000  Biso   1.000  H
  C111     1.0000 0.01910  0.89230  0.05620  Biso   1.000  C
  C112     1.0000 0.03840  0.92670  0.09520  Biso   1.000  C
  H75      1.0000 0.02970  0.91490  0.12150  Biso   1.000  H
  C113     1.0000 0.07130  0.98010  0.09570  Biso   1.000  C
  H76      1.0000 0.08520  0.00040  0.12270  Biso   1.000  H
  C114     1.0000 0.94390  0.63560  0.99840  Biso   1.000  C
  C115     1.0000 0.97160  0.60950  0.97410  Biso   1.000  C
  H77      1.0000 0.99430  0.64270  0.97540  Biso   1.000  H
  C116     1.0000 0.96540  0.53500  0.94840  Biso   1.000  C
  H78      1.0000 0.98410  0.51920  0.93200  Biso   1.000  H
  C117     1.0000 0.90640  0.50840  0.96890  Biso   1.000  C
  H79      1.0000 0.88420  0.47360  0.96720  Biso   1.000  H
  C118     1.0000 0.91050  0.58410  0.99540  Biso   1.000  C
  H80      1.0000 0.89110  0.60030  0.01090  Biso   1.000  H
  C119     1.0000 0.90720  0.80710  0.11570  Biso   1.000  C
  C120     1.0000 0.86990  0.76840  0.10940  Biso   1.000  C
  H81      1.0000 0.86150  0.73160  0.08510  Biso   1.000  H
  C121     1.0000 0.84620  0.78470  0.13870  Biso   1.000  C
  H82      1.0000 0.82120  0.76080  0.13320  Biso   1.000  H
  C122     1.0000 0.89280  0.87050  0.18250  Biso   1.000  C
  H83      1.0000 0.90070  0.90500  0.20780  Biso   1.000  H
  C123     1.0000 0.91800  0.85850  0.15350  Biso   1.000  C
  H84      1.0000 0.94240  0.88510  0.15940  Biso   1.000  H
  C124     1.0000 0.93300  0.79340  0.08380  Biso   1.000  C
  C125     1.0000 0.94920  0.71430  0.02770  Biso   1.000  C
  C126     1.0000 0.98520  0.83390  0.05530  Biso   1.000  C
  C127     1.0000 0.83600  0.45420  0.28910  Biso   1.000  C
  C128     1.0000 0.87270  0.42180  0.30930  Biso   1.000  C
  H85      1.0000 0.88210  0.36750  0.30090  Biso   1.000  H
  C129     1.0000 0.89410  0.47390  0.34200  Biso   1.000  C
  H86      1.0000 0.91840  0.45290  0.35570  Biso   1.000  H
  C130     1.0000 0.84730  0.58220  0.33520  Biso   1.000  C
  H87      1.0000 0.83880  0.63710  0.34400  Biso   1.000  H
  C131     1.0000 0.82400  0.53510  0.30240  Biso   1.000  C
  H88      1.0000 0.79990  0.55810  0.28910  Biso   1.000  H
  C132     1.0000 0.73050  0.43840  0.16410  Biso   1.000  C
  C133     1.0000 0.72240  0.52820  0.17050  Biso   1.000  C
  H89      1.0000 0.73680  0.56010  0.19400  Biso   1.000  H
  C134     1.0000 0.69280  0.56880  0.14170  Biso   1.000  C
  H90      1.0000 0.68700  0.62840  0.14630  Biso   1.000  H
  C135     1.0000 0.67980  0.44050  0.09990  Biso   1.000  C
  H91      1.0000 0.66560  0.41100  0.07540  Biso   1.000  H
  C136     1.0000 0.70870  0.39430  0.12800  Biso   1.000  C
  H92      1.0000 0.71350  0.33450  0.12280  Biso   1.000  H
  C137     1.0000 0.80360  0.17240  0.21700  Biso   1.000  C
  C138     1.0000 0.77950  0.11780  0.18690  Biso   1.000  C
  H93      1.0000 0.75960  0.14210  0.16590  Biso   1.000  H
  C139     1.0000 0.78600  0.02610  0.18900  Biso   1.000  C
  H94      1.0000 0.77030  0.98960  0.16850  Biso   1.000  H
  C140     1.0000 0.83620  0.04050  0.24780  Biso   1.000  C
  H95      1.0000 0.85550  0.01400  0.26880  Biso   1.000  H
  C141     1.0000 0.83240  0.13330  0.24840  Biso   1.000  C
  H96      1.0000 0.84870  0.16800  0.26910  Biso   1.000  H
  C142     1.0000 0.79700  0.27050  0.21850  Biso   1.000  C
  C143     1.0000 0.76170  0.39370  0.19550  Biso   1.000  C
  C144     1.0000 0.81180  0.40070  0.25370  Biso   1.000  C
  I38      1.0000 0.15075  0.07865  0.98578  Biso   1.000  I
  I39      1.0000 0.86845  0.81740  0.29960  Biso   1.000  I
  I40      1.0000 0.85711  0.81730  0.29530  Biso   1.000  I
  I41      1.0000 0.10630  0.22430  0.11250  Biso   1.000  I
  I42      1.0000 0.14924  0.11360  0.99740  Biso   1.000  I
  I43      1.0000 0.76600  0.76400  0.20290  Biso   1.000  I
  I44      1.0000 0.89430  0.28800  0.95540  Biso   1.000  I
  I45      1.0000 0.61604  0.23726  0.06035  Biso   1.000  I
  I46      1.0000 0.52111  0.15581  0.13398  Biso   1.000  I
  I47      1.0000 0.38913  0.27100  0.90194  Biso   1.000  I
  I48      1.0000 0.74342  0.72426  0.81000  Biso   1.000  I
  Zn13     1.0000 0.57910  0.12396  0.09794  Biso   1.000  Zn
  Zn14     1.0000 0.37093  0.41010  0.93810  Biso   1.000  Zn
  Zn15     1.0000 0.67796  0.64978  0.77825  Biso   1.000  Zn
  N49      1.0000 0.56610  0.01680  0.05480  Biso   1.000  N
  N50      1.0000 0.41670  0.49750  0.94170  Biso   1.000  N
  N51      1.0000 0.64270  0.66630  0.82460  Biso   1.000  N
  N52      1.0000 0.53690  0.65080  0.91430  Biso   1.000  N
  N53      1.0000 0.52090  0.73030  0.97560  Biso   1.000  N
  N54      1.0000 0.57490  0.77610  0.94420  Biso   1.000  N
  N55      1.0000 0.61750  0.94860  0.64490  Biso   1.000  N
  N56      1.0000 0.82830  0.97470  0.89320  Biso   1.000  N
  N57      1.0000 0.68630  0.51230  0.78110  Biso   1.000  N
  N58      1.0000 0.67930  0.18430  0.75110  Biso   1.000  N
  N59      1.0000 0.73270  0.19550  0.81010  Biso   1.000  N
  N60      1.0000 0.71810  0.05690  0.77220  Biso   1.000  N
  C145     1.0000 0.43520  0.53380  0.97970  Biso   1.000  C
  H97      1.0000 0.42580  0.52150  0.00540  Biso   1.000  H
  C146     1.0000 0.46730  0.58840  0.98290  Biso   1.000  C
  H98      1.0000 0.47950  0.61160  0.01000  Biso   1.000  H
  C147     1.0000 0.48090  0.60770  0.94380  Biso   1.000  C
  C148     1.0000 0.46160  0.57330  0.90480  Biso   1.000  C
  H99      1.0000 0.47030  0.58510  0.87850  Biso   1.000  H
  C149     1.0000 0.42870  0.51990  0.90430  Biso   1.000  C
  H100     1.0000 0.41480  0.49960  0.87730  Biso   1.000  H
  C150     1.0000 0.55610  0.86440  0.00160  Biso   1.000  C
  C151     1.0000 0.52840  0.89050  0.02590  Biso   1.000  C
  H101     1.0000 0.50570  0.85730  0.02460  Biso   1.000  H
  C152     1.0000 0.53460  0.96500  0.05160  Biso   1.000  C
  H102     1.0000 0.51590  0.98080  0.06800  Biso   1.000  H
  C153     1.0000 0.59360  0.99160  0.03110  Biso   1.000  C
  H103     1.0000 0.61580  0.02640  0.03280  Biso   1.000  H
  C154     1.0000 0.58950  0.91590  0.00460  Biso   1.000  C
  H104     1.0000 0.60890  0.89970  0.98910  Biso   1.000  H
  C155     1.0000 0.59280  0.69290  0.88430  Biso   1.000  C
  C156     1.0000 0.63010  0.73160  0.89060  Biso   1.000  C
  H105     1.0000 0.63850  0.76840  0.91490  Biso   1.000  H
  C157     1.0000 0.65380  0.71530  0.86130  Biso   1.000  C
  H106     1.0000 0.67880  0.73920  0.86680  Biso   1.000  H
  C158     1.0000 0.60720  0.62950  0.81750  Biso   1.000  C
  H107     1.0000 0.59930  0.59500  0.79220  Biso   1.000  H
  C159     1.0000 0.58200  0.64150  0.84650  Biso   1.000  C
  H108     1.0000 0.55760  0.61490  0.84060  Biso   1.000  H
  C160     1.0000 0.56700  0.70660  0.91620  Biso   1.000  C
  C161     1.0000 0.55080  0.78570  0.97230  Biso   1.000  C
  C162     1.0000 0.51480  0.66610  0.94470  Biso   1.000  C
  C163     1.0000 0.66400  0.04580  0.71090  Biso   1.000  C
  C164     1.0000 0.62730  0.07820  0.69070  Biso   1.000  C
  H109     1.0000 0.61790  0.13250  0.69910  Biso   1.000  H
  C165     1.0000 0.60590  0.02610  0.65800  Biso   1.000  C
  H110     1.0000 0.58160  0.04710  0.64430  Biso   1.000  H
  C166     1.0000 0.65270  0.91780  0.66480  Biso   1.000  C
  H111     1.0000 0.66120  0.86290  0.65600  Biso   1.000  H
  C167     1.0000 0.67600  0.96490  0.69760  Biso   1.000  C
  H112     1.0000 0.70010  0.94190  0.71090  Biso   1.000  H
  C168     1.0000 0.76950  0.06160  0.83590  Biso   1.000  C
  C169     1.0000 0.77760  0.97180  0.82950  Biso   1.000  C
  H113     1.0000 0.76320  0.93990  0.80600  Biso   1.000  H
  C170     1.0000 0.80720  0.93120  0.85830  Biso   1.000  C
  H114     1.0000 0.81300  0.87160  0.85370  Biso   1.000  H
  C171     1.0000 0.82020  0.05950  0.90010  Biso   1.000  C
  H115     1.0000 0.83440  0.08900  0.92460  Biso   1.000  H
  C172     1.0000 0.79130  0.10570  0.87200  Biso   1.000  C
  H116     1.0000 0.78650  0.16550  0.87720  Biso   1.000  H
  C173     1.0000 0.69640  0.32760  0.78300  Biso   1.000  C
  C174     1.0000 0.72050  0.38220  0.81310  Biso   1.000  C
  H117     1.0000 0.74040  0.35790  0.83410  Biso   1.000  H
  C175     1.0000 0.71400  0.47390  0.81100  Biso   1.000  C
  H118     1.0000 0.72970  0.51040  0.83150  Biso   1.000  H
  C176     1.0000 0.66380  0.45950  0.75220  Biso   1.000  C
  H119     1.0000 0.64450  0.48600  0.73120  Biso   1.000  H
  C177     1.0000 0.66760  0.36670  0.75160  Biso   1.000  C
  H120     1.0000 0.65130  0.33200  0.73090  Biso   1.000  H
  C178     1.0000 0.70300  0.22950  0.78150  Biso   1.000  C
  C179     1.0000 0.73830  0.10630  0.80450  Biso   1.000  C
  C180     1.0000 0.68820  0.09930  0.74630  Biso   1.000  C
  I49      1.0000 0.34925  0.42135  0.01422  Biso   1.000  I
  I50      1.0000 0.63155  0.68260  0.70040  Biso   1.000  I
  I51      1.0000 0.64289  0.68270  0.70470  Biso   1.000  I
  I52      1.0000 0.39370  0.27570  0.88750  Biso   1.000  I
  I53      1.0000 0.35076  0.38640  0.00260  Biso   1.000  I
  I54      1.0000 0.73400  0.73600  0.79710  Biso   1.000  I
  I55      1.0000 0.60570  0.21200  0.04460  Biso   1.000  I
  I56      1.0000 0.11604  0.73726  0.06035  Biso   1.000  I
  I57      1.0000 0.02111  0.65581  0.13398  Biso   1.000  I
  I58      1.0000 0.88913  0.77100  0.90194  Biso   1.000  I
  I59      1.0000 0.24342  0.22426  0.81000  Biso   1.000  I
  Zn16     1.0000 0.07910  0.62396  0.09794  Biso   1.000  Zn
  Zn17     1.0000 0.87093  0.91010  0.93810  Biso   1.000  Zn
  Zn18     1.0000 0.17796  0.14978  0.77825  Biso   1.000  Zn
  N61      1.0000 0.06610  0.51680  0.05480  Biso   1.000  N
  N62      1.0000 0.91670  0.99750  0.94170  Biso   1.000  N
  N63      1.0000 0.14270  0.16630  0.82460  Biso   1.000  N
  N64      1.0000 0.03690  0.15080  0.91430  Biso   1.000  N
  N65      1.0000 0.02090  0.23030  0.97560  Biso   1.000  N
  N66      1.0000 0.07490  0.27610  0.94420  Biso   1.000  N
  N67      1.0000 0.11750  0.44860  0.64490  Biso   1.000  N
  N68      1.0000 0.32830  0.47470  0.89320  Biso   1.000  N
  N69      1.0000 0.18630  0.01230  0.78110  Biso   1.000  N
  N70      1.0000 0.17930  0.68430  0.75110  Biso   1.000  N
  N71      1.0000 0.23270  0.69550  0.81010  Biso   1.000  N
  N72      1.0000 0.21810  0.55690  0.77220  Biso   1.000  N
  C181     1.0000 0.93520  0.03380  0.97970  Biso   1.000  C
  H121     1.0000 0.92580  0.02150  0.00540  Biso   1.000  H
  C182     1.0000 0.96730  0.08840  0.98290  Biso   1.000  C
  H122     1.0000 0.97950  0.11160  0.01000  Biso   1.000  H
  C183     1.0000 0.98090  0.10770  0.94380  Biso   1.000  C
  C184     1.0000 0.96160  0.07330  0.90480  Biso   1.000  C
  H123     1.0000 0.97030  0.08510  0.87850  Biso   1.000  H
  C185     1.0000 0.92870  0.01990  0.90430  Biso   1.000  C
  H124     1.0000 0.91480  0.99960  0.87730  Biso   1.000  H
  C186     1.0000 0.05610  0.36440  0.00160  Biso   1.000  C
  C187     1.0000 0.02840  0.39050  0.02590  Biso   1.000  C
  H125     1.0000 0.00570  0.35730  0.02460  Biso   1.000  H
  C188     1.0000 0.03460  0.46500  0.05160  Biso   1.000  C
  H126     1.0000 0.01590  0.48080  0.06800  Biso   1.000  H
  C189     1.0000 0.09360  0.49160  0.03110  Biso   1.000  C
  H127     1.0000 0.11580  0.52640  0.03280  Biso   1.000  H
  C190     1.0000 0.08950  0.41590  0.00460  Biso   1.000  C
  H128     1.0000 0.10890  0.39970  0.98910  Biso   1.000  H
  C191     1.0000 0.09280  0.19290  0.88430  Biso   1.000  C
  C192     1.0000 0.13010  0.23160  0.89060  Biso   1.000  C
  H129     1.0000 0.13850  0.26840  0.91490  Biso   1.000  H
  C193     1.0000 0.15380  0.21530  0.86130  Biso   1.000  C
  H130     1.0000 0.17880  0.23920  0.86680  Biso   1.000  H
  C194     1.0000 0.10720  0.12950  0.81750  Biso   1.000  C
  H131     1.0000 0.09930  0.09500  0.79220  Biso   1.000  H
  C195     1.0000 0.08200  0.14150  0.84650  Biso   1.000  C
  H132     1.0000 0.05760  0.11490  0.84060  Biso   1.000  H
  C196     1.0000 0.06700  0.20660  0.91620  Biso   1.000  C
  C197     1.0000 0.05080  0.28570  0.97230  Biso   1.000  C
  C198     1.0000 0.01480  0.16610  0.94470  Biso   1.000  C
  C199     1.0000 0.16400  0.54580  0.71090  Biso   1.000  C
  C200     1.0000 0.12730  0.57820  0.69070  Biso   1.000  C
  H133     1.0000 0.11790  0.63250  0.69910  Biso   1.000  H
  C201     1.0000 0.10590  0.52610  0.65800  Biso   1.000  C
  H134     1.0000 0.08160  0.54710  0.64430  Biso   1.000  H
  C202     1.0000 0.15270  0.41780  0.66480  Biso   1.000  C
  H135     1.0000 0.16120  0.36290  0.65600  Biso   1.000  H
  C203     1.0000 0.17600  0.46490  0.69760  Biso   1.000  C
  H136     1.0000 0.20010  0.44190  0.71090  Biso   1.000  H
  C204     1.0000 0.26950  0.56160  0.83590  Biso   1.000  C
  C205     1.0000 0.27760  0.47180  0.82950  Biso   1.000  C
  H137     1.0000 0.26320  0.43990  0.80600  Biso   1.000  H
  C206     1.0000 0.30720  0.43120  0.85830  Biso   1.000  C
  H138     1.0000 0.31300  0.37160  0.85370  Biso   1.000  H
  C207     1.0000 0.32020  0.55950  0.90010  Biso   1.000  C
  H139     1.0000 0.33440  0.58900  0.92460  Biso   1.000  H
  C208     1.0000 0.29130  0.60570  0.87200  Biso   1.000  C
  H140     1.0000 0.28650  0.66550  0.87720  Biso   1.000  H
  C209     1.0000 0.19640  0.82760  0.78300  Biso   1.000  C
  C210     1.0000 0.22050  0.88220  0.81310  Biso   1.000  C
  H141     1.0000 0.24040  0.85790  0.83410  Biso   1.000  H
  C211     1.0000 0.21400  0.97390  0.81100  Biso   1.000  C
  H142     1.0000 0.22970  0.01040  0.83150  Biso   1.000  H
  C212     1.0000 0.16380  0.95950  0.75220  Biso   1.000  C
  H143     1.0000 0.14450  0.98600  0.73120  Biso   1.000  H
  C213     1.0000 0.16760  0.86670  0.75160  Biso   1.000  C
  H144     1.0000 0.15130  0.83200  0.73090  Biso   1.000  H
  C214     1.0000 0.20300  0.72950  0.78150  Biso   1.000  C
  C215     1.0000 0.23830  0.60630  0.80450  Biso   1.000  C
  C216     1.0000 0.18820  0.59930  0.74630  Biso   1.000  C
  I60      1.0000 0.84925  0.92135  0.01422  Biso   1.000  I
  I61      1.0000 0.13155  0.18260  0.70040  Biso   1.000  I
  I62      1.0000 0.14289  0.18270  0.70470  Biso   1.000  I
  I63      1.0000 0.89370  0.77570  0.88750  Biso   1.000  I
  I64      1.0000 0.85076  0.88640  0.00260  Biso   1.000  I
  I65      1.0000 0.23400  0.23600  0.79710  Biso   1.000  I
  I66      1.0000 0.10570  0.71200  0.04460  Biso   1.000  I
  I67      1.0000 0.61604  0.76274  0.56035  Biso   1.000  I
  I68      1.0000 0.52111  0.84419  0.63398  Biso   1.000  I
  I69      1.0000 0.38913  0.72900  0.40194  Biso   1.000  I
  I70      1.0000 0.74342  0.27574  0.31000  Biso   1.000  I
  Zn19     1.0000 0.57910  0.87604  0.59794  Biso   1.000  Zn
  Zn20     1.0000 0.37093  0.58990  0.43810  Biso   1.000  Zn
  Zn21     1.0000 0.67796  0.35022  0.27825  Biso   1.000  Zn
  N73      1.0000 0.56610  0.98320  0.55480  Biso   1.000  N
  N74      1.0000 0.41670  0.50250  0.44170  Biso   1.000  N
  N75      1.0000 0.64270  0.33370  0.32460  Biso   1.000  N
  N76      1.0000 0.53690  0.34920  0.41430  Biso   1.000  N
  N77      1.0000 0.52090  0.26970  0.47560  Biso   1.000  N
  N78      1.0000 0.57490  0.22390  0.44420  Biso   1.000  N
  N79      1.0000 0.61750  0.05140  0.14490  Biso   1.000  N
  N80      1.0000 0.82830  0.02530  0.39320  Biso   1.000  N
  N81      1.0000 0.68630  0.48770  0.28110  Biso   1.000  N
  N82      1.0000 0.67930  0.81570  0.25110  Biso   1.000  N
  N83      1.0000 0.73270  0.80450  0.31010  Biso   1.000  N
  N84      1.0000 0.71810  0.94310  0.27220  Biso   1.000  N
  C217     1.0000 0.43520  0.46620  0.47970  Biso   1.000  C
  H145     1.0000 0.42580  0.47850  0.50540  Biso   1.000  H
  C218     1.0000 0.46730  0.41160  0.48290  Biso   1.000  C
  H146     1.0000 0.47950  0.38840  0.51000  Biso   1.000  H
  C219     1.0000 0.48090  0.39230  0.44380  Biso   1.000  C
  C220     1.0000 0.46160  0.42670  0.40480  Biso   1.000  C
  H147     1.0000 0.47030  0.41490  0.37850  Biso   1.000  H
  C221     1.0000 0.42870  0.48010  0.40430  Biso   1.000  C
  H148     1.0000 0.41480  0.50040  0.37730  Biso   1.000  H
  C222     1.0000 0.55610  0.13560  0.50160  Biso   1.000  C
  C223     1.0000 0.52840  0.10950  0.52590  Biso   1.000  C
  H149     1.0000 0.50570  0.14270  0.52460  Biso   1.000  H
  C224     1.0000 0.53460  0.03500  0.55160  Biso   1.000  C
  H150     1.0000 0.51590  0.01920  0.56800  Biso   1.000  H
  C225     1.0000 0.59360  0.00840  0.53110  Biso   1.000  C
  H151     1.0000 0.61580  0.97360  0.53280  Biso   1.000  H
  C226     1.0000 0.58950  0.08410  0.50460  Biso   1.000  C
  H152     1.0000 0.60890  0.10030  0.48910  Biso   1.000  H
  C227     1.0000 0.59280  0.30710  0.38430  Biso   1.000  C
  C228     1.0000 0.63010  0.26840  0.39060  Biso   1.000  C
  H153     1.0000 0.63850  0.23160  0.41490  Biso   1.000  H
  C229     1.0000 0.65380  0.28470  0.36130  Biso   1.000  C
  H154     1.0000 0.67880  0.26080  0.36680  Biso   1.000  H
  C230     1.0000 0.60720  0.37050  0.31750  Biso   1.000  C
  H155     1.0000 0.59930  0.40500  0.29220  Biso   1.000  H
  C231     1.0000 0.58200  0.35850  0.34650  Biso   1.000  C
  H156     1.0000 0.55760  0.38510  0.34060  Biso   1.000  H
  C232     1.0000 0.56700  0.29340  0.41620  Biso   1.000  C
  C233     1.0000 0.55080  0.21430  0.47230  Biso   1.000  C
  C234     1.0000 0.51480  0.33390  0.44470  Biso   1.000  C
  C235     1.0000 0.66400  0.95420  0.21090  Biso   1.000  C
  C236     1.0000 0.62730  0.92180  0.19070  Biso   1.000  C
  H157     1.0000 0.61790  0.86750  0.19910  Biso   1.000  H
  C237     1.0000 0.60590  0.97390  0.15800  Biso   1.000  C
  H158     1.0000 0.58160  0.95290  0.14430  Biso   1.000  H
  C238     1.0000 0.65270  0.08220  0.16480  Biso   1.000  C
  H159     1.0000 0.66120  0.13710  0.15600  Biso   1.000  H
  C239     1.0000 0.67600  0.03510  0.19760  Biso   1.000  C
  H160     1.0000 0.70010  0.05810  0.21090  Biso   1.000  H
  C240     1.0000 0.76950  0.93840  0.33590  Biso   1.000  C
  C241     1.0000 0.77760  0.02820  0.32950  Biso   1.000  C
  H161     1.0000 0.76320  0.06010  0.30600  Biso   1.000  H
  C242     1.0000 0.80720  0.06880  0.35830  Biso   1.000  C
  H162     1.0000 0.81300  0.12840  0.35370  Biso   1.000  H
  C243     1.0000 0.82020  0.94050  0.40010  Biso   1.000  C
  H163     1.0000 0.83440  0.91100  0.42460  Biso   1.000  H
  C244     1.0000 0.79130  0.89430  0.37200  Biso   1.000  C
  H164     1.0000 0.78650  0.83450  0.37720  Biso   1.000  H
  C245     1.0000 0.69640  0.67240  0.28300  Biso   1.000  C
  C246     1.0000 0.72050  0.61780  0.31310  Biso   1.000  C
  H165     1.0000 0.74040  0.64210  0.33410  Biso   1.000  H
  C247     1.0000 0.71400  0.52610  0.31100  Biso   1.000  C
  H166     1.0000 0.72970  0.48960  0.33150  Biso   1.000  H
  C248     1.0000 0.66380  0.54050  0.25220  Biso   1.000  C
  H167     1.0000 0.64450  0.51400  0.23120  Biso   1.000  H
  C249     1.0000 0.66760  0.63330  0.25160  Biso   1.000  C
  H168     1.0000 0.65130  0.66800  0.23090  Biso   1.000  H
  C250     1.0000 0.70300  0.77050  0.28150  Biso   1.000  C
  C251     1.0000 0.73830  0.89370  0.30450  Biso   1.000  C
  C252     1.0000 0.68820  0.90070  0.24630  Biso   1.000  C
  I71      1.0000 0.34925  0.57865  0.51422  Biso   1.000  I
  I72      1.0000 0.63155  0.31740  0.20040  Biso   1.000  I
  I73      1.0000 0.64289  0.31730  0.20470  Biso   1.000  I
  I74      1.0000 0.39370  0.72430  0.38750  Biso   1.000  I
  I75      1.0000 0.35076  0.61360  0.50260  Biso   1.000  I
  I76      1.0000 0.73400  0.26400  0.29710  Biso   1.000  I
  I77      1.0000 0.60570  0.78800  0.54460  Biso   1.000  I
  I78      1.0000 0.11604  0.26274  0.56035  Biso   1.000  I
  I79      1.0000 0.02111  0.34419  0.63398  Biso   1.000  I
  I80      1.0000 0.88913  0.22900  0.40194  Biso   1.000  I
  I81      1.0000 0.24342  0.77574  0.31000  Biso   1.000  I
  Zn22     1.0000 0.07910  0.37604  0.59794  Biso   1.000  Zn
  Zn23     1.0000 0.87093  0.08990  0.43810  Biso   1.000  Zn
  Zn24     1.0000 0.17796  0.85022  0.27825  Biso   1.000  Zn
  N85      1.0000 0.06610  0.48320  0.55480  Biso   1.000  N
  N86      1.0000 0.91670  0.00250  0.44170  Biso   1.000  N
  N87      1.0000 0.14270  0.83370  0.32460  Biso   1.000  N
  N88      1.0000 0.03690  0.84920  0.41430  Biso   1.000  N
  N89      1.0000 0.02090  0.76970  0.47560  Biso   1.000  N
  N90      1.0000 0.07490  0.72390  0.44420  Biso   1.000  N
  N91      1.0000 0.11750  0.55140  0.14490  Biso   1.000  N
  N92      1.0000 0.32830  0.52530  0.39320  Biso   1.000  N
  N93      1.0000 0.18630  0.98770  0.28110  Biso   1.000  N
  N94      1.0000 0.17930  0.31570  0.25110  Biso   1.000  N
  N95      1.0000 0.23270  0.30450  0.31010  Biso   1.000  N
  N96      1.0000 0.21810  0.44310  0.27220  Biso   1.000  N
  C253     1.0000 0.93520  0.96620  0.47970  Biso   1.000  C
  H169     1.0000 0.92580  0.97850  0.50540  Biso   1.000  H
  C254     1.0000 0.96730  0.91160  0.48290  Biso   1.000  C
  H170     1.0000 0.97950  0.88840  0.51000  Biso   1.000  H
  C255     1.0000 0.98090  0.89230  0.44380  Biso   1.000  C
  C256     1.0000 0.96160  0.92670  0.40480  Biso   1.000  C
  H171     1.0000 0.97030  0.91490  0.37850  Biso   1.000  H
  C257     1.0000 0.92870  0.98010  0.40430  Biso   1.000  C
  H172     1.0000 0.91480  0.00040  0.37730  Biso   1.000  H
  C258     1.0000 0.05610  0.63560  0.50160  Biso   1.000  C
  C259     1.0000 0.02840  0.60950  0.52590  Biso   1.000  C
  H173     1.0000 0.00570  0.64270  0.52460  Biso   1.000  H
  C260     1.0000 0.03460  0.53500  0.55160  Biso   1.000  C
  H174     1.0000 0.01590  0.51920  0.56800  Biso   1.000  H
  C261     1.0000 0.09360  0.50840  0.53110  Biso   1.000  C
  H175     1.0000 0.11580  0.47360  0.53280  Biso   1.000  H
  C262     1.0000 0.08950  0.58410  0.50460  Biso   1.000  C
  H176     1.0000 0.10890  0.60030  0.48910  Biso   1.000  H
  C263     1.0000 0.09280  0.80710  0.38430  Biso   1.000  C
  C264     1.0000 0.13010  0.76840  0.39060  Biso   1.000  C
  H177     1.0000 0.13850  0.73160  0.41490  Biso   1.000  H
  C265     1.0000 0.15380  0.78470  0.36130  Biso   1.000  C
  H178     1.0000 0.17880  0.76080  0.36680  Biso   1.000  H
  C266     1.0000 0.10720  0.87050  0.31750  Biso   1.000  C
  H179     1.0000 0.09930  0.90500  0.29220  Biso   1.000  H
  C267     1.0000 0.08200  0.85850  0.34650  Biso   1.000  C
  H180     1.0000 0.05760  0.88510  0.34060  Biso   1.000  H
  C268     1.0000 0.06700  0.79340  0.41620  Biso   1.000  C
  C269     1.0000 0.05080  0.71430  0.47230  Biso   1.000  C
  C270     1.0000 0.01480  0.83390  0.44470  Biso   1.000  C
  C271     1.0000 0.16400  0.45420  0.21090  Biso   1.000  C
  C272     1.0000 0.12730  0.42180  0.19070  Biso   1.000  C
  H181     1.0000 0.11790  0.36750  0.19910  Biso   1.000  H
  C273     1.0000 0.10590  0.47390  0.15800  Biso   1.000  C
  H182     1.0000 0.08160  0.45290  0.14430  Biso   1.000  H
  C274     1.0000 0.15270  0.58220  0.16480  Biso   1.000  C
  H183     1.0000 0.16120  0.63710  0.15600  Biso   1.000  H
  C275     1.0000 0.17600  0.53510  0.19760  Biso   1.000  C
  H184     1.0000 0.20010  0.55810  0.21090  Biso   1.000  H
  C276     1.0000 0.26950  0.43840  0.33590  Biso   1.000  C
  C277     1.0000 0.27760  0.52820  0.32950  Biso   1.000  C
  H185     1.0000 0.26320  0.56010  0.30600  Biso   1.000  H
  C278     1.0000 0.30720  0.56880  0.35830  Biso   1.000  C
  H186     1.0000 0.31300  0.62840  0.35370  Biso   1.000  H
  C279     1.0000 0.32020  0.44050  0.40010  Biso   1.000  C
  H187     1.0000 0.33440  0.41100  0.42460  Biso   1.000  H
  C280     1.0000 0.29130  0.39430  0.37200  Biso   1.000  C
  H188     1.0000 0.28650  0.33450  0.37720  Biso   1.000  H
  C281     1.0000 0.19640  0.17240  0.28300  Biso   1.000  C
  C282     1.0000 0.22050  0.11780  0.31310  Biso   1.000  C
  H189     1.0000 0.24040  0.14210  0.33410  Biso   1.000  H
  C283     1.0000 0.21400  0.02610  0.31100  Biso   1.000  C
  H190     1.0000 0.22970  0.98960  0.33150  Biso   1.000  H
  C284     1.0000 0.16380  0.04050  0.25220  Biso   1.000  C
  H191     1.0000 0.14450  0.01400  0.23120  Biso   1.000  H
  C285     1.0000 0.16760  0.13330  0.25160  Biso   1.000  C
  H192     1.0000 0.15130  0.16800  0.23090  Biso   1.000  H
  C286     1.0000 0.20300  0.27050  0.28150  Biso   1.000  C
  C287     1.0000 0.23830  0.39370  0.30450  Biso   1.000  C
  C288     1.0000 0.18820  0.40070  0.24630  Biso   1.000  C
  I82      1.0000 0.84925  0.07865  0.51422  Biso   1.000  I
  I83      1.0000 0.13155  0.81740  0.20040  Biso   1.000  I
  I84      1.0000 0.14289  0.81730  0.20470  Biso   1.000  I
  I85      1.0000 0.89370  0.22430  0.38750  Biso   1.000  I
  I86      1.0000 0.85076  0.11360  0.50260  Biso   1.000  I
  I87      1.0000 0.23400  0.76400  0.29710  Biso   1.000  I
  I88      1.0000 0.10570  0.28800  0.54460  Biso   1.000  I
