data_image0
_cell_length_a       34.7285
_cell_length_b       14.8592
_cell_length_c       30.9411
_cell_angle_alpha    90
_cell_angle_beta     101.514
_cell_angle_gamma    90

_symmetry_space_group_name_H-M    "P 1"
_symmetry_int_tables_number       1

loop_
  _symmetry_equiv_pos_as_xyz
  'x, y, z'

loop_
  _atom_site_label
  _atom_site_occupancy
  _atom_site_fract_x
  _atom_site_fract_y
  _atom_site_fract_z
  _atom_site_thermal_displace_type
  _atom_site_B_iso_or_equiv
  _atom_site_type_symbol
  I1       1.0000 0.52647  0.15177  0.13313  Biso   1.000  I
  I2       1.0000 0.62052  0.23941  0.05817  Biso   1.000  I
  I3       1.0000 0.88967  0.24065  0.40476  Biso   1.000  I
  I4       1.0000 0.85114  0.09016  0.51464  Biso   1.000  I
  I5       1.0000 0.74011  0.27388  0.30380  Biso   1.000  I
  Zn1      1.0000 0.58328  0.12495  0.09389  Biso   1.000  Zn
  Zn2      1.0000 0.87300  0.09726  0.44147  Biso   1.000  Zn
  Zn3      1.0000 0.67616  0.35521  0.27502  Biso   1.000  Zn
  N1       1.0000 0.72040  0.94950  0.27330  Biso   1.000  N
  N2       1.0000 0.68030  0.82220  0.25130  Biso   1.000  N
  N3       1.0000 0.73300  0.81080  0.31240  Biso   1.000  N
  N4       1.0000 0.62220  0.05350  0.14060  Biso   1.000  N
  N5       1.0000 0.68520  0.49270  0.28030  Biso   1.000  N
  N6       1.0000 0.53780  0.35170  0.41220  Biso   1.000  N
  N7       1.0000 0.57410  0.22040  0.43790  Biso   1.000  N
  N8       1.0000 0.83050  0.03320  0.39640  Biso   1.000  N
  N9       1.0000 0.52210  0.26880  0.47180  Biso   1.000  N
  N10      1.0000 0.56930  0.97970  0.54870  Biso   1.000  N
  N11      1.0000 0.64170  0.33650  0.32100  Biso   1.000  N
  C1       1.0000 0.69000  0.90670  0.24760  Biso   1.000  C
  C2       1.0000 0.66720  0.95950  0.21050  Biso   1.000  C
  C3       1.0000 0.70360  0.77700  0.28320  Biso   1.000  C
  N12      1.0000 0.42000  0.51200  0.44440  Biso   1.000  N
  C4       1.0000 0.51670  0.33600  0.44310  Biso   1.000  C
  C5       1.0000 0.55720  0.13030  0.49560  Biso   1.000  C
  C6       1.0000 0.77120  0.94560  0.33800  Biso   1.000  C
  C7       1.0000 0.69690  0.67770  0.28410  Biso   1.000  C
  C8       1.0000 0.48320  0.39740  0.44390  Biso   1.000  C
  C9       1.0000 0.67810  0.04500  0.19940  Biso   1.000  C
  H1       1.0000 0.70080  0.07180  0.21530  Biso   1.000  H
  C10      1.0000 0.55030  0.21120  0.46680  Biso   1.000  C
  C11      1.0000 0.53030  0.10740  0.52100  Biso   1.000  C
  H2       1.0000 0.50810  0.14250  0.52070  Biso   1.000  H
  C12      1.0000 0.56660  0.29210  0.41160  Biso   1.000  C
  C13      1.0000 0.73930  0.89980  0.30680  Biso   1.000  C
  C14      1.0000 0.81020  0.07490  0.36080  Biso   1.000  C
  H3       1.0000 0.81610  0.13450  0.35580  Biso   1.000  H
  C15      1.0000 0.78100  0.03320  0.33150  Biso   1.000  C
  H4       1.0000 0.76770  0.06450  0.30700  Biso   1.000  H
  C16      1.0000 0.46700  0.40540  0.47980  Biso   1.000  C
  H5       1.0000 0.47670  0.37120  0.50480  Biso   1.000  H
  C17      1.0000 0.65500  0.08950  0.16480  Biso   1.000  C
  H6       1.0000 0.66240  0.14710  0.15790  Biso   1.000  H
  C18      1.0000 0.66770  0.63980  0.25380  Biso   1.000  C
  H7       1.0000 0.65110  0.67590  0.23360  Biso   1.000  H
  C19      1.0000 0.53730  0.03070  0.54720  Biso   1.000  C
  H8       1.0000 0.51920  0.01440  0.56410  Biso   1.000  H
  C20      1.0000 0.72070  0.62150  0.31300  Biso   1.000  C
  H9       1.0000 0.74120  0.64470  0.33420  Biso   1.000  H
  C21      1.0000 0.71370  0.52960  0.31010  Biso   1.000  C
  H10      1.0000 0.72970  0.49180  0.32990  Biso   1.000  H
  C22      1.0000 0.66270  0.54750  0.25290  Biso   1.000  C
  H11      1.0000 0.64250  0.52300  0.23190  Biso   1.000  H
  C23      1.0000 0.79180  0.90100  0.37460  Biso   1.000  C
  H12      1.0000 0.78670  0.84100  0.38000  Biso   1.000  H
  C24      1.0000 0.43600  0.46460  0.47980  Biso   1.000  C
  H13      1.0000 0.42610  0.47110  0.50540  Biso   1.000  H
  C25      1.0000 0.59210  0.30680  0.38000  Biso   1.000  C
  C26      1.0000 0.58900  0.07650  0.49730  Biso   1.000  C
  H14      1.0000 0.60730  0.09060  0.48000  Biso   1.000  H
  C27      1.0000 0.63450  0.92140  0.18470  Biso   1.000  C
  H15      1.0000 0.62720  0.86280  0.18980  Biso   1.000  H
  C28      1.0000 0.62880  0.26610  0.38600  Biso   1.000  C
  H16      1.0000 0.63730  0.22840  0.41000  Biso   1.000  H
  C29      1.0000 0.59490  0.00200  0.52380  Biso   1.000  C
  H17      1.0000 0.61700  0.96650  0.52430  Biso   1.000  H
  C30      1.0000 0.58210  0.36400  0.34400  Biso   1.000  C
  H18      1.0000 0.55840  0.39500  0.33940  Biso   1.000  H
  C31      1.0000 0.82080  0.94980  0.40350  Biso   1.000  C
  H19      1.0000 0.83390  0.92150  0.42910  Biso   1.000  H
  C32      1.0000 0.61250  0.97170  0.15090  Biso   1.000  C
  H20      1.0000 0.58970  0.94630  0.13470  Biso   1.000  H
  C33      1.0000 0.60710  0.37490  0.31530  Biso   1.000  C
  H21      1.0000 0.59920  0.41120  0.29070  Biso   1.000  H
  C34      1.0000 0.65260  0.28260  0.35570  Biso   1.000  C
  H22      1.0000 0.67700  0.25480  0.35980  Biso   1.000  H
  C35      1.0000 0.43600  0.50150  0.40940  Biso   1.000  C
  H23      1.0000 0.42490  0.53340  0.38410  Biso   1.000  H
  C36      1.0000 0.46770  0.44760  0.40710  Biso   1.000  C
  H24      1.0000 0.47820  0.44510  0.38170  Biso   1.000  H
  I6       1.0000 0.64330  0.32060  0.20201  Biso   1.000  I
  I7       1.0000 0.62809  0.33410  0.19622  Biso   1.000  I
  I8       1.0000 0.02647  0.65177  0.13313  Biso   1.000  I
  I9       1.0000 0.12052  0.73941  0.05817  Biso   1.000  I
  I10      1.0000 0.38967  0.74065  0.40476  Biso   1.000  I
  I11      1.0000 0.35114  0.59016  0.51464  Biso   1.000  I
  I12      1.0000 0.24011  0.77388  0.30380  Biso   1.000  I
  Zn4      1.0000 0.08328  0.62495  0.09389  Biso   1.000  Zn
  Zn5      1.0000 0.37300  0.59726  0.44147  Biso   1.000  Zn
  Zn6      1.0000 0.17616  0.85521  0.27502  Biso   1.000  Zn
  N13      1.0000 0.22040  0.44950  0.27330  Biso   1.000  N
  N14      1.0000 0.18030  0.32220  0.25130  Biso   1.000  N
  N15      1.0000 0.23300  0.31080  0.31240  Biso   1.000  N
  N16      1.0000 0.12220  0.55350  0.14060  Biso   1.000  N
  N17      1.0000 0.18520  0.99270  0.28030  Biso   1.000  N
  N18      1.0000 0.03780  0.85170  0.41220  Biso   1.000  N
  N19      1.0000 0.07410  0.72040  0.43790  Biso   1.000  N
  N20      1.0000 0.33050  0.53320  0.39640  Biso   1.000  N
  N21      1.0000 0.02210  0.76880  0.47180  Biso   1.000  N
  N22      1.0000 0.06930  0.47970  0.54870  Biso   1.000  N
  N23      1.0000 0.14170  0.83650  0.32100  Biso   1.000  N
  C37      1.0000 0.19000  0.40670  0.24760  Biso   1.000  C
  C38      1.0000 0.16720  0.45950  0.21050  Biso   1.000  C
  C39      1.0000 0.20360  0.27700  0.28320  Biso   1.000  C
  N24      1.0000 0.92000  0.01200  0.44440  Biso   1.000  N
  C40      1.0000 0.01670  0.83600  0.44310  Biso   1.000  C
  C41      1.0000 0.05720  0.63030  0.49560  Biso   1.000  C
  C42      1.0000 0.27120  0.44560  0.33800  Biso   1.000  C
  C43      1.0000 0.19690  0.17770  0.28410  Biso   1.000  C
  C44      1.0000 0.98320  0.89740  0.44390  Biso   1.000  C
  C45      1.0000 0.17810  0.54500  0.19940  Biso   1.000  C
  H25      1.0000 0.20080  0.57180  0.21530  Biso   1.000  H
  C46      1.0000 0.05030  0.71120  0.46680  Biso   1.000  C
  C47      1.0000 0.03030  0.60740  0.52100  Biso   1.000  C
  H26      1.0000 0.00810  0.64250  0.52070  Biso   1.000  H
  C48      1.0000 0.06660  0.79210  0.41160  Biso   1.000  C
  C49      1.0000 0.23930  0.39980  0.30680  Biso   1.000  C
  C50      1.0000 0.31020  0.57490  0.36080  Biso   1.000  C
  H27      1.0000 0.31610  0.63450  0.35580  Biso   1.000  H
  C51      1.0000 0.28100  0.53320  0.33150  Biso   1.000  C
  H28      1.0000 0.26770  0.56450  0.30700  Biso   1.000  H
  C52      1.0000 0.96700  0.90540  0.47980  Biso   1.000  C
  H29      1.0000 0.97670  0.87120  0.50480  Biso   1.000  H
  C53      1.0000 0.15500  0.58950  0.16480  Biso   1.000  C
  H30      1.0000 0.16240  0.64710  0.15790  Biso   1.000  H
  C54      1.0000 0.16770  0.13980  0.25380  Biso   1.000  C
  H31      1.0000 0.15110  0.17590  0.23360  Biso   1.000  H
  C55      1.0000 0.03730  0.53070  0.54720  Biso   1.000  C
  H32      1.0000 0.01920  0.51440  0.56410  Biso   1.000  H
  C56      1.0000 0.22070  0.12150  0.31300  Biso   1.000  C
  H33      1.0000 0.24120  0.14470  0.33420  Biso   1.000  H
  C57      1.0000 0.21370  0.02960  0.31010  Biso   1.000  C
  H34      1.0000 0.22970  0.99180  0.32990  Biso   1.000  H
  C58      1.0000 0.16270  0.04750  0.25290  Biso   1.000  C
  H35      1.0000 0.14250  0.02300  0.23190  Biso   1.000  H
  C59      1.0000 0.29180  0.40100  0.37460  Biso   1.000  C
  H36      1.0000 0.28670  0.34100  0.38000  Biso   1.000  H
  C60      1.0000 0.93600  0.96460  0.47980  Biso   1.000  C
  H37      1.0000 0.92610  0.97110  0.50540  Biso   1.000  H
  C61      1.0000 0.09210  0.80680  0.38000  Biso   1.000  C
  C62      1.0000 0.08900  0.57650  0.49730  Biso   1.000  C
  H38      1.0000 0.10730  0.59060  0.48000  Biso   1.000  H
  C63      1.0000 0.13450  0.42140  0.18470  Biso   1.000  C
  H39      1.0000 0.12720  0.36280  0.18980  Biso   1.000  H
  C64      1.0000 0.12880  0.76610  0.38600  Biso   1.000  C
  H40      1.0000 0.13730  0.72840  0.41000  Biso   1.000  H
  C65      1.0000 0.09490  0.50200  0.52380  Biso   1.000  C
  H41      1.0000 0.11700  0.46650  0.52430  Biso   1.000  H
  C66      1.0000 0.08210  0.86400  0.34400  Biso   1.000  C
  H42      1.0000 0.05840  0.89500  0.33940  Biso   1.000  H
  C67      1.0000 0.32080  0.44980  0.40350  Biso   1.000  C
  H43      1.0000 0.33390  0.42150  0.42910  Biso   1.000  H
  C68      1.0000 0.11250  0.47170  0.15090  Biso   1.000  C
  H44      1.0000 0.08970  0.44630  0.13470  Biso   1.000  H
  C69      1.0000 0.10710  0.87490  0.31530  Biso   1.000  C
  H45      1.0000 0.09920  0.91120  0.29070  Biso   1.000  H
  C70      1.0000 0.15260  0.78260  0.35570  Biso   1.000  C
  H46      1.0000 0.17700  0.75480  0.35980  Biso   1.000  H
  C71      1.0000 0.93600  0.00150  0.40940  Biso   1.000  C
  H47      1.0000 0.92490  0.03340  0.38410  Biso   1.000  H
  C72      1.0000 0.96770  0.94760  0.40710  Biso   1.000  C
  H48      1.0000 0.97820  0.94510  0.38170  Biso   1.000  H
  I13      1.0000 0.14330  0.82060  0.20201  Biso   1.000  I
  I14      1.0000 0.12809  0.83410  0.19622  Biso   1.000  I
  I15      1.0000 0.52647  0.84823  0.63313  Biso   1.000  I
  I16      1.0000 0.62052  0.76059  0.55817  Biso   1.000  I
  I17      1.0000 0.88967  0.75935  0.90476  Biso   1.000  I
  I18      1.0000 0.85114  0.90984  0.01464  Biso   1.000  I
  I19      1.0000 0.74011  0.72612  0.80380  Biso   1.000  I
  Zn7      1.0000 0.58328  0.87505  0.59389  Biso   1.000  Zn
  Zn8      1.0000 0.87300  0.90274  0.94147  Biso   1.000  Zn
  Zn9      1.0000 0.67616  0.64479  0.77502  Biso   1.000  Zn
  N25      1.0000 0.72040  0.05050  0.77330  Biso   1.000  N
  N26      1.0000 0.68030  0.17780  0.75130  Biso   1.000  N
  N27      1.0000 0.73300  0.18920  0.81240  Biso   1.000  N
  N28      1.0000 0.62220  0.94650  0.64060  Biso   1.000  N
  N29      1.0000 0.68520  0.50730  0.78030  Biso   1.000  N
  N30      1.0000 0.53780  0.64830  0.91220  Biso   1.000  N
  N31      1.0000 0.57410  0.77960  0.93790  Biso   1.000  N
  N32      1.0000 0.83050  0.96680  0.89640  Biso   1.000  N
  N33      1.0000 0.52210  0.73120  0.97180  Biso   1.000  N
  N34      1.0000 0.56930  0.02030  0.04870  Biso   1.000  N
  N35      1.0000 0.64170  0.66350  0.82100  Biso   1.000  N
  C73      1.0000 0.69000  0.09330  0.74760  Biso   1.000  C
  C74      1.0000 0.66720  0.04050  0.71050  Biso   1.000  C
  C75      1.0000 0.70360  0.22300  0.78320  Biso   1.000  C
  N36      1.0000 0.42000  0.48800  0.94440  Biso   1.000  N
  C76      1.0000 0.51670  0.66400  0.94310  Biso   1.000  C
  C77      1.0000 0.55720  0.86970  0.99560  Biso   1.000  C
  C78      1.0000 0.77120  0.05440  0.83800  Biso   1.000  C
  C79      1.0000 0.69690  0.32230  0.78410  Biso   1.000  C
  C80      1.0000 0.48320  0.60260  0.94390  Biso   1.000  C
  C81      1.0000 0.67810  0.95500  0.69940  Biso   1.000  C
  H49      1.0000 0.70080  0.92820  0.71530  Biso   1.000  H
  C82      1.0000 0.55030  0.78880  0.96680  Biso   1.000  C
  C83      1.0000 0.53030  0.89260  0.02100  Biso   1.000  C
  H50      1.0000 0.50810  0.85750  0.02070  Biso   1.000  H
  C84      1.0000 0.56660  0.70790  0.91160  Biso   1.000  C
  C85      1.0000 0.73930  0.10020  0.80680  Biso   1.000  C
  C86      1.0000 0.81020  0.92510  0.86080  Biso   1.000  C
  H51      1.0000 0.81610  0.86550  0.85580  Biso   1.000  H
  C87      1.0000 0.78100  0.96680  0.83150  Biso   1.000  C
  H52      1.0000 0.76770  0.93550  0.80700  Biso   1.000  H
  C88      1.0000 0.46700  0.59460  0.97980  Biso   1.000  C
  H53      1.0000 0.47670  0.62880  0.00480  Biso   1.000  H
  C89      1.0000 0.65500  0.91050  0.66480  Biso   1.000  C
  H54      1.0000 0.66240  0.85290  0.65790  Biso   1.000  H
  C90      1.0000 0.66770  0.36020  0.75380  Biso   1.000  C
  H55      1.0000 0.65110  0.32410  0.73360  Biso   1.000  H
  C91      1.0000 0.53730  0.96930  0.04720  Biso   1.000  C
  H56      1.0000 0.51920  0.98560  0.06410  Biso   1.000  H
  C92      1.0000 0.72070  0.37850  0.81300  Biso   1.000  C
  H57      1.0000 0.74120  0.35530  0.83420  Biso   1.000  H
  C93      1.0000 0.71370  0.47040  0.81010  Biso   1.000  C
  H58      1.0000 0.72970  0.50820  0.82990  Biso   1.000  H
  C94      1.0000 0.66270  0.45250  0.75290  Biso   1.000  C
  H59      1.0000 0.64250  0.47700  0.73190  Biso   1.000  H
  C95      1.0000 0.79180  0.09900  0.87460  Biso   1.000  C
  H60      1.0000 0.78670  0.15900  0.88000  Biso   1.000  H
  C96      1.0000 0.43600  0.53540  0.97980  Biso   1.000  C
  H61      1.0000 0.42610  0.52890  0.00540  Biso   1.000  H
  C97      1.0000 0.59210  0.69320  0.88000  Biso   1.000  C
  C98      1.0000 0.58900  0.92350  0.99730  Biso   1.000  C
  H62      1.0000 0.60730  0.90940  0.98000  Biso   1.000  H
  C99      1.0000 0.63450  0.07860  0.68470  Biso   1.000  C
  H63      1.0000 0.62720  0.13720  0.68980  Biso   1.000  H
  C100     1.0000 0.62880  0.73390  0.88600  Biso   1.000  C
  H64      1.0000 0.63730  0.77160  0.91000  Biso   1.000  H
  C101     1.0000 0.59490  0.99800  0.02380  Biso   1.000  C
  H65      1.0000 0.61700  0.03350  0.02430  Biso   1.000  H
  C102     1.0000 0.58210  0.63600  0.84400  Biso   1.000  C
  H66      1.0000 0.55840  0.60500  0.83940  Biso   1.000  H
  C103     1.0000 0.82080  0.05020  0.90350  Biso   1.000  C
  H67      1.0000 0.83390  0.07850  0.92910  Biso   1.000  H
  C104     1.0000 0.61250  0.02830  0.65090  Biso   1.000  C
  H68      1.0000 0.58970  0.05370  0.63470  Biso   1.000  H
  C105     1.0000 0.60710  0.62510  0.81530  Biso   1.000  C
  H69      1.0000 0.59920  0.58880  0.79070  Biso   1.000  H
  C106     1.0000 0.65260  0.71740  0.85570  Biso   1.000  C
  H70      1.0000 0.67700  0.74520  0.85980  Biso   1.000  H
  C107     1.0000 0.43600  0.49850  0.90940  Biso   1.000  C
  H71      1.0000 0.42490  0.46660  0.88410  Biso   1.000  H
  C108     1.0000 0.46770  0.55240  0.90710  Biso   1.000  C
  H72      1.0000 0.47820  0.55490  0.88170  Biso   1.000  H
  I20      1.0000 0.64330  0.67940  0.70201  Biso   1.000  I
  I21      1.0000 0.62809  0.66590  0.69622  Biso   1.000  I
  I22      1.0000 0.02647  0.34823  0.63313  Biso   1.000  I
  I23      1.0000 0.12052  0.26059  0.55817  Biso   1.000  I
  I24      1.0000 0.38967  0.25935  0.90476  Biso   1.000  I
  I25      1.0000 0.35114  0.40984  0.01464  Biso   1.000  I
  I26      1.0000 0.24011  0.22612  0.80380  Biso   1.000  I
  Zn10     1.0000 0.08328  0.37505  0.59389  Biso   1.000  Zn
  Zn11     1.0000 0.37300  0.40274  0.94147  Biso   1.000  Zn
  Zn12     1.0000 0.17616  0.14479  0.77502  Biso   1.000  Zn
  N37      1.0000 0.22040  0.55050  0.77330  Biso   1.000  N
  N38      1.0000 0.18030  0.67780  0.75130  Biso   1.000  N
  N39      1.0000 0.23300  0.68920  0.81240  Biso   1.000  N
  N40      1.0000 0.12220  0.44650  0.64060  Biso   1.000  N
  N41      1.0000 0.18520  0.00730  0.78030  Biso   1.000  N
  N42      1.0000 0.03780  0.14830  0.91220  Biso   1.000  N
  N43      1.0000 0.07410  0.27960  0.93790  Biso   1.000  N
  N44      1.0000 0.33050  0.46680  0.89640  Biso   1.000  N
  N45      1.0000 0.02210  0.23120  0.97180  Biso   1.000  N
  N46      1.0000 0.06930  0.52030  0.04870  Biso   1.000  N
  N47      1.0000 0.14170  0.16350  0.82100  Biso   1.000  N
  C109     1.0000 0.19000  0.59330  0.74760  Biso   1.000  C
  C110     1.0000 0.16720  0.54050  0.71050  Biso   1.000  C
  C111     1.0000 0.20360  0.72300  0.78320  Biso   1.000  C
  N48      1.0000 0.92000  0.98800  0.94440  Biso   1.000  N
  C112     1.0000 0.01670  0.16400  0.94310  Biso   1.000  C
  C113     1.0000 0.05720  0.36970  0.99560  Biso   1.000  C
  C114     1.0000 0.27120  0.55440  0.83800  Biso   1.000  C
  C115     1.0000 0.19690  0.82230  0.78410  Biso   1.000  C
  C116     1.0000 0.98320  0.10260  0.94390  Biso   1.000  C
  C117     1.0000 0.17810  0.45500  0.69940  Biso   1.000  C
  H73      1.0000 0.20080  0.42820  0.71530  Biso   1.000  H
  C118     1.0000 0.05030  0.28880  0.96680  Biso   1.000  C
  C119     1.0000 0.03030  0.39260  0.02100  Biso   1.000  C
  H74      1.0000 0.00810  0.35750  0.02070  Biso   1.000  H
  C120     1.0000 0.06660  0.20790  0.91160  Biso   1.000  C
  C121     1.0000 0.23930  0.60020  0.80680  Biso   1.000  C
  C122     1.0000 0.31020  0.42510  0.86080  Biso   1.000  C
  H75      1.0000 0.31610  0.36550  0.85580  Biso   1.000  H
  C123     1.0000 0.28100  0.46680  0.83150  Biso   1.000  C
  H76      1.0000 0.26770  0.43550  0.80700  Biso   1.000  H
  C124     1.0000 0.96700  0.09460  0.97980  Biso   1.000  C
  H77      1.0000 0.97670  0.12880  0.00480  Biso   1.000  H
  C125     1.0000 0.15500  0.41050  0.66480  Biso   1.000  C
  H78      1.0000 0.16240  0.35290  0.65790  Biso   1.000  H
  C126     1.0000 0.16770  0.86020  0.75380  Biso   1.000  C
  H79      1.0000 0.15110  0.82410  0.73360  Biso   1.000  H
  C127     1.0000 0.03730  0.46930  0.04720  Biso   1.000  C
  H80      1.0000 0.01920  0.48560  0.06410  Biso   1.000  H
  C128     1.0000 0.22070  0.87850  0.81300  Biso   1.000  C
  H81      1.0000 0.24120  0.85530  0.83420  Biso   1.000  H
  C129     1.0000 0.21370  0.97040  0.81010  Biso   1.000  C
  H82      1.0000 0.22970  0.00820  0.82990  Biso   1.000  H
  C130     1.0000 0.16270  0.95250  0.75290  Biso   1.000  C
  H83      1.0000 0.14250  0.97700  0.73190  Biso   1.000  H
  C131     1.0000 0.29180  0.59900  0.87460  Biso   1.000  C
  H84      1.0000 0.28670  0.65900  0.88000  Biso   1.000  H
  C132     1.0000 0.93600  0.03540  0.97980  Biso   1.000  C
  H85      1.0000 0.92610  0.02890  0.00540  Biso   1.000  H
  C133     1.0000 0.09210  0.19320  0.88000  Biso   1.000  C
  C134     1.0000 0.08900  0.42350  0.99730  Biso   1.000  C
  H86      1.0000 0.10730  0.40940  0.98000  Biso   1.000  H
  C135     1.0000 0.13450  0.57860  0.68470  Biso   1.000  C
  H87      1.0000 0.12720  0.63720  0.68980  Biso   1.000  H
  C136     1.0000 0.12880  0.23390  0.88600  Biso   1.000  C
  H88      1.0000 0.13730  0.27160  0.91000  Biso   1.000  H
  C137     1.0000 0.09490  0.49800  0.02380  Biso   1.000  C
  H89      1.0000 0.11700  0.53350  0.02430  Biso   1.000  H
  C138     1.0000 0.08210  0.13600  0.84400  Biso   1.000  C
  H90      1.0000 0.05840  0.10500  0.83940  Biso   1.000  H
  C139     1.0000 0.32080  0.55020  0.90350  Biso   1.000  C
  H91      1.0000 0.33390  0.57850  0.92910  Biso   1.000  H
  C140     1.0000 0.11250  0.52830  0.65090  Biso   1.000  C
  H92      1.0000 0.08970  0.55370  0.63470  Biso   1.000  H
  C141     1.0000 0.10710  0.12510  0.81530  Biso   1.000  C
  H93      1.0000 0.09920  0.08880  0.79070  Biso   1.000  H
  C142     1.0000 0.15260  0.21740  0.85570  Biso   1.000  C
  H94      1.0000 0.17700  0.24520  0.85980  Biso   1.000  H
  C143     1.0000 0.93600  0.99850  0.90940  Biso   1.000  C
  H95      1.0000 0.92490  0.96660  0.88410  Biso   1.000  H
  C144     1.0000 0.96770  0.05240  0.90710  Biso   1.000  C
  H96      1.0000 0.97820  0.05490  0.88170  Biso   1.000  H
  I27      1.0000 0.14330  0.17940  0.70201  Biso   1.000  I
  I28      1.0000 0.12809  0.16590  0.69622  Biso   1.000  I
  I29      1.0000 0.47353  0.15177  0.36687  Biso   1.000  I
  I30      1.0000 0.37948  0.23941  0.44183  Biso   1.000  I
  I31      1.0000 0.11033  0.24065  0.09524  Biso   1.000  I
  I32      1.0000 0.14886  0.09016  0.98536  Biso   1.000  I
  I33      1.0000 0.25989  0.27388  0.19620  Biso   1.000  I
  Zn13     1.0000 0.41672  0.12495  0.40611  Biso   1.000  Zn
  Zn14     1.0000 0.12700  0.09726  0.05853  Biso   1.000  Zn
  Zn15     1.0000 0.32384  0.35521  0.22498  Biso   1.000  Zn
  N49      1.0000 0.27960  0.94950  0.22670  Biso   1.000  N
  N50      1.0000 0.31970  0.82220  0.24870  Biso   1.000  N
  N51      1.0000 0.26700  0.81080  0.18760  Biso   1.000  N
  N52      1.0000 0.37780  0.05350  0.35940  Biso   1.000  N
  N53      1.0000 0.31480  0.49270  0.21970  Biso   1.000  N
  N54      1.0000 0.46220  0.35170  0.08780  Biso   1.000  N
  N55      1.0000 0.42590  0.22040  0.06210  Biso   1.000  N
  N56      1.0000 0.16950  0.03320  0.10360  Biso   1.000  N
  N57      1.0000 0.47790  0.26880  0.02820  Biso   1.000  N
  N58      1.0000 0.43070  0.97970  0.95130  Biso   1.000  N
  N59      1.0000 0.35830  0.33650  0.17900  Biso   1.000  N
  C145     1.0000 0.31000  0.90670  0.25240  Biso   1.000  C
  C146     1.0000 0.33280  0.95950  0.28950  Biso   1.000  C
  C147     1.0000 0.29640  0.77700  0.21680  Biso   1.000  C
  N60      1.0000 0.58000  0.51200  0.05560  Biso   1.000  N
  C148     1.0000 0.48330  0.33600  0.05690  Biso   1.000  C
  C149     1.0000 0.44280  0.13030  0.00440  Biso   1.000  C
  C150     1.0000 0.22880  0.94560  0.16200  Biso   1.000  C
  C151     1.0000 0.30310  0.67770  0.21590  Biso   1.000  C
  C152     1.0000 0.51680  0.39740  0.05610  Biso   1.000  C
  C153     1.0000 0.32190  0.04500  0.30060  Biso   1.000  C
  H97      1.0000 0.29920  0.07180  0.28470  Biso   1.000  H
  C154     1.0000 0.44970  0.21120  0.03320  Biso   1.000  C
  C155     1.0000 0.46970  0.10740  0.97900  Biso   1.000  C
  H98      1.0000 0.49190  0.14250  0.97930  Biso   1.000  H
  C156     1.0000 0.43340  0.29210  0.08840  Biso   1.000  C
  C157     1.0000 0.26070  0.89980  0.19320  Biso   1.000  C
  C158     1.0000 0.18980  0.07490  0.13920  Biso   1.000  C
  H99      1.0000 0.18390  0.13450  0.14420  Biso   1.000  H
  C159     1.0000 0.21900  0.03320  0.16850  Biso   1.000  C
  H100     1.0000 0.23230  0.06450  0.19300  Biso   1.000  H
  C160     1.0000 0.53300  0.40540  0.02020  Biso   1.000  C
  H101     1.0000 0.52330  0.37120  0.99520  Biso   1.000  H
  C161     1.0000 0.34500  0.08950  0.33520  Biso   1.000  C
  H102     1.0000 0.33760  0.14710  0.34210  Biso   1.000  H
  C162     1.0000 0.33230  0.63980  0.24620  Biso   1.000  C
  H103     1.0000 0.34890  0.67590  0.26640  Biso   1.000  H
  C163     1.0000 0.46270  0.03070  0.95280  Biso   1.000  C
  H104     1.0000 0.48080  0.01440  0.93590  Biso   1.000  H
  C164     1.0000 0.27930  0.62150  0.18700  Biso   1.000  C
  H105     1.0000 0.25880  0.64470  0.16580  Biso   1.000  H
  C165     1.0000 0.28630  0.52960  0.18990  Biso   1.000  C
  H106     1.0000 0.27030  0.49180  0.17010  Biso   1.000  H
  C166     1.0000 0.33730  0.54750  0.24710  Biso   1.000  C
  H107     1.0000 0.35750  0.52300  0.26810  Biso   1.000  H
  C167     1.0000 0.20820  0.90100  0.12540  Biso   1.000  C
  H108     1.0000 0.21330  0.84100  0.12000  Biso   1.000  H
  C168     1.0000 0.56400  0.46460  0.02020  Biso   1.000  C
  H109     1.0000 0.57390  0.47110  0.99460  Biso   1.000  H
  C169     1.0000 0.40790  0.30680  0.12000  Biso   1.000  C
  C170     1.0000 0.41100  0.07650  0.00270  Biso   1.000  C
  H110     1.0000 0.39270  0.09060  0.02000  Biso   1.000  H
  C171     1.0000 0.36550  0.92140  0.31530  Biso   1.000  C
  H111     1.0000 0.37280  0.86280  0.31020  Biso   1.000  H
  C172     1.0000 0.37120  0.26610  0.11400  Biso   1.000  C
  H112     1.0000 0.36270  0.22840  0.09000  Biso   1.000  H
  C173     1.0000 0.40510  0.00200  0.97620  Biso   1.000  C
  H113     1.0000 0.38300  0.96650  0.97570  Biso   1.000  H
  C174     1.0000 0.41790  0.36400  0.15600  Biso   1.000  C
  H114     1.0000 0.44160  0.39500  0.16060  Biso   1.000  H
  C175     1.0000 0.17920  0.94980  0.09650  Biso   1.000  C
  H115     1.0000 0.16610  0.92150  0.07090  Biso   1.000  H
  C176     1.0000 0.38750  0.97170  0.34910  Biso   1.000  C
  H116     1.0000 0.41030  0.94630  0.36530  Biso   1.000  H
  C177     1.0000 0.39290  0.37490  0.18470  Biso   1.000  C
  H117     1.0000 0.40080  0.41120  0.20930  Biso   1.000  H
  C178     1.0000 0.34740  0.28260  0.14430  Biso   1.000  C
  H118     1.0000 0.32300  0.25480  0.14020  Biso   1.000  H
  C179     1.0000 0.56400  0.50150  0.09060  Biso   1.000  C
  H119     1.0000 0.57510  0.53340  0.11590  Biso   1.000  H
  C180     1.0000 0.53230  0.44760  0.09290  Biso   1.000  C
  H120     1.0000 0.52180  0.44510  0.11830  Biso   1.000  H
  I34      1.0000 0.35670  0.32060  0.29799  Biso   1.000  I
  I35      1.0000 0.37191  0.33410  0.30378  Biso   1.000  I
  I36      1.0000 0.97353  0.65177  0.36687  Biso   1.000  I
  I37      1.0000 0.87948  0.73941  0.44183  Biso   1.000  I
  I38      1.0000 0.61033  0.74065  0.09524  Biso   1.000  I
  I39      1.0000 0.64886  0.59016  0.98536  Biso   1.000  I
  I40      1.0000 0.75989  0.77388  0.19620  Biso   1.000  I
  Zn16     1.0000 0.91672  0.62495  0.40611  Biso   1.000  Zn
  Zn17     1.0000 0.62700  0.59726  0.05853  Biso   1.000  Zn
  Zn18     1.0000 0.82384  0.85521  0.22498  Biso   1.000  Zn
  N61      1.0000 0.77960  0.44950  0.22670  Biso   1.000  N
  N62      1.0000 0.81970  0.32220  0.24870  Biso   1.000  N
  N63      1.0000 0.76700  0.31080  0.18760  Biso   1.000  N
  N64      1.0000 0.87780  0.55350  0.35940  Biso   1.000  N
  N65      1.0000 0.81480  0.99270  0.21970  Biso   1.000  N
  N66      1.0000 0.96220  0.85170  0.08780  Biso   1.000  N
  N67      1.0000 0.92590  0.72040  0.06210  Biso   1.000  N
  N68      1.0000 0.66950  0.53320  0.10360  Biso   1.000  N
  N69      1.0000 0.97790  0.76880  0.02820  Biso   1.000  N
  N70      1.0000 0.93070  0.47970  0.95130  Biso   1.000  N
  N71      1.0000 0.85830  0.83650  0.17900  Biso   1.000  N
  C181     1.0000 0.81000  0.40670  0.25240  Biso   1.000  C
  C182     1.0000 0.83280  0.45950  0.28950  Biso   1.000  C
  C183     1.0000 0.79640  0.27700  0.21680  Biso   1.000  C
  N72      1.0000 0.08000  0.01200  0.05560  Biso   1.000  N
  C184     1.0000 0.98330  0.83600  0.05690  Biso   1.000  C
  C185     1.0000 0.94280  0.63030  0.00440  Biso   1.000  C
  C186     1.0000 0.72880  0.44560  0.16200  Biso   1.000  C
  C187     1.0000 0.80310  0.17770  0.21590  Biso   1.000  C
  C188     1.0000 0.01680  0.89740  0.05610  Biso   1.000  C
  C189     1.0000 0.82190  0.54500  0.30060  Biso   1.000  C
  H121     1.0000 0.79920  0.57180  0.28470  Biso   1.000  H
  C190     1.0000 0.94970  0.71120  0.03320  Biso   1.000  C
  C191     1.0000 0.96970  0.60740  0.97900  Biso   1.000  C
  H122     1.0000 0.99190  0.64250  0.97930  Biso   1.000  H
  C192     1.0000 0.93340  0.79210  0.08840  Biso   1.000  C
  C193     1.0000 0.76070  0.39980  0.19320  Biso   1.000  C
  C194     1.0000 0.68980  0.57490  0.13920  Biso   1.000  C
  H123     1.0000 0.68390  0.63450  0.14420  Biso   1.000  H
  C195     1.0000 0.71900  0.53320  0.16850  Biso   1.000  C
  H124     1.0000 0.73230  0.56450  0.19300  Biso   1.000  H
  C196     1.0000 0.03300  0.90540  0.02020  Biso   1.000  C
  H125     1.0000 0.02330  0.87120  0.99520  Biso   1.000  H
  C197     1.0000 0.84500  0.58950  0.33520  Biso   1.000  C
  H126     1.0000 0.83760  0.64710  0.34210  Biso   1.000  H
  C198     1.0000 0.83230  0.13980  0.24620  Biso   1.000  C
  H127     1.0000 0.84890  0.17590  0.26640  Biso   1.000  H
  C199     1.0000 0.96270  0.53070  0.95280  Biso   1.000  C
  H128     1.0000 0.98080  0.51440  0.93590  Biso   1.000  H
  C200     1.0000 0.77930  0.12150  0.18700  Biso   1.000  C
  H129     1.0000 0.75880  0.14470  0.16580  Biso   1.000  H
  C201     1.0000 0.78630  0.02960  0.18990  Biso   1.000  C
  H130     1.0000 0.77030  0.99180  0.17010  Biso   1.000  H
  C202     1.0000 0.83730  0.04750  0.24710  Biso   1.000  C
  H131     1.0000 0.85750  0.02300  0.26810  Biso   1.000  H
  C203     1.0000 0.70820  0.40100  0.12540  Biso   1.000  C
  H132     1.0000 0.71330  0.34100  0.12000  Biso   1.000  H
  C204     1.0000 0.06400  0.96460  0.02020  Biso   1.000  C
  H133     1.0000 0.07390  0.97110  0.99460  Biso   1.000  H
  C205     1.0000 0.90790  0.80680  0.12000  Biso   1.000  C
  C206     1.0000 0.91100  0.57650  0.00270  Biso   1.000  C
  H134     1.0000 0.89270  0.59060  0.02000  Biso   1.000  H
  C207     1.0000 0.86550  0.42140  0.31530  Biso   1.000  C
  H135     1.0000 0.87280  0.36280  0.31020  Biso   1.000  H
  C208     1.0000 0.87120  0.76610  0.11400  Biso   1.000  C
  H136     1.0000 0.86270  0.72840  0.09000  Biso   1.000  H
  C209     1.0000 0.90510  0.50200  0.97620  Biso   1.000  C
  H137     1.0000 0.88300  0.46650  0.97570  Biso   1.000  H
  C210     1.0000 0.91790  0.86400  0.15600  Biso   1.000  C
  H138     1.0000 0.94160  0.89500  0.16060  Biso   1.000  H
  C211     1.0000 0.67920  0.44980  0.09650  Biso   1.000  C
  H139     1.0000 0.66610  0.42150  0.07090  Biso   1.000  H
  C212     1.0000 0.88750  0.47170  0.34910  Biso   1.000  C
  H140     1.0000 0.91030  0.44630  0.36530  Biso   1.000  H
  C213     1.0000 0.89290  0.87490  0.18470  Biso   1.000  C
  H141     1.0000 0.90080  0.91120  0.20930  Biso   1.000  H
  C214     1.0000 0.84740  0.78260  0.14430  Biso   1.000  C
  H142     1.0000 0.82300  0.75480  0.14020  Biso   1.000  H
  C215     1.0000 0.06400  0.00150  0.09060  Biso   1.000  C
  H143     1.0000 0.07510  0.03340  0.11590  Biso   1.000  H
  C216     1.0000 0.03230  0.94760  0.09290  Biso   1.000  C
  H144     1.0000 0.02180  0.94510  0.11830  Biso   1.000  H
  I41      1.0000 0.85670  0.82060  0.29799  Biso   1.000  I
  I42      1.0000 0.87191  0.83410  0.30378  Biso   1.000  I
  I43      1.0000 0.47353  0.84823  0.86687  Biso   1.000  I
  I44      1.0000 0.37948  0.76059  0.94183  Biso   1.000  I
  I45      1.0000 0.11033  0.75935  0.59524  Biso   1.000  I
  I46      1.0000 0.14886  0.90984  0.48536  Biso   1.000  I
  I47      1.0000 0.25989  0.72612  0.69620  Biso   1.000  I
  Zn19     1.0000 0.41672  0.87505  0.90611  Biso   1.000  Zn
  Zn20     1.0000 0.12700  0.90274  0.55853  Biso   1.000  Zn
  Zn21     1.0000 0.32384  0.64479  0.72498  Biso   1.000  Zn
  N73      1.0000 0.27960  0.05050  0.72670  Biso   1.000  N
  N74      1.0000 0.31970  0.17780  0.74870  Biso   1.000  N
  N75      1.0000 0.26700  0.18920  0.68760  Biso   1.000  N
  N76      1.0000 0.37780  0.94650  0.85940  Biso   1.000  N
  N77      1.0000 0.31480  0.50730  0.71970  Biso   1.000  N
  N78      1.0000 0.46220  0.64830  0.58780  Biso   1.000  N
  N79      1.0000 0.42590  0.77960  0.56210  Biso   1.000  N
  N80      1.0000 0.16950  0.96680  0.60360  Biso   1.000  N
  N81      1.0000 0.47790  0.73120  0.52820  Biso   1.000  N
  N82      1.0000 0.43070  0.02030  0.45130  Biso   1.000  N
  N83      1.0000 0.35830  0.66350  0.67900  Biso   1.000  N
  C217     1.0000 0.31000  0.09330  0.75240  Biso   1.000  C
  C218     1.0000 0.33280  0.04050  0.78950  Biso   1.000  C
  C219     1.0000 0.29640  0.22300  0.71680  Biso   1.000  C
  N84      1.0000 0.58000  0.48800  0.55560  Biso   1.000  N
  C220     1.0000 0.48330  0.66400  0.55690  Biso   1.000  C
  C221     1.0000 0.44280  0.86970  0.50440  Biso   1.000  C
  C222     1.0000 0.22880  0.05440  0.66200  Biso   1.000  C
  C223     1.0000 0.30310  0.32230  0.71590  Biso   1.000  C
  C224     1.0000 0.51680  0.60260  0.55610  Biso   1.000  C
  C225     1.0000 0.32190  0.95500  0.80060  Biso   1.000  C
  H145     1.0000 0.29920  0.92820  0.78470  Biso   1.000  H
  C226     1.0000 0.44970  0.78880  0.53320  Biso   1.000  C
  C227     1.0000 0.46970  0.89260  0.47900  Biso   1.000  C
  H146     1.0000 0.49190  0.85750  0.47930  Biso   1.000  H
  C228     1.0000 0.43340  0.70790  0.58840  Biso   1.000  C
  C229     1.0000 0.26070  0.10020  0.69320  Biso   1.000  C
  C230     1.0000 0.18980  0.92510  0.63920  Biso   1.000  C
  H147     1.0000 0.18390  0.86550  0.64420  Biso   1.000  H
  C231     1.0000 0.21900  0.96680  0.66850  Biso   1.000  C
  H148     1.0000 0.23230  0.93550  0.69300  Biso   1.000  H
  C232     1.0000 0.53300  0.59460  0.52020  Biso   1.000  C
  H149     1.0000 0.52330  0.62880  0.49520  Biso   1.000  H
  C233     1.0000 0.34500  0.91050  0.83520  Biso   1.000  C
  H150     1.0000 0.33760  0.85290  0.84210  Biso   1.000  H
  C234     1.0000 0.33230  0.36020  0.74620  Biso   1.000  C
  H151     1.0000 0.34890  0.32410  0.76640  Biso   1.000  H
  C235     1.0000 0.46270  0.96930  0.45280  Biso   1.000  C
  H152     1.0000 0.48080  0.98560  0.43590  Biso   1.000  H
  C236     1.0000 0.27930  0.37850  0.68700  Biso   1.000  C
  H153     1.0000 0.25880  0.35530  0.66580  Biso   1.000  H
  C237     1.0000 0.28630  0.47040  0.68990  Biso   1.000  C
  H154     1.0000 0.27030  0.50820  0.67010  Biso   1.000  H
  C238     1.0000 0.33730  0.45250  0.74710  Biso   1.000  C
  H155     1.0000 0.35750  0.47700  0.76810  Biso   1.000  H
  C239     1.0000 0.20820  0.09900  0.62540  Biso   1.000  C
  H156     1.0000 0.21330  0.15900  0.62000  Biso   1.000  H
  C240     1.0000 0.56400  0.53540  0.52020  Biso   1.000  C
  H157     1.0000 0.57390  0.52890  0.49460  Biso   1.000  H
  C241     1.0000 0.40790  0.69320  0.62000  Biso   1.000  C
  C242     1.0000 0.41100  0.92350  0.50270  Biso   1.000  C
  H158     1.0000 0.39270  0.90940  0.52000  Biso   1.000  H
  C243     1.0000 0.36550  0.07860  0.81530  Biso   1.000  C
  H159     1.0000 0.37280  0.13720  0.81020  Biso   1.000  H
  C244     1.0000 0.37120  0.73390  0.61400  Biso   1.000  C
  H160     1.0000 0.36270  0.77160  0.59000  Biso   1.000  H
  C245     1.0000 0.40510  0.99800  0.47620  Biso   1.000  C
  H161     1.0000 0.38300  0.03350  0.47570  Biso   1.000  H
  C246     1.0000 0.41790  0.63600  0.65600  Biso   1.000  C
  H162     1.0000 0.44160  0.60500  0.66060  Biso   1.000  H
  C247     1.0000 0.17920  0.05020  0.59650  Biso   1.000  C
  H163     1.0000 0.16610  0.07850  0.57090  Biso   1.000  H
  C248     1.0000 0.38750  0.02830  0.84910  Biso   1.000  C
  H164     1.0000 0.41030  0.05370  0.86530  Biso   1.000  H
  C249     1.0000 0.39290  0.62510  0.68470  Biso   1.000  C
  H165     1.0000 0.40080  0.58880  0.70930  Biso   1.000  H
  C250     1.0000 0.34740  0.71740  0.64430  Biso   1.000  C
  H166     1.0000 0.32300  0.74520  0.64020  Biso   1.000  H
  C251     1.0000 0.56400  0.49850  0.59060  Biso   1.000  C
  H167     1.0000 0.57510  0.46660  0.61590  Biso   1.000  H
  C252     1.0000 0.53230  0.55240  0.59290  Biso   1.000  C
  H168     1.0000 0.52180  0.55490  0.61830  Biso   1.000  H
  I48      1.0000 0.35670  0.67940  0.79799  Biso   1.000  I
  I49      1.0000 0.37191  0.66590  0.80378  Biso   1.000  I
  I50      1.0000 0.97353  0.34823  0.86687  Biso   1.000  I
  I51      1.0000 0.87948  0.26059  0.94183  Biso   1.000  I
  I52      1.0000 0.61033  0.25935  0.59524  Biso   1.000  I
  I53      1.0000 0.64886  0.40984  0.48536  Biso   1.000  I
  I54      1.0000 0.75989  0.22612  0.69620  Biso   1.000  I
  Zn22     1.0000 0.91672  0.37505  0.90611  Biso   1.000  Zn
  Zn23     1.0000 0.62700  0.40274  0.55853  Biso   1.000  Zn
  Zn24     1.0000 0.82384  0.14479  0.72498  Biso   1.000  Zn
  N85      1.0000 0.77960  0.55050  0.72670  Biso   1.000  N
  N86      1.0000 0.81970  0.67780  0.74870  Biso   1.000  N
  N87      1.0000 0.76700  0.68920  0.68760  Biso   1.000  N
  N88      1.0000 0.87780  0.44650  0.85940  Biso   1.000  N
  N89      1.0000 0.81480  0.00730  0.71970  Biso   1.000  N
  N90      1.0000 0.96220  0.14830  0.58780  Biso   1.000  N
  N91      1.0000 0.92590  0.27960  0.56210  Biso   1.000  N
  N92      1.0000 0.66950  0.46680  0.60360  Biso   1.000  N
  N93      1.0000 0.97790  0.23120  0.52820  Biso   1.000  N
  N94      1.0000 0.93070  0.52030  0.45130  Biso   1.000  N
  N95      1.0000 0.85830  0.16350  0.67900  Biso   1.000  N
  C253     1.0000 0.81000  0.59330  0.75240  Biso   1.000  C
  C254     1.0000 0.83280  0.54050  0.78950  Biso   1.000  C
  C255     1.0000 0.79640  0.72300  0.71680  Biso   1.000  C
  N96      1.0000 0.08000  0.98800  0.55560  Biso   1.000  N
  C256     1.0000 0.98330  0.16400  0.55690  Biso   1.000  C
  C257     1.0000 0.94280  0.36970  0.50440  Biso   1.000  C
  C258     1.0000 0.72880  0.55440  0.66200  Biso   1.000  C
  C259     1.0000 0.80310  0.82230  0.71590  Biso   1.000  C
  C260     1.0000 0.01680  0.10260  0.55610  Biso   1.000  C
  C261     1.0000 0.82190  0.45500  0.80060  Biso   1.000  C
  H169     1.0000 0.79920  0.42820  0.78470  Biso   1.000  H
  C262     1.0000 0.94970  0.28880  0.53320  Biso   1.000  C
  C263     1.0000 0.96970  0.39260  0.47900  Biso   1.000  C
  H170     1.0000 0.99190  0.35750  0.47930  Biso   1.000  H
  C264     1.0000 0.93340  0.20790  0.58840  Biso   1.000  C
  C265     1.0000 0.76070  0.60020  0.69320  Biso   1.000  C
  C266     1.0000 0.68980  0.42510  0.63920  Biso   1.000  C
  H171     1.0000 0.68390  0.36550  0.64420  Biso   1.000  H
  C267     1.0000 0.71900  0.46680  0.66850  Biso   1.000  C
  H172     1.0000 0.73230  0.43550  0.69300  Biso   1.000  H
  C268     1.0000 0.03300  0.09460  0.52020  Biso   1.000  C
  H173     1.0000 0.02330  0.12880  0.49520  Biso   1.000  H
  C269     1.0000 0.84500  0.41050  0.83520  Biso   1.000  C
  H174     1.0000 0.83760  0.35290  0.84210  Biso   1.000  H
  C270     1.0000 0.83230  0.86020  0.74620  Biso   1.000  C
  H175     1.0000 0.84890  0.82410  0.76640  Biso   1.000  H
  C271     1.0000 0.96270  0.46930  0.45280  Biso   1.000  C
  H176     1.0000 0.98080  0.48560  0.43590  Biso   1.000  H
  C272     1.0000 0.77930  0.87850  0.68700  Biso   1.000  C
  H177     1.0000 0.75880  0.85530  0.66580  Biso   1.000  H
  C273     1.0000 0.78630  0.97040  0.68990  Biso   1.000  C
  H178     1.0000 0.77030  0.00820  0.67010  Biso   1.000  H
  C274     1.0000 0.83730  0.95250  0.74710  Biso   1.000  C
  H179     1.0000 0.85750  0.97700  0.76810  Biso   1.000  H
  C275     1.0000 0.70820  0.59900  0.62540  Biso   1.000  C
  H180     1.0000 0.71330  0.65900  0.62000  Biso   1.000  H
  C276     1.0000 0.06400  0.03540  0.52020  Biso   1.000  C
  H181     1.0000 0.07390  0.02890  0.49460  Biso   1.000  H
  C277     1.0000 0.90790  0.19320  0.62000  Biso   1.000  C
  C278     1.0000 0.91100  0.42350  0.50270  Biso   1.000  C
  H182     1.0000 0.89270  0.40940  0.52000  Biso   1.000  H
  C279     1.0000 0.86550  0.57860  0.81530  Biso   1.000  C
  H183     1.0000 0.87280  0.63720  0.81020  Biso   1.000  H
  C280     1.0000 0.87120  0.23390  0.61400  Biso   1.000  C
  H184     1.0000 0.86270  0.27160  0.59000  Biso   1.000  H
  C281     1.0000 0.90510  0.49800  0.47620  Biso   1.000  C
  H185     1.0000 0.88300  0.53350  0.47570  Biso   1.000  H
  C282     1.0000 0.91790  0.13600  0.65600  Biso   1.000  C
  H186     1.0000 0.94160  0.10500  0.66060  Biso   1.000  H
  C283     1.0000 0.67920  0.55020  0.59650  Biso   1.000  C
  H187     1.0000 0.66610  0.57850  0.57090  Biso   1.000  H
  C284     1.0000 0.88750  0.52830  0.84910  Biso   1.000  C
  H188     1.0000 0.91030  0.55370  0.86530  Biso   1.000  H
  C285     1.0000 0.89290  0.12510  0.68470  Biso   1.000  C
  H189     1.0000 0.90080  0.08880  0.70930  Biso   1.000  H
  C286     1.0000 0.84740  0.21740  0.64430  Biso   1.000  C
  H190     1.0000 0.82300  0.24520  0.64020  Biso   1.000  H
  C287     1.0000 0.06400  0.99850  0.59060  Biso   1.000  C
  H191     1.0000 0.07510  0.96660  0.61590  Biso   1.000  H
  C288     1.0000 0.03230  0.05240  0.59290  Biso   1.000  C
  H192     1.0000 0.02180  0.05490  0.61830  Biso   1.000  H
  I55      1.0000 0.85670  0.17940  0.79799  Biso   1.000  I
  I56      1.0000 0.87191  0.16590  0.80378  Biso   1.000  I
