data_image0
_cell_length_a       35.3524
_cell_length_b       14.9797
_cell_length_c       31.0275
_cell_angle_alpha    90
_cell_angle_beta     101.951
_cell_angle_gamma    90

_symmetry_space_group_name_H-M    "P 1"
_symmetry_int_tables_number       1

loop_
  _symmetry_equiv_pos_as_xyz
  'x, y, z'

loop_
  _atom_site_label
  _atom_site_occupancy
  _atom_site_fract_x
  _atom_site_fract_y
  _atom_site_fract_z
  _atom_site_thermal_displace_type
  _atom_site_B_iso_or_equiv
  _atom_site_type_symbol
  I1       1.0000 0.97506  0.64936  0.86861  Biso   1.000  I
  I2       1.0000 0.26260  0.26685  0.69743  Biso   1.000  I
  I3       1.0000 0.88102  0.73440  0.93903  Biso   1.000  I
  I4       1.0000 0.36760  0.32393  0.79978  Biso   1.000  I
  I5       1.0000 0.64573  0.58575  0.49128  Biso   1.000  I
  I6       1.0000 0.60607  0.73323  0.60457  Biso   1.000  I
  Zn1      1.0000 0.91854  0.61900  0.90539  Biso   1.000  Zn
  Zn2      1.0000 0.32500  0.35313  0.72430  Biso   1.000  Zn
  Zn3      1.0000 0.62560  0.59017  0.56492  Biso   1.000  Zn
  N1       1.0000 0.81405  0.98930  0.72099  Biso   1.000  N
  N2       1.0000 0.43201  0.98460  0.45001  Biso   1.000  N
  N3       1.0000 0.88012  0.54910  0.85730  Biso   1.000  N
  N4       1.0000 0.81919  0.31560  0.75045  Biso   1.000  N
  N5       1.0000 0.66843  0.52610  0.60920  Biso   1.000  N
  N6       1.0000 0.35861  0.33800  0.67760  Biso   1.000  N
  N7       1.0000 0.78032  0.44300  0.72848  Biso   1.000  N
  N8       1.0000 0.42516  0.22310  0.56147  Biso   1.000  N
  N9       1.0000 0.76526  0.30480  0.69105  Biso   1.000  N
  N10      1.0000 0.58010  0.50350  0.56160  Biso   1.000  N
  N11      1.0000 0.46234  0.34980  0.58976  Biso   1.000  N
  C1       1.0000 0.89000  0.46770  0.84680  Biso   1.000  C
  H1       1.0000 0.91370  0.44330  0.86250  Biso   1.000  H
  C2       1.0000 0.83440  0.45350  0.78990  Biso   1.000  C
  C3       1.0000 0.44297  0.13300  0.50430  Biso   1.000  C
  C4       1.0000 0.79505  0.27030  0.71960  Biso   1.000  C
  C5       1.0000 0.72755  0.43800  0.66540  Biso   1.000  C
  C6       1.0000 0.48328  0.33460  0.55930  Biso   1.000  C
  C7       1.0000 0.46945  0.11180  0.47840  Biso   1.000  C
  H2       1.0000 0.49140  0.14850  0.47890  Biso   1.000  H
  C8       1.0000 0.78330  0.02480  0.69430  Biso   1.000  C
  H3       1.0000 0.76540  0.98620  0.67620  Biso   1.000  H
  C9       1.0000 0.83880  0.04380  0.74640  Biso   1.000  C
  H4       1.0000 0.86100  0.01890  0.76510  Biso   1.000  H
  C10      1.0000 0.44857  0.21320  0.53300  Biso   1.000  C
  C11      1.0000 0.34700  0.28860  0.64140  Biso   1.000  C
  H5       1.0000 0.32160  0.26450  0.63570  Biso   1.000  H
  C12      1.0000 0.75937  0.39170  0.69680  Biso   1.000  C
  C13      1.0000 0.71830  0.52480  0.67330  Biso   1.000  C
  H6       1.0000 0.73220  0.55540  0.69850  Biso   1.000  H
  C14      1.0000 0.84790  0.58540  0.83380  Biso   1.000  C
  H7       1.0000 0.84090  0.64420  0.84050  Biso   1.000  H
  C15      1.0000 0.40721  0.30960  0.61950  Biso   1.000  C
  C16      1.0000 0.80979  0.40140  0.75380  Biso   1.000  C
  C17      1.0000 0.51710  0.39320  0.55960  Biso   1.000  C
  C18      1.0000 0.46340  0.03690  0.45230  Biso   1.000  C
  H8       1.0000 0.48190  0.02160  0.43520  Biso   1.000  H
  C19      1.0000 0.56330  0.46330  0.52490  Biso   1.000  C
  H9       1.0000 0.57300  0.47330  0.49890  Biso   1.000  H
  C20      1.0000 0.82450  0.53940  0.79970  Biso   1.000  C
  H10      1.0000 0.80180  0.56660  0.78320  Biso   1.000  H
  C21      1.0000 0.43270  0.29270  0.58840  Biso   1.000  C
  C22      1.0000 0.80160  0.17230  0.71890  Biso   1.000  C
  C23      1.0000 0.41120  0.07740  0.50230  Biso   1.000  C
  H11      1.0000 0.39270  0.08940  0.51990  Biso   1.000  H
  C24      1.0000 0.40710  0.00680  0.47540  Biso   1.000  C
  H12      1.0000 0.38500  0.97000  0.47410  Biso   1.000  H
  C25      1.0000 0.41870  0.36300  0.65630  Biso   1.000  C
  H13      1.0000 0.44340  0.39090  0.66190  Biso   1.000  H
  C26      1.0000 0.70610  0.39420  0.62970  Biso   1.000  C
  H14      1.0000 0.71100  0.33360  0.62380  Biso   1.000  H
  C27      1.0000 0.68900  0.56740  0.64470  Biso   1.000  C
  H15      1.0000 0.68310  0.62770  0.65020  Biso   1.000  H
  C28      1.0000 0.83370  0.13510  0.74650  Biso   1.000  C
  H16      1.0000 0.85180  0.17210  0.76530  Biso   1.000  H
  C29      1.0000 0.53180  0.40670  0.52290  Biso   1.000  C
  H17      1.0000 0.52060  0.37750  0.49610  Biso   1.000  H
  C30      1.0000 0.67680  0.44220  0.60250  Biso   1.000  C
  H18      1.0000 0.66200  0.41270  0.57760  Biso   1.000  H
  C31      1.0000 0.37030  0.27140  0.61230  Biso   1.000  C
  H19      1.0000 0.36160  0.23390  0.58760  Biso   1.000  H
  C32      1.0000 0.77650  0.11600  0.69200  Biso   1.000  C
  H20      1.0000 0.75460  0.13930  0.67200  Biso   1.000  H
  C33      1.0000 0.86780  0.41710  0.81420  Biso   1.000  C
  H21      1.0000 0.87530  0.35800  0.80860  Biso   1.000  H
  C34      1.0000 0.39370  0.37500  0.68460  Biso   1.000  C
  H22      1.0000 0.40180  0.41100  0.71010  Biso   1.000  H
  C35      1.0000 0.56810  0.48560  0.59750  Biso   1.000  C
  H23      1.0000 0.58160  0.51150  0.62420  Biso   1.000  H
  C36      1.0000 0.53650  0.43030  0.59910  Biso   1.000  C
  H24      1.0000 0.52860  0.41860  0.62610  Biso   1.000  H
  N12      1.0000 0.47728  0.26920  0.52927  Biso   1.000  N
  I7       1.0000 0.61749  0.73355  0.58493  Biso   1.000  I
  I8       1.0000 0.47506  0.14936  0.86861  Biso   1.000  I
  I9       1.0000 0.76260  0.76685  0.69743  Biso   1.000  I
  I10      1.0000 0.38102  0.23440  0.93903  Biso   1.000  I
  I11      1.0000 0.86760  0.82393  0.79978  Biso   1.000  I
  I12      1.0000 0.14573  0.08575  0.49128  Biso   1.000  I
  I13      1.0000 0.10607  0.23323  0.60457  Biso   1.000  I
  Zn4      1.0000 0.41854  0.11900  0.90539  Biso   1.000  Zn
  Zn5      1.0000 0.82500  0.85313  0.72430  Biso   1.000  Zn
  Zn6      1.0000 0.12560  0.09017  0.56492  Biso   1.000  Zn
  N13      1.0000 0.31405  0.48930  0.72099  Biso   1.000  N
  N14      1.0000 0.93201  0.48460  0.45001  Biso   1.000  N
  N15      1.0000 0.38012  0.04910  0.85730  Biso   1.000  N
  N16      1.0000 0.31919  0.81560  0.75045  Biso   1.000  N
  N17      1.0000 0.16843  0.02610  0.60920  Biso   1.000  N
  N18      1.0000 0.85861  0.83800  0.67760  Biso   1.000  N
  N19      1.0000 0.28032  0.94300  0.72848  Biso   1.000  N
  N20      1.0000 0.92516  0.72310  0.56147  Biso   1.000  N
  N21      1.0000 0.26526  0.80480  0.69105  Biso   1.000  N
  N22      1.0000 0.08010  0.00350  0.56160  Biso   1.000  N
  N23      1.0000 0.96234  0.84980  0.58976  Biso   1.000  N
  C37      1.0000 0.39000  0.96770  0.84680  Biso   1.000  C
  H25      1.0000 0.41370  0.94330  0.86250  Biso   1.000  H
  C38      1.0000 0.33440  0.95350  0.78990  Biso   1.000  C
  C39      1.0000 0.94297  0.63300  0.50430  Biso   1.000  C
  C40      1.0000 0.29505  0.77030  0.71960  Biso   1.000  C
  C41      1.0000 0.22755  0.93800  0.66540  Biso   1.000  C
  C42      1.0000 0.98328  0.83460  0.55930  Biso   1.000  C
  C43      1.0000 0.96945  0.61180  0.47840  Biso   1.000  C
  H26      1.0000 0.99140  0.64850  0.47890  Biso   1.000  H
  C44      1.0000 0.28330  0.52480  0.69430  Biso   1.000  C
  H27      1.0000 0.26540  0.48620  0.67620  Biso   1.000  H
  C45      1.0000 0.33880  0.54380  0.74640  Biso   1.000  C
  H28      1.0000 0.36100  0.51890  0.76510  Biso   1.000  H
  C46      1.0000 0.94857  0.71320  0.53300  Biso   1.000  C
  C47      1.0000 0.84700  0.78860  0.64140  Biso   1.000  C
  H29      1.0000 0.82160  0.76450  0.63570  Biso   1.000  H
  C48      1.0000 0.25937  0.89170  0.69680  Biso   1.000  C
  C49      1.0000 0.21830  0.02480  0.67330  Biso   1.000  C
  H30      1.0000 0.23220  0.05540  0.69850  Biso   1.000  H
  C50      1.0000 0.34790  0.08540  0.83380  Biso   1.000  C
  H31      1.0000 0.34090  0.14420  0.84050  Biso   1.000  H
  C51      1.0000 0.90721  0.80960  0.61950  Biso   1.000  C
  C52      1.0000 0.30979  0.90140  0.75380  Biso   1.000  C
  C53      1.0000 0.01710  0.89320  0.55960  Biso   1.000  C
  C54      1.0000 0.96340  0.53690  0.45230  Biso   1.000  C
  H32      1.0000 0.98190  0.52160  0.43520  Biso   1.000  H
  C55      1.0000 0.06330  0.96330  0.52490  Biso   1.000  C
  H33      1.0000 0.07300  0.97330  0.49890  Biso   1.000  H
  C56      1.0000 0.32450  0.03940  0.79970  Biso   1.000  C
  H34      1.0000 0.30180  0.06660  0.78320  Biso   1.000  H
  C57      1.0000 0.93270  0.79270  0.58840  Biso   1.000  C
  C58      1.0000 0.30160  0.67230  0.71890  Biso   1.000  C
  C59      1.0000 0.91120  0.57740  0.50230  Biso   1.000  C
  H35      1.0000 0.89270  0.58940  0.51990  Biso   1.000  H
  C60      1.0000 0.90710  0.50680  0.47540  Biso   1.000  C
  H36      1.0000 0.88500  0.47000  0.47410  Biso   1.000  H
  C61      1.0000 0.91870  0.86300  0.65630  Biso   1.000  C
  H37      1.0000 0.94340  0.89090  0.66190  Biso   1.000  H
  C62      1.0000 0.20610  0.89420  0.62970  Biso   1.000  C
  H38      1.0000 0.21100  0.83360  0.62380  Biso   1.000  H
  C63      1.0000 0.18900  0.06740  0.64470  Biso   1.000  C
  H39      1.0000 0.18310  0.12770  0.65020  Biso   1.000  H
  C64      1.0000 0.33370  0.63510  0.74650  Biso   1.000  C
  H40      1.0000 0.35180  0.67210  0.76530  Biso   1.000  H
  C65      1.0000 0.03180  0.90670  0.52290  Biso   1.000  C
  H41      1.0000 0.02060  0.87750  0.49610  Biso   1.000  H
  C66      1.0000 0.17680  0.94220  0.60250  Biso   1.000  C
  H42      1.0000 0.16200  0.91270  0.57760  Biso   1.000  H
  C67      1.0000 0.87030  0.77140  0.61230  Biso   1.000  C
  H43      1.0000 0.86160  0.73390  0.58760  Biso   1.000  H
  C68      1.0000 0.27650  0.61600  0.69200  Biso   1.000  C
  H44      1.0000 0.25460  0.63930  0.67200  Biso   1.000  H
  C69      1.0000 0.36780  0.91710  0.81420  Biso   1.000  C
  H45      1.0000 0.37530  0.85800  0.80860  Biso   1.000  H
  C70      1.0000 0.89370  0.87500  0.68460  Biso   1.000  C
  H46      1.0000 0.90180  0.91100  0.71010  Biso   1.000  H
  C71      1.0000 0.06810  0.98560  0.59750  Biso   1.000  C
  H47      1.0000 0.08160  0.01150  0.62420  Biso   1.000  H
  C72      1.0000 0.03650  0.93030  0.59910  Biso   1.000  C
  H48      1.0000 0.02860  0.91860  0.62610  Biso   1.000  H
  N24      1.0000 0.97728  0.76920  0.52927  Biso   1.000  N
  I14      1.0000 0.11749  0.23355  0.58493  Biso   1.000  I
  I15      1.0000 0.97506  0.35064  0.36861  Biso   1.000  I
  I16      1.0000 0.26260  0.73315  0.19743  Biso   1.000  I
  I17      1.0000 0.88102  0.26560  0.43903  Biso   1.000  I
  I18      1.0000 0.36760  0.67607  0.29978  Biso   1.000  I
  I19      1.0000 0.64573  0.41425  0.99128  Biso   1.000  I
  I20      1.0000 0.60607  0.26677  0.10457  Biso   1.000  I
  Zn7      1.0000 0.91854  0.38100  0.40539  Biso   1.000  Zn
  Zn8      1.0000 0.32500  0.64687  0.22430  Biso   1.000  Zn
  Zn9      1.0000 0.62560  0.40983  0.06492  Biso   1.000  Zn
  N25      1.0000 0.81405  0.01070  0.22099  Biso   1.000  N
  N26      1.0000 0.43201  0.01540  0.95001  Biso   1.000  N
  N27      1.0000 0.88012  0.45090  0.35730  Biso   1.000  N
  N28      1.0000 0.81919  0.68440  0.25045  Biso   1.000  N
  N29      1.0000 0.66843  0.47390  0.10920  Biso   1.000  N
  N30      1.0000 0.35861  0.66200  0.17760  Biso   1.000  N
  N31      1.0000 0.78032  0.55700  0.22848  Biso   1.000  N
  N32      1.0000 0.42516  0.77690  0.06147  Biso   1.000  N
  N33      1.0000 0.76526  0.69520  0.19105  Biso   1.000  N
  N34      1.0000 0.58010  0.49650  0.06160  Biso   1.000  N
  N35      1.0000 0.46234  0.65020  0.08976  Biso   1.000  N
  C73      1.0000 0.89000  0.53230  0.34680  Biso   1.000  C
  H49      1.0000 0.91370  0.55670  0.36250  Biso   1.000  H
  C74      1.0000 0.83440  0.54650  0.28990  Biso   1.000  C
  C75      1.0000 0.44297  0.86700  0.00430  Biso   1.000  C
  C76      1.0000 0.79505  0.72970  0.21960  Biso   1.000  C
  C77      1.0000 0.72755  0.56200  0.16540  Biso   1.000  C
  C78      1.0000 0.48328  0.66540  0.05930  Biso   1.000  C
  C79      1.0000 0.46945  0.88820  0.97840  Biso   1.000  C
  H50      1.0000 0.49140  0.85150  0.97890  Biso   1.000  H
  C80      1.0000 0.78330  0.97520  0.19430  Biso   1.000  C
  H51      1.0000 0.76540  0.01380  0.17620  Biso   1.000  H
  C81      1.0000 0.83880  0.95620  0.24640  Biso   1.000  C
  H52      1.0000 0.86100  0.98110  0.26510  Biso   1.000  H
  C82      1.0000 0.44857  0.78680  0.03300  Biso   1.000  C
  C83      1.0000 0.34700  0.71140  0.14140  Biso   1.000  C
  H53      1.0000 0.32160  0.73550  0.13570  Biso   1.000  H
  C84      1.0000 0.75937  0.60830  0.19680  Biso   1.000  C
  C85      1.0000 0.71830  0.47520  0.17330  Biso   1.000  C
  H54      1.0000 0.73220  0.44460  0.19850  Biso   1.000  H
  C86      1.0000 0.84790  0.41460  0.33380  Biso   1.000  C
  H55      1.0000 0.84090  0.35580  0.34050  Biso   1.000  H
  C87      1.0000 0.40721  0.69040  0.11950  Biso   1.000  C
  C88      1.0000 0.80979  0.59860  0.25380  Biso   1.000  C
  C89      1.0000 0.51710  0.60680  0.05960  Biso   1.000  C
  C90      1.0000 0.46340  0.96310  0.95230  Biso   1.000  C
  H56      1.0000 0.48190  0.97840  0.93520  Biso   1.000  H
  C91      1.0000 0.56330  0.53670  0.02490  Biso   1.000  C
  H57      1.0000 0.57300  0.52670  0.99890  Biso   1.000  H
  C92      1.0000 0.82450  0.46060  0.29970  Biso   1.000  C
  H58      1.0000 0.80180  0.43340  0.28320  Biso   1.000  H
  C93      1.0000 0.43270  0.70730  0.08840  Biso   1.000  C
  C94      1.0000 0.80160  0.82770  0.21890  Biso   1.000  C
  C95      1.0000 0.41120  0.92260  0.00230  Biso   1.000  C
  H59      1.0000 0.39270  0.91060  0.01990  Biso   1.000  H
  C96      1.0000 0.40710  0.99320  0.97540  Biso   1.000  C
  H60      1.0000 0.38500  0.03000  0.97410  Biso   1.000  H
  C97      1.0000 0.41870  0.63700  0.15630  Biso   1.000  C
  H61      1.0000 0.44340  0.60910  0.16190  Biso   1.000  H
  C98      1.0000 0.70610  0.60580  0.12970  Biso   1.000  C
  H62      1.0000 0.71100  0.66640  0.12380  Biso   1.000  H
  C99      1.0000 0.68900  0.43260  0.14470  Biso   1.000  C
  H63      1.0000 0.68310  0.37230  0.15020  Biso   1.000  H
  C100     1.0000 0.83370  0.86490  0.24650  Biso   1.000  C
  H64      1.0000 0.85180  0.82790  0.26530  Biso   1.000  H
  C101     1.0000 0.53180  0.59330  0.02290  Biso   1.000  C
  H65      1.0000 0.52060  0.62250  0.99610  Biso   1.000  H
  C102     1.0000 0.67680  0.55780  0.10250  Biso   1.000  C
  H66      1.0000 0.66200  0.58730  0.07760  Biso   1.000  H
  C103     1.0000 0.37030  0.72860  0.11230  Biso   1.000  C
  H67      1.0000 0.36160  0.76610  0.08760  Biso   1.000  H
  C104     1.0000 0.77650  0.88400  0.19200  Biso   1.000  C
  H68      1.0000 0.75460  0.86070  0.17200  Biso   1.000  H
  C105     1.0000 0.86780  0.58290  0.31420  Biso   1.000  C
  H69      1.0000 0.87530  0.64200  0.30860  Biso   1.000  H
  C106     1.0000 0.39370  0.62500  0.18460  Biso   1.000  C
  H70      1.0000 0.40180  0.58900  0.21010  Biso   1.000  H
  C107     1.0000 0.56810  0.51440  0.09750  Biso   1.000  C
  H71      1.0000 0.58160  0.48850  0.12420  Biso   1.000  H
  C108     1.0000 0.53650  0.56970  0.09910  Biso   1.000  C
  H72      1.0000 0.52860  0.58140  0.12610  Biso   1.000  H
  N36      1.0000 0.47728  0.73080  0.02927  Biso   1.000  N
  I21      1.0000 0.61749  0.26645  0.08493  Biso   1.000  I
  I22      1.0000 0.47506  0.85064  0.36861  Biso   1.000  I
  I23      1.0000 0.76260  0.23315  0.19743  Biso   1.000  I
  I24      1.0000 0.38102  0.76560  0.43903  Biso   1.000  I
  I25      1.0000 0.86760  0.17607  0.29978  Biso   1.000  I
  I26      1.0000 0.14573  0.91425  0.99128  Biso   1.000  I
  I27      1.0000 0.10607  0.76677  0.10457  Biso   1.000  I
  Zn10     1.0000 0.41854  0.88100  0.40539  Biso   1.000  Zn
  Zn11     1.0000 0.82500  0.14687  0.22430  Biso   1.000  Zn
  Zn12     1.0000 0.12560  0.90983  0.06492  Biso   1.000  Zn
  N37      1.0000 0.31405  0.51070  0.22099  Biso   1.000  N
  N38      1.0000 0.93201  0.51540  0.95001  Biso   1.000  N
  N39      1.0000 0.38012  0.95090  0.35730  Biso   1.000  N
  N40      1.0000 0.31919  0.18440  0.25045  Biso   1.000  N
  N41      1.0000 0.16843  0.97390  0.10920  Biso   1.000  N
  N42      1.0000 0.85861  0.16200  0.17760  Biso   1.000  N
  N43      1.0000 0.28032  0.05700  0.22848  Biso   1.000  N
  N44      1.0000 0.92516  0.27690  0.06147  Biso   1.000  N
  N45      1.0000 0.26526  0.19520  0.19105  Biso   1.000  N
  N46      1.0000 0.08010  0.99650  0.06160  Biso   1.000  N
  N47      1.0000 0.96234  0.15020  0.08976  Biso   1.000  N
  C109     1.0000 0.39000  0.03230  0.34680  Biso   1.000  C
  H73      1.0000 0.41370  0.05670  0.36250  Biso   1.000  H
  C110     1.0000 0.33440  0.04650  0.28990  Biso   1.000  C
  C111     1.0000 0.94297  0.36700  0.00430  Biso   1.000  C
  C112     1.0000 0.29505  0.22970  0.21960  Biso   1.000  C
  C113     1.0000 0.22755  0.06200  0.16540  Biso   1.000  C
  C114     1.0000 0.98328  0.16540  0.05930  Biso   1.000  C
  C115     1.0000 0.96945  0.38820  0.97840  Biso   1.000  C
  H74      1.0000 0.99140  0.35150  0.97890  Biso   1.000  H
  C116     1.0000 0.28330  0.47520  0.19430  Biso   1.000  C
  H75      1.0000 0.26540  0.51380  0.17620  Biso   1.000  H
  C117     1.0000 0.33880  0.45620  0.24640  Biso   1.000  C
  H76      1.0000 0.36100  0.48110  0.26510  Biso   1.000  H
  C118     1.0000 0.94857  0.28680  0.03300  Biso   1.000  C
  C119     1.0000 0.84700  0.21140  0.14140  Biso   1.000  C
  H77      1.0000 0.82160  0.23550  0.13570  Biso   1.000  H
  C120     1.0000 0.25937  0.10830  0.19680  Biso   1.000  C
  C121     1.0000 0.21830  0.97520  0.17330  Biso   1.000  C
  H78      1.0000 0.23220  0.94460  0.19850  Biso   1.000  H
  C122     1.0000 0.34790  0.91460  0.33380  Biso   1.000  C
  H79      1.0000 0.34090  0.85580  0.34050  Biso   1.000  H
  C123     1.0000 0.90721  0.19040  0.11950  Biso   1.000  C
  C124     1.0000 0.30979  0.09860  0.25380  Biso   1.000  C
  C125     1.0000 0.01710  0.10680  0.05960  Biso   1.000  C
  C126     1.0000 0.96340  0.46310  0.95230  Biso   1.000  C
  H80      1.0000 0.98190  0.47840  0.93520  Biso   1.000  H
  C127     1.0000 0.06330  0.03670  0.02490  Biso   1.000  C
  H81      1.0000 0.07300  0.02670  0.99890  Biso   1.000  H
  C128     1.0000 0.32450  0.96060  0.29970  Biso   1.000  C
  H82      1.0000 0.30180  0.93340  0.28320  Biso   1.000  H
  C129     1.0000 0.93270  0.20730  0.08840  Biso   1.000  C
  C130     1.0000 0.30160  0.32770  0.21890  Biso   1.000  C
  C131     1.0000 0.91120  0.42260  0.00230  Biso   1.000  C
  H83      1.0000 0.89270  0.41060  0.01990  Biso   1.000  H
  C132     1.0000 0.90710  0.49320  0.97540  Biso   1.000  C
  H84      1.0000 0.88500  0.53000  0.97410  Biso   1.000  H
  C133     1.0000 0.91870  0.13700  0.15630  Biso   1.000  C
  H85      1.0000 0.94340  0.10910  0.16190  Biso   1.000  H
  C134     1.0000 0.20610  0.10580  0.12970  Biso   1.000  C
  H86      1.0000 0.21100  0.16640  0.12380  Biso   1.000  H
  C135     1.0000 0.18900  0.93260  0.14470  Biso   1.000  C
  H87      1.0000 0.18310  0.87230  0.15020  Biso   1.000  H
  C136     1.0000 0.33370  0.36490  0.24650  Biso   1.000  C
  H88      1.0000 0.35180  0.32790  0.26530  Biso   1.000  H
  C137     1.0000 0.03180  0.09330  0.02290  Biso   1.000  C
  H89      1.0000 0.02060  0.12250  0.99610  Biso   1.000  H
  C138     1.0000 0.17680  0.05780  0.10250  Biso   1.000  C
  H90      1.0000 0.16200  0.08730  0.07760  Biso   1.000  H
  C139     1.0000 0.87030  0.22860  0.11230  Biso   1.000  C
  H91      1.0000 0.86160  0.26610  0.08760  Biso   1.000  H
  C140     1.0000 0.27650  0.38400  0.19200  Biso   1.000  C
  H92      1.0000 0.25460  0.36070  0.17200  Biso   1.000  H
  C141     1.0000 0.36780  0.08290  0.31420  Biso   1.000  C
  H93      1.0000 0.37530  0.14200  0.30860  Biso   1.000  H
  C142     1.0000 0.89370  0.12500  0.18460  Biso   1.000  C
  H94      1.0000 0.90180  0.08900  0.21010  Biso   1.000  H
  C143     1.0000 0.06810  0.01440  0.09750  Biso   1.000  C
  H95      1.0000 0.08160  0.98850  0.12420  Biso   1.000  H
  C144     1.0000 0.03650  0.06970  0.09910  Biso   1.000  C
  H96      1.0000 0.02860  0.08140  0.12610  Biso   1.000  H
  N48      1.0000 0.97728  0.23080  0.02927  Biso   1.000  N
  I28      1.0000 0.11749  0.76645  0.08493  Biso   1.000  I
  I29      1.0000 0.02494  0.64936  0.63139  Biso   1.000  I
  I30      1.0000 0.73740  0.26685  0.80257  Biso   1.000  I
  I31      1.0000 0.11898  0.73440  0.56097  Biso   1.000  I
  I32      1.0000 0.63240  0.32393  0.70022  Biso   1.000  I
  I33      1.0000 0.35427  0.58575  0.00872  Biso   1.000  I
  I34      1.0000 0.39393  0.73323  0.89543  Biso   1.000  I
  Zn13     1.0000 0.08146  0.61900  0.59461  Biso   1.000  Zn
  Zn14     1.0000 0.67500  0.35313  0.77570  Biso   1.000  Zn
  Zn15     1.0000 0.37440  0.59017  0.93508  Biso   1.000  Zn
  N49      1.0000 0.18595  0.98930  0.77901  Biso   1.000  N
  N50      1.0000 0.56799  0.98460  0.04999  Biso   1.000  N
  N51      1.0000 0.11988  0.54910  0.64270  Biso   1.000  N
  N52      1.0000 0.18081  0.31560  0.74955  Biso   1.000  N
  N53      1.0000 0.33157  0.52610  0.89080  Biso   1.000  N
  N54      1.0000 0.64139  0.33800  0.82240  Biso   1.000  N
  N55      1.0000 0.21968  0.44300  0.77152  Biso   1.000  N
  N56      1.0000 0.57484  0.22310  0.93853  Biso   1.000  N
  N57      1.0000 0.23474  0.30480  0.80895  Biso   1.000  N
  N58      1.0000 0.41990  0.50350  0.93840  Biso   1.000  N
  N59      1.0000 0.53766  0.34980  0.91024  Biso   1.000  N
  C145     1.0000 0.11000  0.46770  0.65320  Biso   1.000  C
  H97      1.0000 0.08630  0.44330  0.63750  Biso   1.000  H
  C146     1.0000 0.16560  0.45350  0.71010  Biso   1.000  C
  C147     1.0000 0.55703  0.13300  0.99570  Biso   1.000  C
  C148     1.0000 0.20495  0.27030  0.78040  Biso   1.000  C
  C149     1.0000 0.27245  0.43800  0.83460  Biso   1.000  C
  C150     1.0000 0.51672  0.33460  0.94070  Biso   1.000  C
  C151     1.0000 0.53055  0.11180  0.02160  Biso   1.000  C
  H98      1.0000 0.50860  0.14850  0.02110  Biso   1.000  H
  C152     1.0000 0.21670  0.02480  0.80570  Biso   1.000  C
  H99      1.0000 0.23460  0.98620  0.82380  Biso   1.000  H
  C153     1.0000 0.16120  0.04380  0.75360  Biso   1.000  C
  H100     1.0000 0.13900  0.01890  0.73490  Biso   1.000  H
  C154     1.0000 0.55143  0.21320  0.96700  Biso   1.000  C
  C155     1.0000 0.65300  0.28860  0.85860  Biso   1.000  C
  H101     1.0000 0.67840  0.26450  0.86430  Biso   1.000  H
  C156     1.0000 0.24063  0.39170  0.80320  Biso   1.000  C
  C157     1.0000 0.28170  0.52480  0.82670  Biso   1.000  C
  H102     1.0000 0.26780  0.55540  0.80150  Biso   1.000  H
  C158     1.0000 0.15210  0.58540  0.66620  Biso   1.000  C
  H103     1.0000 0.15910  0.64420  0.65950  Biso   1.000  H
  C159     1.0000 0.59279  0.30960  0.88050  Biso   1.000  C
  C160     1.0000 0.19021  0.40140  0.74620  Biso   1.000  C
  C161     1.0000 0.48290  0.39320  0.94040  Biso   1.000  C
  C162     1.0000 0.53660  0.03690  0.04770  Biso   1.000  C
  H104     1.0000 0.51810  0.02160  0.06480  Biso   1.000  H
  C163     1.0000 0.43670  0.46330  0.97510  Biso   1.000  C
  H105     1.0000 0.42700  0.47330  0.00110  Biso   1.000  H
  C164     1.0000 0.17550  0.53940  0.70030  Biso   1.000  C
  H106     1.0000 0.19820  0.56660  0.71680  Biso   1.000  H
  C165     1.0000 0.56730  0.29270  0.91160  Biso   1.000  C
  C166     1.0000 0.19840  0.17230  0.78110  Biso   1.000  C
  C167     1.0000 0.58880  0.07740  0.99770  Biso   1.000  C
  H107     1.0000 0.60730  0.08940  0.98010  Biso   1.000  H
  C168     1.0000 0.59290  0.00680  0.02460  Biso   1.000  C
  H108     1.0000 0.61500  0.97000  0.02590  Biso   1.000  H
  C169     1.0000 0.58130  0.36300  0.84370  Biso   1.000  C
  H109     1.0000 0.55660  0.39090  0.83810  Biso   1.000  H
  C170     1.0000 0.29390  0.39420  0.87030  Biso   1.000  C
  H110     1.0000 0.28900  0.33360  0.87620  Biso   1.000  H
  C171     1.0000 0.31100  0.56740  0.85530  Biso   1.000  C
  H111     1.0000 0.31690  0.62770  0.84980  Biso   1.000  H
  C172     1.0000 0.16630  0.13510  0.75350  Biso   1.000  C
  H112     1.0000 0.14820  0.17210  0.73470  Biso   1.000  H
  C173     1.0000 0.46820  0.40670  0.97710  Biso   1.000  C
  H113     1.0000 0.47940  0.37750  0.00390  Biso   1.000  H
  C174     1.0000 0.32320  0.44220  0.89750  Biso   1.000  C
  H114     1.0000 0.33800  0.41270  0.92240  Biso   1.000  H
  C175     1.0000 0.62970  0.27140  0.88770  Biso   1.000  C
  H115     1.0000 0.63840  0.23390  0.91240  Biso   1.000  H
  C176     1.0000 0.22350  0.11600  0.80800  Biso   1.000  C
  H116     1.0000 0.24540  0.13930  0.82800  Biso   1.000  H
  C177     1.0000 0.13220  0.41710  0.68580  Biso   1.000  C
  H117     1.0000 0.12470  0.35800  0.69140  Biso   1.000  H
  C178     1.0000 0.60630  0.37500  0.81540  Biso   1.000  C
  H118     1.0000 0.59820  0.41100  0.78990  Biso   1.000  H
  C179     1.0000 0.43190  0.48560  0.90250  Biso   1.000  C
  H119     1.0000 0.41840  0.51150  0.87580  Biso   1.000  H
  C180     1.0000 0.46350  0.43030  0.90090  Biso   1.000  C
  H120     1.0000 0.47140  0.41860  0.87390  Biso   1.000  H
  N60      1.0000 0.52272  0.26920  0.97073  Biso   1.000  N
  I35      1.0000 0.38251  0.73355  0.91507  Biso   1.000  I
  I36      1.0000 0.52494  0.14936  0.63139  Biso   1.000  I
  I37      1.0000 0.23740  0.76685  0.80257  Biso   1.000  I
  I38      1.0000 0.61898  0.23440  0.56097  Biso   1.000  I
  I39      1.0000 0.13240  0.82393  0.70022  Biso   1.000  I
  I40      1.0000 0.85427  0.08575  0.00872  Biso   1.000  I
  I41      1.0000 0.89393  0.23323  0.89543  Biso   1.000  I
  Zn16     1.0000 0.58146  0.11900  0.59461  Biso   1.000  Zn
  Zn17     1.0000 0.17500  0.85313  0.77570  Biso   1.000  Zn
  Zn18     1.0000 0.87440  0.09017  0.93508  Biso   1.000  Zn
  N61      1.0000 0.68595  0.48930  0.77901  Biso   1.000  N
  N62      1.0000 0.06799  0.48460  0.04999  Biso   1.000  N
  N63      1.0000 0.61988  0.04910  0.64270  Biso   1.000  N
  N64      1.0000 0.68081  0.81560  0.74955  Biso   1.000  N
  N65      1.0000 0.83157  0.02610  0.89080  Biso   1.000  N
  N66      1.0000 0.14139  0.83800  0.82240  Biso   1.000  N
  N67      1.0000 0.71968  0.94300  0.77152  Biso   1.000  N
  N68      1.0000 0.07484  0.72310  0.93853  Biso   1.000  N
  N69      1.0000 0.73474  0.80480  0.80895  Biso   1.000  N
  N70      1.0000 0.91990  0.00350  0.93840  Biso   1.000  N
  N71      1.0000 0.03766  0.84980  0.91024  Biso   1.000  N
  C181     1.0000 0.61000  0.96770  0.65320  Biso   1.000  C
  H121     1.0000 0.58630  0.94330  0.63750  Biso   1.000  H
  C182     1.0000 0.66560  0.95350  0.71010  Biso   1.000  C
  C183     1.0000 0.05703  0.63300  0.99570  Biso   1.000  C
  C184     1.0000 0.70495  0.77030  0.78040  Biso   1.000  C
  C185     1.0000 0.77245  0.93800  0.83460  Biso   1.000  C
  C186     1.0000 0.01672  0.83460  0.94070  Biso   1.000  C
  C187     1.0000 0.03055  0.61180  0.02160  Biso   1.000  C
  H122     1.0000 0.00860  0.64850  0.02110  Biso   1.000  H
  C188     1.0000 0.71670  0.52480  0.80570  Biso   1.000  C
  H123     1.0000 0.73460  0.48620  0.82380  Biso   1.000  H
  C189     1.0000 0.66120  0.54380  0.75360  Biso   1.000  C
  H124     1.0000 0.63900  0.51890  0.73490  Biso   1.000  H
  C190     1.0000 0.05143  0.71320  0.96700  Biso   1.000  C
  C191     1.0000 0.15300  0.78860  0.85860  Biso   1.000  C
  H125     1.0000 0.17840  0.76450  0.86430  Biso   1.000  H
  C192     1.0000 0.74063  0.89170  0.80320  Biso   1.000  C
  C193     1.0000 0.78170  0.02480  0.82670  Biso   1.000  C
  H126     1.0000 0.76780  0.05540  0.80150  Biso   1.000  H
  C194     1.0000 0.65210  0.08540  0.66620  Biso   1.000  C
  H127     1.0000 0.65910  0.14420  0.65950  Biso   1.000  H
  C195     1.0000 0.09279  0.80960  0.88050  Biso   1.000  C
  C196     1.0000 0.69021  0.90140  0.74620  Biso   1.000  C
  C197     1.0000 0.98290  0.89320  0.94040  Biso   1.000  C
  C198     1.0000 0.03660  0.53690  0.04770  Biso   1.000  C
  H128     1.0000 0.01810  0.52160  0.06480  Biso   1.000  H
  C199     1.0000 0.93670  0.96330  0.97510  Biso   1.000  C
  H129     1.0000 0.92700  0.97330  0.00110  Biso   1.000  H
  C200     1.0000 0.67550  0.03940  0.70030  Biso   1.000  C
  H130     1.0000 0.69820  0.06660  0.71680  Biso   1.000  H
  C201     1.0000 0.06730  0.79270  0.91160  Biso   1.000  C
  C202     1.0000 0.69840  0.67230  0.78110  Biso   1.000  C
  C203     1.0000 0.08880  0.57740  0.99770  Biso   1.000  C
  H131     1.0000 0.10730  0.58940  0.98010  Biso   1.000  H
  C204     1.0000 0.09290  0.50680  0.02460  Biso   1.000  C
  H132     1.0000 0.11500  0.47000  0.02590  Biso   1.000  H
  C205     1.0000 0.08130  0.86300  0.84370  Biso   1.000  C
  H133     1.0000 0.05660  0.89090  0.83810  Biso   1.000  H
  C206     1.0000 0.79390  0.89420  0.87030  Biso   1.000  C
  H134     1.0000 0.78900  0.83360  0.87620  Biso   1.000  H
  C207     1.0000 0.81100  0.06740  0.85530  Biso   1.000  C
  H135     1.0000 0.81690  0.12770  0.84980  Biso   1.000  H
  C208     1.0000 0.66630  0.63510  0.75350  Biso   1.000  C
  H136     1.0000 0.64820  0.67210  0.73470  Biso   1.000  H
  C209     1.0000 0.96820  0.90670  0.97710  Biso   1.000  C
  H137     1.0000 0.97940  0.87750  0.00390  Biso   1.000  H
  C210     1.0000 0.82320  0.94220  0.89750  Biso   1.000  C
  H138     1.0000 0.83800  0.91270  0.92240  Biso   1.000  H
  C211     1.0000 0.12970  0.77140  0.88770  Biso   1.000  C
  H139     1.0000 0.13840  0.73390  0.91240  Biso   1.000  H
  C212     1.0000 0.72350  0.61600  0.80800  Biso   1.000  C
  H140     1.0000 0.74540  0.63930  0.82800  Biso   1.000  H
  C213     1.0000 0.63220  0.91710  0.68580  Biso   1.000  C
  H141     1.0000 0.62470  0.85800  0.69140  Biso   1.000  H
  C214     1.0000 0.10630  0.87500  0.81540  Biso   1.000  C
  H142     1.0000 0.09820  0.91100  0.78990  Biso   1.000  H
  C215     1.0000 0.93190  0.98560  0.90250  Biso   1.000  C
  H143     1.0000 0.91840  0.01150  0.87580  Biso   1.000  H
  C216     1.0000 0.96350  0.93030  0.90090  Biso   1.000  C
  H144     1.0000 0.97140  0.91860  0.87390  Biso   1.000  H
  N72      1.0000 0.02272  0.76920  0.97073  Biso   1.000  N
  I42      1.0000 0.88251  0.23355  0.91507  Biso   1.000  I
  I43      1.0000 0.02494  0.35064  0.13139  Biso   1.000  I
  I44      1.0000 0.73740  0.73315  0.30257  Biso   1.000  I
  I45      1.0000 0.11898  0.26560  0.06097  Biso   1.000  I
  I46      1.0000 0.63240  0.67607  0.20022  Biso   1.000  I
  I47      1.0000 0.35427  0.41425  0.50872  Biso   1.000  I
  I48      1.0000 0.39393  0.26677  0.39543  Biso   1.000  I
  Zn19     1.0000 0.08146  0.38100  0.09461  Biso   1.000  Zn
  Zn20     1.0000 0.67500  0.64687  0.27570  Biso   1.000  Zn
  Zn21     1.0000 0.37440  0.40983  0.43508  Biso   1.000  Zn
  N73      1.0000 0.18595  0.01070  0.27901  Biso   1.000  N
  N74      1.0000 0.56799  0.01540  0.54999  Biso   1.000  N
  N75      1.0000 0.11988  0.45090  0.14270  Biso   1.000  N
  N76      1.0000 0.18081  0.68440  0.24955  Biso   1.000  N
  N77      1.0000 0.33157  0.47390  0.39080  Biso   1.000  N
  N78      1.0000 0.64139  0.66200  0.32240  Biso   1.000  N
  N79      1.0000 0.21968  0.55700  0.27152  Biso   1.000  N
  N80      1.0000 0.57484  0.77690  0.43853  Biso   1.000  N
  N81      1.0000 0.23474  0.69520  0.30895  Biso   1.000  N
  N82      1.0000 0.41990  0.49650  0.43840  Biso   1.000  N
  N83      1.0000 0.53766  0.65020  0.41024  Biso   1.000  N
  C217     1.0000 0.11000  0.53230  0.15320  Biso   1.000  C
  H145     1.0000 0.08630  0.55670  0.13750  Biso   1.000  H
  C218     1.0000 0.16560  0.54650  0.21010  Biso   1.000  C
  C219     1.0000 0.55703  0.86700  0.49570  Biso   1.000  C
  C220     1.0000 0.20495  0.72970  0.28040  Biso   1.000  C
  C221     1.0000 0.27245  0.56200  0.33460  Biso   1.000  C
  C222     1.0000 0.51672  0.66540  0.44070  Biso   1.000  C
  C223     1.0000 0.53055  0.88820  0.52160  Biso   1.000  C
  H146     1.0000 0.50860  0.85150  0.52110  Biso   1.000  H
  C224     1.0000 0.21670  0.97520  0.30570  Biso   1.000  C
  H147     1.0000 0.23460  0.01380  0.32380  Biso   1.000  H
  C225     1.0000 0.16120  0.95620  0.25360  Biso   1.000  C
  H148     1.0000 0.13900  0.98110  0.23490  Biso   1.000  H
  C226     1.0000 0.55143  0.78680  0.46700  Biso   1.000  C
  C227     1.0000 0.65300  0.71140  0.35860  Biso   1.000  C
  H149     1.0000 0.67840  0.73550  0.36430  Biso   1.000  H
  C228     1.0000 0.24063  0.60830  0.30320  Biso   1.000  C
  C229     1.0000 0.28170  0.47520  0.32670  Biso   1.000  C
  H150     1.0000 0.26780  0.44460  0.30150  Biso   1.000  H
  C230     1.0000 0.15210  0.41460  0.16620  Biso   1.000  C
  H151     1.0000 0.15910  0.35580  0.15950  Biso   1.000  H
  C231     1.0000 0.59279  0.69040  0.38050  Biso   1.000  C
  C232     1.0000 0.19021  0.59860  0.24620  Biso   1.000  C
  C233     1.0000 0.48290  0.60680  0.44040  Biso   1.000  C
  C234     1.0000 0.53660  0.96310  0.54770  Biso   1.000  C
  H152     1.0000 0.51810  0.97840  0.56480  Biso   1.000  H
  C235     1.0000 0.43670  0.53670  0.47510  Biso   1.000  C
  H153     1.0000 0.42700  0.52670  0.50110  Biso   1.000  H
  C236     1.0000 0.17550  0.46060  0.20030  Biso   1.000  C
  H154     1.0000 0.19820  0.43340  0.21680  Biso   1.000  H
  C237     1.0000 0.56730  0.70730  0.41160  Biso   1.000  C
  C238     1.0000 0.19840  0.82770  0.28110  Biso   1.000  C
  C239     1.0000 0.58880  0.92260  0.49770  Biso   1.000  C
  H155     1.0000 0.60730  0.91060  0.48010  Biso   1.000  H
  C240     1.0000 0.59290  0.99320  0.52460  Biso   1.000  C
  H156     1.0000 0.61500  0.03000  0.52590  Biso   1.000  H
  C241     1.0000 0.58130  0.63700  0.34370  Biso   1.000  C
  H157     1.0000 0.55660  0.60910  0.33810  Biso   1.000  H
  C242     1.0000 0.29390  0.60580  0.37030  Biso   1.000  C
  H158     1.0000 0.28900  0.66640  0.37620  Biso   1.000  H
  C243     1.0000 0.31100  0.43260  0.35530  Biso   1.000  C
  H159     1.0000 0.31690  0.37230  0.34980  Biso   1.000  H
  C244     1.0000 0.16630  0.86490  0.25350  Biso   1.000  C
  H160     1.0000 0.14820  0.82790  0.23470  Biso   1.000  H
  C245     1.0000 0.46820  0.59330  0.47710  Biso   1.000  C
  H161     1.0000 0.47940  0.62250  0.50390  Biso   1.000  H
  C246     1.0000 0.32320  0.55780  0.39750  Biso   1.000  C
  H162     1.0000 0.33800  0.58730  0.42240  Biso   1.000  H
  C247     1.0000 0.62970  0.72860  0.38770  Biso   1.000  C
  H163     1.0000 0.63840  0.76610  0.41240  Biso   1.000  H
  C248     1.0000 0.22350  0.88400  0.30800  Biso   1.000  C
  H164     1.0000 0.24540  0.86070  0.32800  Biso   1.000  H
  C249     1.0000 0.13220  0.58290  0.18580  Biso   1.000  C
  H165     1.0000 0.12470  0.64200  0.19140  Biso   1.000  H
  C250     1.0000 0.60630  0.62500  0.31540  Biso   1.000  C
  H166     1.0000 0.59820  0.58900  0.28990  Biso   1.000  H
  C251     1.0000 0.43190  0.51440  0.40250  Biso   1.000  C
  H167     1.0000 0.41840  0.48850  0.37580  Biso   1.000  H
  C252     1.0000 0.46350  0.56970  0.40090  Biso   1.000  C
  H168     1.0000 0.47140  0.58140  0.37390  Biso   1.000  H
  N84      1.0000 0.52272  0.73080  0.47073  Biso   1.000  N
  I49      1.0000 0.38251  0.26645  0.41507  Biso   1.000  I
  I50      1.0000 0.52494  0.85064  0.13139  Biso   1.000  I
  I51      1.0000 0.23740  0.23315  0.30257  Biso   1.000  I
  I52      1.0000 0.61898  0.76560  0.06097  Biso   1.000  I
  I53      1.0000 0.13240  0.17607  0.20022  Biso   1.000  I
  I54      1.0000 0.85427  0.91425  0.50872  Biso   1.000  I
  I55      1.0000 0.89393  0.76677  0.39543  Biso   1.000  I
  Zn22     1.0000 0.58146  0.88100  0.09461  Biso   1.000  Zn
  Zn23     1.0000 0.17500  0.14687  0.27570  Biso   1.000  Zn
  Zn24     1.0000 0.87440  0.90983  0.43508  Biso   1.000  Zn
  N85      1.0000 0.68595  0.51070  0.27901  Biso   1.000  N
  N86      1.0000 0.06799  0.51540  0.54999  Biso   1.000  N
  N87      1.0000 0.61988  0.95090  0.14270  Biso   1.000  N
  N88      1.0000 0.68081  0.18440  0.24955  Biso   1.000  N
  N89      1.0000 0.83157  0.97390  0.39080  Biso   1.000  N
  N90      1.0000 0.14139  0.16200  0.32240  Biso   1.000  N
  N91      1.0000 0.71968  0.05700  0.27152  Biso   1.000  N
  N92      1.0000 0.07484  0.27690  0.43853  Biso   1.000  N
  N93      1.0000 0.73474  0.19520  0.30895  Biso   1.000  N
  N94      1.0000 0.91990  0.99650  0.43840  Biso   1.000  N
  N95      1.0000 0.03766  0.15020  0.41024  Biso   1.000  N
  C253     1.0000 0.61000  0.03230  0.15320  Biso   1.000  C
  H169     1.0000 0.58630  0.05670  0.13750  Biso   1.000  H
  C254     1.0000 0.66560  0.04650  0.21010  Biso   1.000  C
  C255     1.0000 0.05703  0.36700  0.49570  Biso   1.000  C
  C256     1.0000 0.70495  0.22970  0.28040  Biso   1.000  C
  C257     1.0000 0.77245  0.06200  0.33460  Biso   1.000  C
  C258     1.0000 0.01672  0.16540  0.44070  Biso   1.000  C
  C259     1.0000 0.03055  0.38820  0.52160  Biso   1.000  C
  H170     1.0000 0.00860  0.35150  0.52110  Biso   1.000  H
  C260     1.0000 0.71670  0.47520  0.30570  Biso   1.000  C
  H171     1.0000 0.73460  0.51380  0.32380  Biso   1.000  H
  C261     1.0000 0.66120  0.45620  0.25360  Biso   1.000  C
  H172     1.0000 0.63900  0.48110  0.23490  Biso   1.000  H
  C262     1.0000 0.05143  0.28680  0.46700  Biso   1.000  C
  C263     1.0000 0.15300  0.21140  0.35860  Biso   1.000  C
  H173     1.0000 0.17840  0.23550  0.36430  Biso   1.000  H
  C264     1.0000 0.74063  0.10830  0.30320  Biso   1.000  C
  C265     1.0000 0.78170  0.97520  0.32670  Biso   1.000  C
  H174     1.0000 0.76780  0.94460  0.30150  Biso   1.000  H
  C266     1.0000 0.65210  0.91460  0.16620  Biso   1.000  C
  H175     1.0000 0.65910  0.85580  0.15950  Biso   1.000  H
  C267     1.0000 0.09279  0.19040  0.38050  Biso   1.000  C
  C268     1.0000 0.69021  0.09860  0.24620  Biso   1.000  C
  C269     1.0000 0.98290  0.10680  0.44040  Biso   1.000  C
  C270     1.0000 0.03660  0.46310  0.54770  Biso   1.000  C
  H176     1.0000 0.01810  0.47840  0.56480  Biso   1.000  H
  C271     1.0000 0.93670  0.03670  0.47510  Biso   1.000  C
  H177     1.0000 0.92700  0.02670  0.50110  Biso   1.000  H
  C272     1.0000 0.67550  0.96060  0.20030  Biso   1.000  C
  H178     1.0000 0.69820  0.93340  0.21680  Biso   1.000  H
  C273     1.0000 0.06730  0.20730  0.41160  Biso   1.000  C
  C274     1.0000 0.69840  0.32770  0.28110  Biso   1.000  C
  C275     1.0000 0.08880  0.42260  0.49770  Biso   1.000  C
  H179     1.0000 0.10730  0.41060  0.48010  Biso   1.000  H
  C276     1.0000 0.09290  0.49320  0.52460  Biso   1.000  C
  H180     1.0000 0.11500  0.53000  0.52590  Biso   1.000  H
  C277     1.0000 0.08130  0.13700  0.34370  Biso   1.000  C
  H181     1.0000 0.05660  0.10910  0.33810  Biso   1.000  H
  C278     1.0000 0.79390  0.10580  0.37030  Biso   1.000  C
  H182     1.0000 0.78900  0.16640  0.37620  Biso   1.000  H
  C279     1.0000 0.81100  0.93260  0.35530  Biso   1.000  C
  H183     1.0000 0.81690  0.87230  0.34980  Biso   1.000  H
  C280     1.0000 0.66630  0.36490  0.25350  Biso   1.000  C
  H184     1.0000 0.64820  0.32790  0.23470  Biso   1.000  H
  C281     1.0000 0.96820  0.09330  0.47710  Biso   1.000  C
  H185     1.0000 0.97940  0.12250  0.50390  Biso   1.000  H
  C282     1.0000 0.82320  0.05780  0.39750  Biso   1.000  C
  H186     1.0000 0.83800  0.08730  0.42240  Biso   1.000  H
  C283     1.0000 0.12970  0.22860  0.38770  Biso   1.000  C
  H187     1.0000 0.13840  0.26610  0.41240  Biso   1.000  H
  C284     1.0000 0.72350  0.38400  0.30800  Biso   1.000  C
  H188     1.0000 0.74540  0.36070  0.32800  Biso   1.000  H
  C285     1.0000 0.63220  0.08290  0.18580  Biso   1.000  C
  H189     1.0000 0.62470  0.14200  0.19140  Biso   1.000  H
  C286     1.0000 0.10630  0.12500  0.31540  Biso   1.000  C
  H190     1.0000 0.09820  0.08900  0.28990  Biso   1.000  H
  C287     1.0000 0.93190  0.01440  0.40250  Biso   1.000  C
  H191     1.0000 0.91840  0.98850  0.37580  Biso   1.000  H
  C288     1.0000 0.96350  0.06970  0.40090  Biso   1.000  C
  H192     1.0000 0.97140  0.08140  0.37390  Biso   1.000  H
  N96      1.0000 0.02272  0.23080  0.47073  Biso   1.000  N
  I56      1.0000 0.88251  0.76645  0.41507  Biso   1.000  I
