data_image0
_cell_length_a       35.7936
_cell_length_b       14.8908
_cell_length_c       31.3707
_cell_angle_alpha    90
_cell_angle_beta     102.673
_cell_angle_gamma    90

_symmetry_space_group_name_H-M    "P 1"
_symmetry_int_tables_number       1

loop_
  _symmetry_equiv_pos_as_xyz
  'x, y, z'

loop_
  _atom_site_label
  _atom_site_occupancy
  _atom_site_fract_x
  _atom_site_fract_y
  _atom_site_fract_z
  _atom_site_thermal_displace_type
  _atom_site_B_iso_or_equiv
  _atom_site_type_symbol
  I1       1.0000 0.73682  0.76626  0.30057  Biso   1.000  I
  I2       1.0000 0.61663  0.26252  0.56143  Biso   1.000  I
  I3       1.0000 0.63109  0.82789  0.20006  Biso   1.000  I
  I4       1.0000 0.52519  0.35683  0.62924  Biso   1.000  I
  I5       1.0000 0.89665  0.26665  0.89506  Biso   1.000  I
  I6       1.0000 0.86290  0.41137  0.00677  Biso   1.000  I
  Zn1      1.0000 0.88018  0.40964  0.93245  Biso   1.000  Zn
  Zn2      1.0000 0.67510  0.85367  0.27473  Biso   1.000  Zn
  Zn3      1.0000 0.58495  0.38196  0.59525  Biso   1.000  Zn
  N1       1.0000 0.57330  0.48780  0.55130  Biso   1.000  N
  N2       1.0000 0.64166  0.83380  0.31940  Biso   1.000  N
  N3       1.0000 0.72255  0.55410  0.77339  Biso   1.000  N
  N4       1.0000 0.68641  0.00910  0.78010  Biso   1.000  N
  N5       1.0000 0.83588  0.47240  0.89040  Biso   1.000  N
  N6       1.0000 0.73696  0.69300  0.81080  Biso   1.000  N
  N7       1.0000 0.54017  0.84590  0.40700  Biso   1.000  N
  N8       1.0000 0.62290  0.44780  0.64410  Biso   1.000  N
  N9       1.0000 0.68334  0.68100  0.75160  Biso   1.000  N
  N10      1.0000 0.57786  0.71920  0.43640  Biso   1.000  N
  C1       1.0000 0.78330  0.47020  0.82820  Biso   1.000  C
  H1       1.0000 0.76850  0.43830  0.80500  Biso   1.000  H
  C2       1.0000 0.77518  0.56070  0.83540  Biso   1.000  C
  N11      1.0000 0.42485  0.00270  0.43530  Biso   1.000  N
  C3       1.0000 0.82820  0.55660  0.89680  Biso   1.000  C
  H2       1.0000 0.84350  0.58650  0.92030  Biso   1.000  H
  C4       1.0000 0.70749  0.72690  0.78270  Biso   1.000  C
  C5       1.0000 0.48700  0.89130  0.43720  Biso   1.000  C
  C6       1.0000 0.67790  0.45580  0.70330  Biso   1.000  C
  H3       1.0000 0.69940  0.42780  0.71990  Biso   1.000  H
  C7       1.0000 0.69267  0.59550  0.74830  Biso   1.000  C
  C8       1.0000 0.56936  0.78790  0.40930  Biso   1.000  C
  C9       1.0000 0.70000  0.82520  0.78350  Biso   1.000  C
  C10      1.0000 0.52040  0.83220  0.43780  Biso   1.000  C
  C11      1.0000 0.79810  0.60400  0.87030  Biso   1.000  C
  H4       1.0000 0.79370  0.66380  0.87620  Biso   1.000  H
  C12      1.0000 0.63570  0.58070  0.68690  Biso   1.000  C
  H5       1.0000 0.62870  0.63920  0.69200  Biso   1.000  H
  C13      1.0000 0.44120  0.95720  0.47090  Biso   1.000  C
  H6       1.0000 0.43110  0.96340  0.49570  Biso   1.000  H
  C14      1.0000 0.66860  0.54310  0.71250  Biso   1.000  C
  C15      1.0000 0.65430  0.41090  0.66840  Biso   1.000  C
  H7       1.0000 0.66070  0.35270  0.66200  Biso   1.000  H
  C16      1.0000 0.66240  0.95350  0.75380  Biso   1.000  C
  H8       1.0000 0.64130  0.97730  0.73450  Biso   1.000  H
  C17      1.0000 0.56210  0.63490  0.49540  Biso   1.000  C
  C18      1.0000 0.59990  0.51280  0.52970  Biso   1.000  C
  H9       1.0000 0.62240  0.47940  0.53370  Biso   1.000  H
  C19      1.0000 0.81370  0.42990  0.85650  Biso   1.000  C
  H10      1.0000 0.81900  0.37010  0.85180  Biso   1.000  H
  C20      1.0000 0.55578  0.71260  0.46510  Biso   1.000  C
  C21      1.0000 0.71700  0.97480  0.80680  Biso   1.000  C
  H11      1.0000 0.73400  0.01370  0.82450  Biso   1.000  H
  C22      1.0000 0.74310  0.60510  0.80490  Biso   1.000  C
  C23      1.0000 0.53490  0.60920  0.51780  Biso   1.000  C
  H12      1.0000 0.51220  0.64150  0.51450  Biso   1.000  H
  C24      1.0000 0.47210  0.90160  0.47320  Biso   1.000  C
  H13      1.0000 0.48280  0.87150  0.49900  Biso   1.000  H
  C25      1.0000 0.72470  0.88380  0.80950  Biso   1.000  C
  H14      1.0000 0.74650  0.86230  0.82870  Biso   1.000  H
  C26      1.0000 0.54120  0.53600  0.54480  Biso   1.000  C
  H15      1.0000 0.52220  0.51920  0.55930  Biso   1.000  H
  C27      1.0000 0.66820  0.86110  0.75470  Biso   1.000  C
  H16      1.0000 0.65110  0.82370  0.73620  Biso   1.000  H
  C28      1.0000 0.61380  0.53080  0.65420  Biso   1.000  C
  H17      1.0000 0.59140  0.55610  0.63810  Biso   1.000  H
  N12      1.0000 0.52747  0.76910  0.46870  Biso   1.000  N
  C29      1.0000 0.59450  0.80250  0.37760  Biso   1.000  C
  C30      1.0000 0.59600  0.58540  0.50180  Biso   1.000  C
  H18      1.0000 0.61530  0.60090  0.48770  Biso   1.000  H
  C31      1.0000 0.65200  0.77990  0.35410  Biso   1.000  C
  H19      1.0000 0.67580  0.75200  0.35870  Biso   1.000  H
  C32      1.0000 0.62960  0.76380  0.38300  Biso   1.000  C
  H20      1.0000 0.63830  0.72600  0.40670  Biso   1.000  H
  C33      1.0000 0.43880  0.99010  0.40030  Biso   1.000  C
  H21      1.0000 0.42740  0.02020  0.37480  Biso   1.000  H
  C34      1.0000 0.58330  0.86020  0.34190  Biso   1.000  C
  H22      1.0000 0.55980  0.88950  0.33690  Biso   1.000  H
  C35      1.0000 0.46930  0.93450  0.39960  Biso   1.000  C
  H23      1.0000 0.47790  0.92630  0.37400  Biso   1.000  H
  C36      1.0000 0.60800  0.87260  0.31420  Biso   1.000  C
  H24      1.0000 0.60040  0.91080  0.29050  Biso   1.000  H
  I7       1.0000 0.88660  0.27140  0.90980  Biso   1.000  I
  I8       1.0000 0.63399  0.27620  0.55535  Biso   1.000  I
  I9       1.0000 0.53475  0.34000  0.61589  Biso   1.000  I
  I10      1.0000 0.23682  0.26626  0.30057  Biso   1.000  I
  I11      1.0000 0.11663  0.76252  0.56143  Biso   1.000  I
  I12      1.0000 0.13109  0.32789  0.20006  Biso   1.000  I
  I13      1.0000 0.02519  0.85683  0.62924  Biso   1.000  I
  I14      1.0000 0.39665  0.76665  0.89506  Biso   1.000  I
  I15      1.0000 0.36290  0.91137  0.00677  Biso   1.000  I
  Zn4      1.0000 0.38018  0.90964  0.93245  Biso   1.000  Zn
  Zn5      1.0000 0.17510  0.35367  0.27473  Biso   1.000  Zn
  Zn6      1.0000 0.08495  0.88196  0.59525  Biso   1.000  Zn
  N13      1.0000 0.07330  0.98780  0.55130  Biso   1.000  N
  N14      1.0000 0.14166  0.33380  0.31940  Biso   1.000  N
  N15      1.0000 0.22255  0.05410  0.77339  Biso   1.000  N
  N16      1.0000 0.18641  0.50910  0.78010  Biso   1.000  N
  N17      1.0000 0.33588  0.97240  0.89040  Biso   1.000  N
  N18      1.0000 0.23696  0.19300  0.81080  Biso   1.000  N
  N19      1.0000 0.04017  0.34590  0.40700  Biso   1.000  N
  N20      1.0000 0.12290  0.94780  0.64410  Biso   1.000  N
  N21      1.0000 0.18334  0.18100  0.75160  Biso   1.000  N
  N22      1.0000 0.07786  0.21920  0.43640  Biso   1.000  N
  C37      1.0000 0.28330  0.97020  0.82820  Biso   1.000  C
  H25      1.0000 0.26850  0.93830  0.80500  Biso   1.000  H
  C38      1.0000 0.27518  0.06070  0.83540  Biso   1.000  C
  N23      1.0000 0.92485  0.50270  0.43530  Biso   1.000  N
  C39      1.0000 0.32820  0.05660  0.89680  Biso   1.000  C
  H26      1.0000 0.34350  0.08650  0.92030  Biso   1.000  H
  C40      1.0000 0.20749  0.22690  0.78270  Biso   1.000  C
  C41      1.0000 0.98700  0.39130  0.43720  Biso   1.000  C
  C42      1.0000 0.17790  0.95580  0.70330  Biso   1.000  C
  H27      1.0000 0.19940  0.92780  0.71990  Biso   1.000  H
  C43      1.0000 0.19267  0.09550  0.74830  Biso   1.000  C
  C44      1.0000 0.06936  0.28790  0.40930  Biso   1.000  C
  C45      1.0000 0.20000  0.32520  0.78350  Biso   1.000  C
  C46      1.0000 0.02040  0.33220  0.43780  Biso   1.000  C
  C47      1.0000 0.29810  0.10400  0.87030  Biso   1.000  C
  H28      1.0000 0.29370  0.16380  0.87620  Biso   1.000  H
  C48      1.0000 0.13570  0.08070  0.68690  Biso   1.000  C
  H29      1.0000 0.12870  0.13920  0.69200  Biso   1.000  H
  C49      1.0000 0.94120  0.45720  0.47090  Biso   1.000  C
  H30      1.0000 0.93110  0.46340  0.49570  Biso   1.000  H
  C50      1.0000 0.16860  0.04310  0.71250  Biso   1.000  C
  C51      1.0000 0.15430  0.91090  0.66840  Biso   1.000  C
  H31      1.0000 0.16070  0.85270  0.66200  Biso   1.000  H
  C52      1.0000 0.16240  0.45350  0.75380  Biso   1.000  C
  H32      1.0000 0.14130  0.47730  0.73450  Biso   1.000  H
  C53      1.0000 0.06210  0.13490  0.49540  Biso   1.000  C
  C54      1.0000 0.09990  0.01280  0.52970  Biso   1.000  C
  H33      1.0000 0.12240  0.97940  0.53370  Biso   1.000  H
  C55      1.0000 0.31370  0.92990  0.85650  Biso   1.000  C
  H34      1.0000 0.31900  0.87010  0.85180  Biso   1.000  H
  C56      1.0000 0.05578  0.21260  0.46510  Biso   1.000  C
  C57      1.0000 0.21700  0.47480  0.80680  Biso   1.000  C
  H35      1.0000 0.23400  0.51370  0.82450  Biso   1.000  H
  C58      1.0000 0.24310  0.10510  0.80490  Biso   1.000  C
  C59      1.0000 0.03490  0.10920  0.51780  Biso   1.000  C
  H36      1.0000 0.01220  0.14150  0.51450  Biso   1.000  H
  C60      1.0000 0.97210  0.40160  0.47320  Biso   1.000  C
  H37      1.0000 0.98280  0.37150  0.49900  Biso   1.000  H
  C61      1.0000 0.22470  0.38380  0.80950  Biso   1.000  C
  H38      1.0000 0.24650  0.36230  0.82870  Biso   1.000  H
  C62      1.0000 0.04120  0.03600  0.54480  Biso   1.000  C
  H39      1.0000 0.02220  0.01920  0.55930  Biso   1.000  H
  C63      1.0000 0.16820  0.36110  0.75470  Biso   1.000  C
  H40      1.0000 0.15110  0.32370  0.73620  Biso   1.000  H
  C64      1.0000 0.11380  0.03080  0.65420  Biso   1.000  C
  H41      1.0000 0.09140  0.05610  0.63810  Biso   1.000  H
  N24      1.0000 0.02747  0.26910  0.46870  Biso   1.000  N
  C65      1.0000 0.09450  0.30250  0.37760  Biso   1.000  C
  C66      1.0000 0.09600  0.08540  0.50180  Biso   1.000  C
  H42      1.0000 0.11530  0.10090  0.48770  Biso   1.000  H
  C67      1.0000 0.15200  0.27990  0.35410  Biso   1.000  C
  H43      1.0000 0.17580  0.25200  0.35870  Biso   1.000  H
  C68      1.0000 0.12960  0.26380  0.38300  Biso   1.000  C
  H44      1.0000 0.13830  0.22600  0.40670  Biso   1.000  H
  C69      1.0000 0.93880  0.49010  0.40030  Biso   1.000  C
  H45      1.0000 0.92740  0.52020  0.37480  Biso   1.000  H
  C70      1.0000 0.08330  0.36020  0.34190  Biso   1.000  C
  H46      1.0000 0.05980  0.38950  0.33690  Biso   1.000  H
  C71      1.0000 0.96930  0.43450  0.39960  Biso   1.000  C
  H47      1.0000 0.97790  0.42630  0.37400  Biso   1.000  H
  C72      1.0000 0.10800  0.37260  0.31420  Biso   1.000  C
  H48      1.0000 0.10040  0.41080  0.29050  Biso   1.000  H
  I16      1.0000 0.38660  0.77140  0.90980  Biso   1.000  I
  I17      1.0000 0.13399  0.77620  0.55535  Biso   1.000  I
  I18      1.0000 0.03475  0.84000  0.61589  Biso   1.000  I
  I19      1.0000 0.73682  0.23374  0.80057  Biso   1.000  I
  I20      1.0000 0.61663  0.73748  0.06143  Biso   1.000  I
  I21      1.0000 0.63109  0.17211  0.70006  Biso   1.000  I
  I22      1.0000 0.52519  0.64317  0.12924  Biso   1.000  I
  I23      1.0000 0.89665  0.73335  0.39506  Biso   1.000  I
  I24      1.0000 0.86290  0.58863  0.50677  Biso   1.000  I
  Zn7      1.0000 0.88018  0.59036  0.43245  Biso   1.000  Zn
  Zn8      1.0000 0.67510  0.14633  0.77473  Biso   1.000  Zn
  Zn9      1.0000 0.58495  0.61804  0.09525  Biso   1.000  Zn
  N25      1.0000 0.57330  0.51220  0.05130  Biso   1.000  N
  N26      1.0000 0.64166  0.16620  0.81940  Biso   1.000  N
  N27      1.0000 0.72255  0.44590  0.27339  Biso   1.000  N
  N28      1.0000 0.68641  0.99090  0.28010  Biso   1.000  N
  N29      1.0000 0.83588  0.52760  0.39040  Biso   1.000  N
  N30      1.0000 0.73696  0.30700  0.31080  Biso   1.000  N
  N31      1.0000 0.54017  0.15410  0.90700  Biso   1.000  N
  N32      1.0000 0.62290  0.55220  0.14410  Biso   1.000  N
  N33      1.0000 0.68334  0.31900  0.25160  Biso   1.000  N
  N34      1.0000 0.57786  0.28080  0.93640  Biso   1.000  N
  C73      1.0000 0.78330  0.52980  0.32820  Biso   1.000  C
  H49      1.0000 0.76850  0.56170  0.30500  Biso   1.000  H
  C74      1.0000 0.77518  0.43930  0.33540  Biso   1.000  C
  N35      1.0000 0.42485  0.99730  0.93530  Biso   1.000  N
  C75      1.0000 0.82820  0.44340  0.39680  Biso   1.000  C
  H50      1.0000 0.84350  0.41350  0.42030  Biso   1.000  H
  C76      1.0000 0.70749  0.27310  0.28270  Biso   1.000  C
  C77      1.0000 0.48700  0.10870  0.93720  Biso   1.000  C
  C78      1.0000 0.67790  0.54420  0.20330  Biso   1.000  C
  H51      1.0000 0.69940  0.57220  0.21990  Biso   1.000  H
  C79      1.0000 0.69267  0.40450  0.24830  Biso   1.000  C
  C80      1.0000 0.56936  0.21210  0.90930  Biso   1.000  C
  C81      1.0000 0.70000  0.17480  0.28350  Biso   1.000  C
  C82      1.0000 0.52040  0.16780  0.93780  Biso   1.000  C
  C83      1.0000 0.79810  0.39600  0.37030  Biso   1.000  C
  H52      1.0000 0.79370  0.33620  0.37620  Biso   1.000  H
  C84      1.0000 0.63570  0.41930  0.18690  Biso   1.000  C
  H53      1.0000 0.62870  0.36080  0.19200  Biso   1.000  H
  C85      1.0000 0.44120  0.04280  0.97090  Biso   1.000  C
  H54      1.0000 0.43110  0.03660  0.99570  Biso   1.000  H
  C86      1.0000 0.66860  0.45690  0.21250  Biso   1.000  C
  C87      1.0000 0.65430  0.58910  0.16840  Biso   1.000  C
  H55      1.0000 0.66070  0.64730  0.16200  Biso   1.000  H
  C88      1.0000 0.66240  0.04650  0.25380  Biso   1.000  C
  H56      1.0000 0.64130  0.02270  0.23450  Biso   1.000  H
  C89      1.0000 0.56210  0.36510  0.99540  Biso   1.000  C
  C90      1.0000 0.59990  0.48720  0.02970  Biso   1.000  C
  H57      1.0000 0.62240  0.52060  0.03370  Biso   1.000  H
  C91      1.0000 0.81370  0.57010  0.35650  Biso   1.000  C
  H58      1.0000 0.81900  0.62990  0.35180  Biso   1.000  H
  C92      1.0000 0.55578  0.28740  0.96510  Biso   1.000  C
  C93      1.0000 0.71700  0.02520  0.30680  Biso   1.000  C
  H59      1.0000 0.73400  0.98630  0.32450  Biso   1.000  H
  C94      1.0000 0.74310  0.39490  0.30490  Biso   1.000  C
  C95      1.0000 0.53490  0.39080  0.01780  Biso   1.000  C
  H60      1.0000 0.51220  0.35850  0.01450  Biso   1.000  H
  C96      1.0000 0.47210  0.09840  0.97320  Biso   1.000  C
  H61      1.0000 0.48280  0.12850  0.99900  Biso   1.000  H
  C97      1.0000 0.72470  0.11620  0.30950  Biso   1.000  C
  H62      1.0000 0.74650  0.13770  0.32870  Biso   1.000  H
  C98      1.0000 0.54120  0.46400  0.04480  Biso   1.000  C
  H63      1.0000 0.52220  0.48080  0.05930  Biso   1.000  H
  C99      1.0000 0.66820  0.13890  0.25470  Biso   1.000  C
  H64      1.0000 0.65110  0.17630  0.23620  Biso   1.000  H
  C100     1.0000 0.61380  0.46920  0.15420  Biso   1.000  C
  H65      1.0000 0.59140  0.44390  0.13810  Biso   1.000  H
  N36      1.0000 0.52747  0.23090  0.96870  Biso   1.000  N
  C101     1.0000 0.59450  0.19750  0.87760  Biso   1.000  C
  C102     1.0000 0.59600  0.41460  0.00180  Biso   1.000  C
  H66      1.0000 0.61530  0.39910  0.98770  Biso   1.000  H
  C103     1.0000 0.65200  0.22010  0.85410  Biso   1.000  C
  H67      1.0000 0.67580  0.24800  0.85870  Biso   1.000  H
  C104     1.0000 0.62960  0.23620  0.88300  Biso   1.000  C
  H68      1.0000 0.63830  0.27400  0.90670  Biso   1.000  H
  C105     1.0000 0.43880  0.00990  0.90030  Biso   1.000  C
  H69      1.0000 0.42740  0.97980  0.87480  Biso   1.000  H
  C106     1.0000 0.58330  0.13980  0.84190  Biso   1.000  C
  H70      1.0000 0.55980  0.11050  0.83690  Biso   1.000  H
  C107     1.0000 0.46930  0.06550  0.89960  Biso   1.000  C
  H71      1.0000 0.47790  0.07370  0.87400  Biso   1.000  H
  C108     1.0000 0.60800  0.12740  0.81420  Biso   1.000  C
  H72      1.0000 0.60040  0.08920  0.79050  Biso   1.000  H
  I25      1.0000 0.88660  0.72860  0.40980  Biso   1.000  I
  I26      1.0000 0.63399  0.72380  0.05535  Biso   1.000  I
  I27      1.0000 0.53475  0.66000  0.11589  Biso   1.000  I
  I28      1.0000 0.23682  0.73374  0.80057  Biso   1.000  I
  I29      1.0000 0.11663  0.23748  0.06143  Biso   1.000  I
  I30      1.0000 0.13109  0.67211  0.70006  Biso   1.000  I
  I31      1.0000 0.02519  0.14317  0.12924  Biso   1.000  I
  I32      1.0000 0.39665  0.23335  0.39506  Biso   1.000  I
  I33      1.0000 0.36290  0.08863  0.50677  Biso   1.000  I
  Zn10     1.0000 0.38018  0.09036  0.43245  Biso   1.000  Zn
  Zn11     1.0000 0.17510  0.64633  0.77473  Biso   1.000  Zn
  Zn12     1.0000 0.08495  0.11804  0.09525  Biso   1.000  Zn
  N37      1.0000 0.07330  0.01220  0.05130  Biso   1.000  N
  N38      1.0000 0.14166  0.66620  0.81940  Biso   1.000  N
  N39      1.0000 0.22255  0.94590  0.27339  Biso   1.000  N
  N40      1.0000 0.18641  0.49090  0.28010  Biso   1.000  N
  N41      1.0000 0.33588  0.02760  0.39040  Biso   1.000  N
  N42      1.0000 0.23696  0.80700  0.31080  Biso   1.000  N
  N43      1.0000 0.04017  0.65410  0.90700  Biso   1.000  N
  N44      1.0000 0.12290  0.05220  0.14410  Biso   1.000  N
  N45      1.0000 0.18334  0.81900  0.25160  Biso   1.000  N
  N46      1.0000 0.07786  0.78080  0.93640  Biso   1.000  N
  C109     1.0000 0.28330  0.02980  0.32820  Biso   1.000  C
  H73      1.0000 0.26850  0.06170  0.30500  Biso   1.000  H
  C110     1.0000 0.27518  0.93930  0.33540  Biso   1.000  C
  N47      1.0000 0.92485  0.49730  0.93530  Biso   1.000  N
  C111     1.0000 0.32820  0.94340  0.39680  Biso   1.000  C
  H74      1.0000 0.34350  0.91350  0.42030  Biso   1.000  H
  C112     1.0000 0.20749  0.77310  0.28270  Biso   1.000  C
  C113     1.0000 0.98700  0.60870  0.93720  Biso   1.000  C
  C114     1.0000 0.17790  0.04420  0.20330  Biso   1.000  C
  H75      1.0000 0.19940  0.07220  0.21990  Biso   1.000  H
  C115     1.0000 0.19267  0.90450  0.24830  Biso   1.000  C
  C116     1.0000 0.06936  0.71210  0.90930  Biso   1.000  C
  C117     1.0000 0.20000  0.67480  0.28350  Biso   1.000  C
  C118     1.0000 0.02040  0.66780  0.93780  Biso   1.000  C
  C119     1.0000 0.29810  0.89600  0.37030  Biso   1.000  C
  H76      1.0000 0.29370  0.83620  0.37620  Biso   1.000  H
  C120     1.0000 0.13570  0.91930  0.18690  Biso   1.000  C
  H77      1.0000 0.12870  0.86080  0.19200  Biso   1.000  H
  C121     1.0000 0.94120  0.54280  0.97090  Biso   1.000  C
  H78      1.0000 0.93110  0.53660  0.99570  Biso   1.000  H
  C122     1.0000 0.16860  0.95690  0.21250  Biso   1.000  C
  C123     1.0000 0.15430  0.08910  0.16840  Biso   1.000  C
  H79      1.0000 0.16070  0.14730  0.16200  Biso   1.000  H
  C124     1.0000 0.16240  0.54650  0.25380  Biso   1.000  C
  H80      1.0000 0.14130  0.52270  0.23450  Biso   1.000  H
  C125     1.0000 0.06210  0.86510  0.99540  Biso   1.000  C
  C126     1.0000 0.09990  0.98720  0.02970  Biso   1.000  C
  H81      1.0000 0.12240  0.02060  0.03370  Biso   1.000  H
  C127     1.0000 0.31370  0.07010  0.35650  Biso   1.000  C
  H82      1.0000 0.31900  0.12990  0.35180  Biso   1.000  H
  C128     1.0000 0.05578  0.78740  0.96510  Biso   1.000  C
  C129     1.0000 0.21700  0.52520  0.30680  Biso   1.000  C
  H83      1.0000 0.23400  0.48630  0.32450  Biso   1.000  H
  C130     1.0000 0.24310  0.89490  0.30490  Biso   1.000  C
  C131     1.0000 0.03490  0.89080  0.01780  Biso   1.000  C
  H84      1.0000 0.01220  0.85850  0.01450  Biso   1.000  H
  C132     1.0000 0.97210  0.59840  0.97320  Biso   1.000  C
  H85      1.0000 0.98280  0.62850  0.99900  Biso   1.000  H
  C133     1.0000 0.22470  0.61620  0.30950  Biso   1.000  C
  H86      1.0000 0.24650  0.63770  0.32870  Biso   1.000  H
  C134     1.0000 0.04120  0.96400  0.04480  Biso   1.000  C
  H87      1.0000 0.02220  0.98080  0.05930  Biso   1.000  H
  C135     1.0000 0.16820  0.63890  0.25470  Biso   1.000  C
  H88      1.0000 0.15110  0.67630  0.23620  Biso   1.000  H
  C136     1.0000 0.11380  0.96920  0.15420  Biso   1.000  C
  H89      1.0000 0.09140  0.94390  0.13810  Biso   1.000  H
  N48      1.0000 0.02747  0.73090  0.96870  Biso   1.000  N
  C137     1.0000 0.09450  0.69750  0.87760  Biso   1.000  C
  C138     1.0000 0.09600  0.91460  0.00180  Biso   1.000  C
  H90      1.0000 0.11530  0.89910  0.98770  Biso   1.000  H
  C139     1.0000 0.15200  0.72010  0.85410  Biso   1.000  C
  H91      1.0000 0.17580  0.74800  0.85870  Biso   1.000  H
  C140     1.0000 0.12960  0.73620  0.88300  Biso   1.000  C
  H92      1.0000 0.13830  0.77400  0.90670  Biso   1.000  H
  C141     1.0000 0.93880  0.50990  0.90030  Biso   1.000  C
  H93      1.0000 0.92740  0.47980  0.87480  Biso   1.000  H
  C142     1.0000 0.08330  0.63980  0.84190  Biso   1.000  C
  H94      1.0000 0.05980  0.61050  0.83690  Biso   1.000  H
  C143     1.0000 0.96930  0.56550  0.89960  Biso   1.000  C
  H95      1.0000 0.97790  0.57370  0.87400  Biso   1.000  H
  C144     1.0000 0.10800  0.62740  0.81420  Biso   1.000  C
  H96      1.0000 0.10040  0.58920  0.79050  Biso   1.000  H
  I34      1.0000 0.38660  0.22860  0.40980  Biso   1.000  I
  I35      1.0000 0.13399  0.22380  0.05535  Biso   1.000  I
  I36      1.0000 0.03475  0.16000  0.11589  Biso   1.000  I
  I37      1.0000 0.26318  0.76626  0.19943  Biso   1.000  I
  I38      1.0000 0.38337  0.26252  0.93857  Biso   1.000  I
  I39      1.0000 0.36891  0.82789  0.29994  Biso   1.000  I
  I40      1.0000 0.47481  0.35683  0.87076  Biso   1.000  I
  I41      1.0000 0.10335  0.26665  0.60494  Biso   1.000  I
  I42      1.0000 0.13710  0.41137  0.49323  Biso   1.000  I
  Zn13     1.0000 0.11982  0.40964  0.56755  Biso   1.000  Zn
  Zn14     1.0000 0.32490  0.85367  0.22527  Biso   1.000  Zn
  Zn15     1.0000 0.41505  0.38196  0.90475  Biso   1.000  Zn
  N49      1.0000 0.42670  0.48780  0.94870  Biso   1.000  N
  N50      1.0000 0.35834  0.83380  0.18060  Biso   1.000  N
  N51      1.0000 0.27745  0.55410  0.72661  Biso   1.000  N
  N52      1.0000 0.31359  0.00910  0.71990  Biso   1.000  N
  N53      1.0000 0.16412  0.47240  0.60960  Biso   1.000  N
  N54      1.0000 0.26304  0.69300  0.68920  Biso   1.000  N
  N55      1.0000 0.45983  0.84590  0.09300  Biso   1.000  N
  N56      1.0000 0.37710  0.44780  0.85590  Biso   1.000  N
  N57      1.0000 0.31666  0.68100  0.74840  Biso   1.000  N
  N58      1.0000 0.42214  0.71920  0.06360  Biso   1.000  N
  C145     1.0000 0.21670  0.47020  0.67180  Biso   1.000  C
  H97      1.0000 0.23150  0.43830  0.69500  Biso   1.000  H
  C146     1.0000 0.22482  0.56070  0.66460  Biso   1.000  C
  N59      1.0000 0.57515  0.00270  0.06470  Biso   1.000  N
  C147     1.0000 0.17180  0.55660  0.60320  Biso   1.000  C
  H98      1.0000 0.15650  0.58650  0.57970  Biso   1.000  H
  C148     1.0000 0.29251  0.72690  0.71730  Biso   1.000  C
  C149     1.0000 0.51300  0.89130  0.06280  Biso   1.000  C
  C150     1.0000 0.32210  0.45580  0.79670  Biso   1.000  C
  H99      1.0000 0.30060  0.42780  0.78010  Biso   1.000  H
  C151     1.0000 0.30733  0.59550  0.75170  Biso   1.000  C
  C152     1.0000 0.43064  0.78790  0.09070  Biso   1.000  C
  C153     1.0000 0.30000  0.82520  0.71650  Biso   1.000  C
  C154     1.0000 0.47960  0.83220  0.06220  Biso   1.000  C
  C155     1.0000 0.20190  0.60400  0.62970  Biso   1.000  C
  H100     1.0000 0.20630  0.66380  0.62380  Biso   1.000  H
  C156     1.0000 0.36430  0.58070  0.81310  Biso   1.000  C
  H101     1.0000 0.37130  0.63920  0.80800  Biso   1.000  H
  C157     1.0000 0.55880  0.95720  0.02910  Biso   1.000  C
  H102     1.0000 0.56890  0.96340  0.00430  Biso   1.000  H
  C158     1.0000 0.33140  0.54310  0.78750  Biso   1.000  C
  C159     1.0000 0.34570  0.41090  0.83160  Biso   1.000  C
  H103     1.0000 0.33930  0.35270  0.83800  Biso   1.000  H
  C160     1.0000 0.33760  0.95350  0.74620  Biso   1.000  C
  H104     1.0000 0.35870  0.97730  0.76550  Biso   1.000  H
  C161     1.0000 0.43790  0.63490  0.00460  Biso   1.000  C
  C162     1.0000 0.40010  0.51280  0.97030  Biso   1.000  C
  H105     1.0000 0.37760  0.47940  0.96630  Biso   1.000  H
  C163     1.0000 0.18630  0.42990  0.64350  Biso   1.000  C
  H106     1.0000 0.18100  0.37010  0.64820  Biso   1.000  H
  C164     1.0000 0.44422  0.71260  0.03490  Biso   1.000  C
  C165     1.0000 0.28300  0.97480  0.69320  Biso   1.000  C
  H107     1.0000 0.26600  0.01370  0.67550  Biso   1.000  H
  C166     1.0000 0.25690  0.60510  0.69510  Biso   1.000  C
  C167     1.0000 0.46510  0.60920  0.98220  Biso   1.000  C
  H108     1.0000 0.48780  0.64150  0.98550  Biso   1.000  H
  C168     1.0000 0.52790  0.90160  0.02680  Biso   1.000  C
  H109     1.0000 0.51720  0.87150  0.00100  Biso   1.000  H
  C169     1.0000 0.27530  0.88380  0.69050  Biso   1.000  C
  H110     1.0000 0.25350  0.86230  0.67130  Biso   1.000  H
  C170     1.0000 0.45880  0.53600  0.95520  Biso   1.000  C
  H111     1.0000 0.47780  0.51920  0.94070  Biso   1.000  H
  C171     1.0000 0.33180  0.86110  0.74530  Biso   1.000  C
  H112     1.0000 0.34890  0.82370  0.76380  Biso   1.000  H
  C172     1.0000 0.38620  0.53080  0.84580  Biso   1.000  C
  H113     1.0000 0.40860  0.55610  0.86190  Biso   1.000  H
  N60      1.0000 0.47253  0.76910  0.03130  Biso   1.000  N
  C173     1.0000 0.40550  0.80250  0.12240  Biso   1.000  C
  C174     1.0000 0.40400  0.58540  0.99820  Biso   1.000  C
  H114     1.0000 0.38470  0.60090  0.01230  Biso   1.000  H
  C175     1.0000 0.34800  0.77990  0.14590  Biso   1.000  C
  H115     1.0000 0.32420  0.75200  0.14130  Biso   1.000  H
  C176     1.0000 0.37040  0.76380  0.11700  Biso   1.000  C
  H116     1.0000 0.36170  0.72600  0.09330  Biso   1.000  H
  C177     1.0000 0.56120  0.99010  0.09970  Biso   1.000  C
  H117     1.0000 0.57260  0.02020  0.12520  Biso   1.000  H
  C178     1.0000 0.41670  0.86020  0.15810  Biso   1.000  C
  H118     1.0000 0.44020  0.88950  0.16310  Biso   1.000  H
  C179     1.0000 0.53070  0.93450  0.10040  Biso   1.000  C
  H119     1.0000 0.52210  0.92630  0.12600  Biso   1.000  H
  C180     1.0000 0.39200  0.87260  0.18580  Biso   1.000  C
  H120     1.0000 0.39960  0.91080  0.20950  Biso   1.000  H
  I43      1.0000 0.11340  0.27140  0.59020  Biso   1.000  I
  I44      1.0000 0.36601  0.27620  0.94465  Biso   1.000  I
  I45      1.0000 0.46525  0.34000  0.88411  Biso   1.000  I
  I46      1.0000 0.76318  0.26626  0.19943  Biso   1.000  I
  I47      1.0000 0.88337  0.76252  0.93857  Biso   1.000  I
  I48      1.0000 0.86891  0.32789  0.29994  Biso   1.000  I
  I49      1.0000 0.97481  0.85683  0.87076  Biso   1.000  I
  I50      1.0000 0.60335  0.76665  0.60494  Biso   1.000  I
  I51      1.0000 0.63710  0.91137  0.49323  Biso   1.000  I
  Zn16     1.0000 0.61982  0.90964  0.56755  Biso   1.000  Zn
  Zn17     1.0000 0.82490  0.35367  0.22527  Biso   1.000  Zn
  Zn18     1.0000 0.91505  0.88196  0.90475  Biso   1.000  Zn
  N61      1.0000 0.92670  0.98780  0.94870  Biso   1.000  N
  N62      1.0000 0.85834  0.33380  0.18060  Biso   1.000  N
  N63      1.0000 0.77745  0.05410  0.72661  Biso   1.000  N
  N64      1.0000 0.81359  0.50910  0.71990  Biso   1.000  N
  N65      1.0000 0.66412  0.97240  0.60960  Biso   1.000  N
  N66      1.0000 0.76304  0.19300  0.68920  Biso   1.000  N
  N67      1.0000 0.95983  0.34590  0.09300  Biso   1.000  N
  N68      1.0000 0.87710  0.94780  0.85590  Biso   1.000  N
  N69      1.0000 0.81666  0.18100  0.74840  Biso   1.000  N
  N70      1.0000 0.92214  0.21920  0.06360  Biso   1.000  N
  C181     1.0000 0.71670  0.97020  0.67180  Biso   1.000  C
  H121     1.0000 0.73150  0.93830  0.69500  Biso   1.000  H
  C182     1.0000 0.72482  0.06070  0.66460  Biso   1.000  C
  N71      1.0000 0.07515  0.50270  0.06470  Biso   1.000  N
  C183     1.0000 0.67180  0.05660  0.60320  Biso   1.000  C
  H122     1.0000 0.65650  0.08650  0.57970  Biso   1.000  H
  C184     1.0000 0.79251  0.22690  0.71730  Biso   1.000  C
  C185     1.0000 0.01300  0.39130  0.06280  Biso   1.000  C
  C186     1.0000 0.82210  0.95580  0.79670  Biso   1.000  C
  H123     1.0000 0.80060  0.92780  0.78010  Biso   1.000  H
  C187     1.0000 0.80733  0.09550  0.75170  Biso   1.000  C
  C188     1.0000 0.93064  0.28790  0.09070  Biso   1.000  C
  C189     1.0000 0.80000  0.32520  0.71650  Biso   1.000  C
  C190     1.0000 0.97960  0.33220  0.06220  Biso   1.000  C
  C191     1.0000 0.70190  0.10400  0.62970  Biso   1.000  C
  H124     1.0000 0.70630  0.16380  0.62380  Biso   1.000  H
  C192     1.0000 0.86430  0.08070  0.81310  Biso   1.000  C
  H125     1.0000 0.87130  0.13920  0.80800  Biso   1.000  H
  C193     1.0000 0.05880  0.45720  0.02910  Biso   1.000  C
  H126     1.0000 0.06890  0.46340  0.00430  Biso   1.000  H
  C194     1.0000 0.83140  0.04310  0.78750  Biso   1.000  C
  C195     1.0000 0.84570  0.91090  0.83160  Biso   1.000  C
  H127     1.0000 0.83930  0.85270  0.83800  Biso   1.000  H
  C196     1.0000 0.83760  0.45350  0.74620  Biso   1.000  C
  H128     1.0000 0.85870  0.47730  0.76550  Biso   1.000  H
  C197     1.0000 0.93790  0.13490  0.00460  Biso   1.000  C
  C198     1.0000 0.90010  0.01280  0.97030  Biso   1.000  C
  H129     1.0000 0.87760  0.97940  0.96630  Biso   1.000  H
  C199     1.0000 0.68630  0.92990  0.64350  Biso   1.000  C
  H130     1.0000 0.68100  0.87010  0.64820  Biso   1.000  H
  C200     1.0000 0.94422  0.21260  0.03490  Biso   1.000  C
  C201     1.0000 0.78300  0.47480  0.69320  Biso   1.000  C
  H131     1.0000 0.76600  0.51370  0.67550  Biso   1.000  H
  C202     1.0000 0.75690  0.10510  0.69510  Biso   1.000  C
  C203     1.0000 0.96510  0.10920  0.98220  Biso   1.000  C
  H132     1.0000 0.98780  0.14150  0.98550  Biso   1.000  H
  C204     1.0000 0.02790  0.40160  0.02680  Biso   1.000  C
  H133     1.0000 0.01720  0.37150  0.00100  Biso   1.000  H
  C205     1.0000 0.77530  0.38380  0.69050  Biso   1.000  C
  H134     1.0000 0.75350  0.36230  0.67130  Biso   1.000  H
  C206     1.0000 0.95880  0.03600  0.95520  Biso   1.000  C
  H135     1.0000 0.97780  0.01920  0.94070  Biso   1.000  H
  C207     1.0000 0.83180  0.36110  0.74530  Biso   1.000  C
  H136     1.0000 0.84890  0.32370  0.76380  Biso   1.000  H
  C208     1.0000 0.88620  0.03080  0.84580  Biso   1.000  C
  H137     1.0000 0.90860  0.05610  0.86190  Biso   1.000  H
  N72      1.0000 0.97253  0.26910  0.03130  Biso   1.000  N
  C209     1.0000 0.90550  0.30250  0.12240  Biso   1.000  C
  C210     1.0000 0.90400  0.08540  0.99820  Biso   1.000  C
  H138     1.0000 0.88470  0.10090  0.01230  Biso   1.000  H
  C211     1.0000 0.84800  0.27990  0.14590  Biso   1.000  C
  H139     1.0000 0.82420  0.25200  0.14130  Biso   1.000  H
  C212     1.0000 0.87040  0.26380  0.11700  Biso   1.000  C
  H140     1.0000 0.86170  0.22600  0.09330  Biso   1.000  H
  C213     1.0000 0.06120  0.49010  0.09970  Biso   1.000  C
  H141     1.0000 0.07260  0.52020  0.12520  Biso   1.000  H
  C214     1.0000 0.91670  0.36020  0.15810  Biso   1.000  C
  H142     1.0000 0.94020  0.38950  0.16310  Biso   1.000  H
  C215     1.0000 0.03070  0.43450  0.10040  Biso   1.000  C
  H143     1.0000 0.02210  0.42630  0.12600  Biso   1.000  H
  C216     1.0000 0.89200  0.37260  0.18580  Biso   1.000  C
  H144     1.0000 0.89960  0.41080  0.20950  Biso   1.000  H
  I52      1.0000 0.61340  0.77140  0.59020  Biso   1.000  I
  I53      1.0000 0.86601  0.77620  0.94465  Biso   1.000  I
  I54      1.0000 0.96525  0.84000  0.88411  Biso   1.000  I
  I55      1.0000 0.26318  0.23374  0.69943  Biso   1.000  I
  I56      1.0000 0.38337  0.73748  0.43857  Biso   1.000  I
  I57      1.0000 0.36891  0.17211  0.79994  Biso   1.000  I
  I58      1.0000 0.47481  0.64317  0.37076  Biso   1.000  I
  I59      1.0000 0.10335  0.73335  0.10494  Biso   1.000  I
  I60      1.0000 0.13710  0.58863  0.99323  Biso   1.000  I
  Zn19     1.0000 0.11982  0.59036  0.06755  Biso   1.000  Zn
  Zn20     1.0000 0.32490  0.14633  0.72527  Biso   1.000  Zn
  Zn21     1.0000 0.41505  0.61804  0.40475  Biso   1.000  Zn
  N73      1.0000 0.42670  0.51220  0.44870  Biso   1.000  N
  N74      1.0000 0.35834  0.16620  0.68060  Biso   1.000  N
  N75      1.0000 0.27745  0.44590  0.22661  Biso   1.000  N
  N76      1.0000 0.31359  0.99090  0.21990  Biso   1.000  N
  N77      1.0000 0.16412  0.52760  0.10960  Biso   1.000  N
  N78      1.0000 0.26304  0.30700  0.18920  Biso   1.000  N
  N79      1.0000 0.45983  0.15410  0.59300  Biso   1.000  N
  N80      1.0000 0.37710  0.55220  0.35590  Biso   1.000  N
  N81      1.0000 0.31666  0.31900  0.24840  Biso   1.000  N
  N82      1.0000 0.42214  0.28080  0.56360  Biso   1.000  N
  C217     1.0000 0.21670  0.52980  0.17180  Biso   1.000  C
  H145     1.0000 0.23150  0.56170  0.19500  Biso   1.000  H
  C218     1.0000 0.22482  0.43930  0.16460  Biso   1.000  C
  N83      1.0000 0.57515  0.99730  0.56470  Biso   1.000  N
  C219     1.0000 0.17180  0.44340  0.10320  Biso   1.000  C
  H146     1.0000 0.15650  0.41350  0.07970  Biso   1.000  H
  C220     1.0000 0.29251  0.27310  0.21730  Biso   1.000  C
  C221     1.0000 0.51300  0.10870  0.56280  Biso   1.000  C
  C222     1.0000 0.32210  0.54420  0.29670  Biso   1.000  C
  H147     1.0000 0.30060  0.57220  0.28010  Biso   1.000  H
  C223     1.0000 0.30733  0.40450  0.25170  Biso   1.000  C
  C224     1.0000 0.43064  0.21210  0.59070  Biso   1.000  C
  C225     1.0000 0.30000  0.17480  0.21650  Biso   1.000  C
  C226     1.0000 0.47960  0.16780  0.56220  Biso   1.000  C
  C227     1.0000 0.20190  0.39600  0.12970  Biso   1.000  C
  H148     1.0000 0.20630  0.33620  0.12380  Biso   1.000  H
  C228     1.0000 0.36430  0.41930  0.31310  Biso   1.000  C
  H149     1.0000 0.37130  0.36080  0.30800  Biso   1.000  H
  C229     1.0000 0.55880  0.04280  0.52910  Biso   1.000  C
  H150     1.0000 0.56890  0.03660  0.50430  Biso   1.000  H
  C230     1.0000 0.33140  0.45690  0.28750  Biso   1.000  C
  C231     1.0000 0.34570  0.58910  0.33160  Biso   1.000  C
  H151     1.0000 0.33930  0.64730  0.33800  Biso   1.000  H
  C232     1.0000 0.33760  0.04650  0.24620  Biso   1.000  C
  H152     1.0000 0.35870  0.02270  0.26550  Biso   1.000  H
  C233     1.0000 0.43790  0.36510  0.50460  Biso   1.000  C
  C234     1.0000 0.40010  0.48720  0.47030  Biso   1.000  C
  H153     1.0000 0.37760  0.52060  0.46630  Biso   1.000  H
  C235     1.0000 0.18630  0.57010  0.14350  Biso   1.000  C
  H154     1.0000 0.18100  0.62990  0.14820  Biso   1.000  H
  C236     1.0000 0.44422  0.28740  0.53490  Biso   1.000  C
  C237     1.0000 0.28300  0.02520  0.19320  Biso   1.000  C
  H155     1.0000 0.26600  0.98630  0.17550  Biso   1.000  H
  C238     1.0000 0.25690  0.39490  0.19510  Biso   1.000  C
  C239     1.0000 0.46510  0.39080  0.48220  Biso   1.000  C
  H156     1.0000 0.48780  0.35850  0.48550  Biso   1.000  H
  C240     1.0000 0.52790  0.09840  0.52680  Biso   1.000  C
  H157     1.0000 0.51720  0.12850  0.50100  Biso   1.000  H
  C241     1.0000 0.27530  0.11620  0.19050  Biso   1.000  C
  H158     1.0000 0.25350  0.13770  0.17130  Biso   1.000  H
  C242     1.0000 0.45880  0.46400  0.45520  Biso   1.000  C
  H159     1.0000 0.47780  0.48080  0.44070  Biso   1.000  H
  C243     1.0000 0.33180  0.13890  0.24530  Biso   1.000  C
  H160     1.0000 0.34890  0.17630  0.26380  Biso   1.000  H
  C244     1.0000 0.38620  0.46920  0.34580  Biso   1.000  C
  H161     1.0000 0.40860  0.44390  0.36190  Biso   1.000  H
  N84      1.0000 0.47253  0.23090  0.53130  Biso   1.000  N
  C245     1.0000 0.40550  0.19750  0.62240  Biso   1.000  C
  C246     1.0000 0.40400  0.41460  0.49820  Biso   1.000  C
  H162     1.0000 0.38470  0.39910  0.51230  Biso   1.000  H
  C247     1.0000 0.34800  0.22010  0.64590  Biso   1.000  C
  H163     1.0000 0.32420  0.24800  0.64130  Biso   1.000  H
  C248     1.0000 0.37040  0.23620  0.61700  Biso   1.000  C
  H164     1.0000 0.36170  0.27400  0.59330  Biso   1.000  H
  C249     1.0000 0.56120  0.00990  0.59970  Biso   1.000  C
  H165     1.0000 0.57260  0.97980  0.62520  Biso   1.000  H
  C250     1.0000 0.41670  0.13980  0.65810  Biso   1.000  C
  H166     1.0000 0.44020  0.11050  0.66310  Biso   1.000  H
  C251     1.0000 0.53070  0.06550  0.60040  Biso   1.000  C
  H167     1.0000 0.52210  0.07370  0.62600  Biso   1.000  H
  C252     1.0000 0.39200  0.12740  0.68580  Biso   1.000  C
  H168     1.0000 0.39960  0.08920  0.70950  Biso   1.000  H
  I61      1.0000 0.11340  0.72860  0.09020  Biso   1.000  I
  I62      1.0000 0.36601  0.72380  0.44465  Biso   1.000  I
  I63      1.0000 0.46525  0.66000  0.38411  Biso   1.000  I
  I64      1.0000 0.76318  0.73374  0.69943  Biso   1.000  I
  I65      1.0000 0.88337  0.23748  0.43857  Biso   1.000  I
  I66      1.0000 0.86891  0.67211  0.79994  Biso   1.000  I
  I67      1.0000 0.97481  0.14317  0.37076  Biso   1.000  I
  I68      1.0000 0.60335  0.23335  0.10494  Biso   1.000  I
  I69      1.0000 0.63710  0.08863  0.99323  Biso   1.000  I
  Zn22     1.0000 0.61982  0.09036  0.06755  Biso   1.000  Zn
  Zn23     1.0000 0.82490  0.64633  0.72527  Biso   1.000  Zn
  Zn24     1.0000 0.91505  0.11804  0.40475  Biso   1.000  Zn
  N85      1.0000 0.92670  0.01220  0.44870  Biso   1.000  N
  N86      1.0000 0.85834  0.66620  0.68060  Biso   1.000  N
  N87      1.0000 0.77745  0.94590  0.22661  Biso   1.000  N
  N88      1.0000 0.81359  0.49090  0.21990  Biso   1.000  N
  N89      1.0000 0.66412  0.02760  0.10960  Biso   1.000  N
  N90      1.0000 0.76304  0.80700  0.18920  Biso   1.000  N
  N91      1.0000 0.95983  0.65410  0.59300  Biso   1.000  N
  N92      1.0000 0.87710  0.05220  0.35590  Biso   1.000  N
  N93      1.0000 0.81666  0.81900  0.24840  Biso   1.000  N
  N94      1.0000 0.92214  0.78080  0.56360  Biso   1.000  N
  C253     1.0000 0.71670  0.02980  0.17180  Biso   1.000  C
  H169     1.0000 0.73150  0.06170  0.19500  Biso   1.000  H
  C254     1.0000 0.72482  0.93930  0.16460  Biso   1.000  C
  N95      1.0000 0.07515  0.49730  0.56470  Biso   1.000  N
  C255     1.0000 0.67180  0.94340  0.10320  Biso   1.000  C
  H170     1.0000 0.65650  0.91350  0.07970  Biso   1.000  H
  C256     1.0000 0.79251  0.77310  0.21730  Biso   1.000  C
  C257     1.0000 0.01300  0.60870  0.56280  Biso   1.000  C
  C258     1.0000 0.82210  0.04420  0.29670  Biso   1.000  C
  H171     1.0000 0.80060  0.07220  0.28010  Biso   1.000  H
  C259     1.0000 0.80733  0.90450  0.25170  Biso   1.000  C
  C260     1.0000 0.93064  0.71210  0.59070  Biso   1.000  C
  C261     1.0000 0.80000  0.67480  0.21650  Biso   1.000  C
  C262     1.0000 0.97960  0.66780  0.56220  Biso   1.000  C
  C263     1.0000 0.70190  0.89600  0.12970  Biso   1.000  C
  H172     1.0000 0.70630  0.83620  0.12380  Biso   1.000  H
  C264     1.0000 0.86430  0.91930  0.31310  Biso   1.000  C
  H173     1.0000 0.87130  0.86080  0.30800  Biso   1.000  H
  C265     1.0000 0.05880  0.54280  0.52910  Biso   1.000  C
  H174     1.0000 0.06890  0.53660  0.50430  Biso   1.000  H
  C266     1.0000 0.83140  0.95690  0.28750  Biso   1.000  C
  C267     1.0000 0.84570  0.08910  0.33160  Biso   1.000  C
  H175     1.0000 0.83930  0.14730  0.33800  Biso   1.000  H
  C268     1.0000 0.83760  0.54650  0.24620  Biso   1.000  C
  H176     1.0000 0.85870  0.52270  0.26550  Biso   1.000  H
  C269     1.0000 0.93790  0.86510  0.50460  Biso   1.000  C
  C270     1.0000 0.90010  0.98720  0.47030  Biso   1.000  C
  H177     1.0000 0.87760  0.02060  0.46630  Biso   1.000  H
  C271     1.0000 0.68630  0.07010  0.14350  Biso   1.000  C
  H178     1.0000 0.68100  0.12990  0.14820  Biso   1.000  H
  C272     1.0000 0.94422  0.78740  0.53490  Biso   1.000  C
  C273     1.0000 0.78300  0.52520  0.19320  Biso   1.000  C
  H179     1.0000 0.76600  0.48630  0.17550  Biso   1.000  H
  C274     1.0000 0.75690  0.89490  0.19510  Biso   1.000  C
  C275     1.0000 0.96510  0.89080  0.48220  Biso   1.000  C
  H180     1.0000 0.98780  0.85850  0.48550  Biso   1.000  H
  C276     1.0000 0.02790  0.59840  0.52680  Biso   1.000  C
  H181     1.0000 0.01720  0.62850  0.50100  Biso   1.000  H
  C277     1.0000 0.77530  0.61620  0.19050  Biso   1.000  C
  H182     1.0000 0.75350  0.63770  0.17130  Biso   1.000  H
  C278     1.0000 0.95880  0.96400  0.45520  Biso   1.000  C
  H183     1.0000 0.97780  0.98080  0.44070  Biso   1.000  H
  C279     1.0000 0.83180  0.63890  0.24530  Biso   1.000  C
  H184     1.0000 0.84890  0.67630  0.26380  Biso   1.000  H
  C280     1.0000 0.88620  0.96920  0.34580  Biso   1.000  C
  H185     1.0000 0.90860  0.94390  0.36190  Biso   1.000  H
  N96      1.0000 0.97253  0.73090  0.53130  Biso   1.000  N
  C281     1.0000 0.90550  0.69750  0.62240  Biso   1.000  C
  C282     1.0000 0.90400  0.91460  0.49820  Biso   1.000  C
  H186     1.0000 0.88470  0.89910  0.51230  Biso   1.000  H
  C283     1.0000 0.84800  0.72010  0.64590  Biso   1.000  C
  H187     1.0000 0.82420  0.74800  0.64130  Biso   1.000  H
  C284     1.0000 0.87040  0.73620  0.61700  Biso   1.000  C
  H188     1.0000 0.86170  0.77400  0.59330  Biso   1.000  H
  C285     1.0000 0.06120  0.50990  0.59970  Biso   1.000  C
  H189     1.0000 0.07260  0.47980  0.62520  Biso   1.000  H
  C286     1.0000 0.91670  0.63980  0.65810  Biso   1.000  C
  H190     1.0000 0.94020  0.61050  0.66310  Biso   1.000  H
  C287     1.0000 0.03070  0.56550  0.60040  Biso   1.000  C
  H191     1.0000 0.02210  0.57370  0.62600  Biso   1.000  H
  C288     1.0000 0.89200  0.62740  0.68580  Biso   1.000  C
  H192     1.0000 0.89960  0.58920  0.70950  Biso   1.000  H
  I70      1.0000 0.61340  0.22860  0.09020  Biso   1.000  I
  I71      1.0000 0.86601  0.22380  0.44465  Biso   1.000  I
  I72      1.0000 0.96525  0.16000  0.38411  Biso   1.000  I
