data_image0
_cell_length_a       35.4351
_cell_length_b       14.9537
_cell_length_c       31.192
_cell_angle_alpha    90
_cell_angle_beta     102.416
_cell_angle_gamma    90

_symmetry_space_group_name_H-M    "P 1"
_symmetry_int_tables_number       1

loop_
  _symmetry_equiv_pos_as_xyz
  'x, y, z'

loop_
  _atom_site_label
  _atom_site_occupancy
  _atom_site_fract_x
  _atom_site_fract_y
  _atom_site_fract_z
  _atom_site_thermal_displace_type
  _atom_site_B_iso_or_equiv
  _atom_site_type_symbol
  I1       1.0000 0.86423  0.72510  0.94640  Biso   1.000  I
  Zn1      1.0000 0.32570  0.35410  0.72620  Biso   1.000  Zn
  Zn2      1.0000 0.62284  0.58931  0.56344  Biso   1.000  Zn
  N1       1.0000 0.81820  0.31820  0.75000  Biso   1.000  N
  N2       1.0000 0.46020  0.34860  0.59000  Biso   1.000  N
  C1       1.0000 0.75810  0.39450  0.69540  Biso   1.000  C
  C2       1.0000 0.79400  0.27260  0.71880  Biso   1.000  C
  N3       1.0000 0.47370  0.26970  0.52920  Biso   1.000  N
  N4       1.0000 0.77870  0.44540  0.72710  Biso   1.000  N
  N5       1.0000 0.42280  0.22120  0.56230  Biso   1.000  N
  N6       1.0000 0.76420  0.30590  0.68970  Biso   1.000  N
  N7       1.0000 0.66580  0.52780  0.60740  Biso   1.000  N
  C3       1.0000 0.53000  0.40330  0.52340  Biso   1.000  C
  H1       1.0000 0.51920  0.37220  0.49700  Biso   1.000  H
  C4       1.0000 0.43920  0.13490  0.50400  Biso   1.000  C
  C5       1.0000 0.83270  0.45550  0.78890  Biso   1.000  C
  C6       1.0000 0.82350  0.54330  0.79690  Biso   1.000  C
  H2       1.0000 0.80210  0.57200  0.77860  Biso   1.000  H
  C7       1.0000 0.48090  0.33490  0.55980  Biso   1.000  C
  N8       1.0000 0.57740  0.50390  0.56080  Biso   1.000  N
  C8       1.0000 0.80880  0.40230  0.75230  Biso   1.000  C
  N9       1.0000 0.35880  0.33470  0.67860  Biso   1.000  N
  C9       1.0000 0.44570  0.21380  0.53410  Biso   1.000  C
  N10      1.0000 0.87740  0.55010  0.85780  Biso   1.000  N
  C10      1.0000 0.80110  0.17440  0.71710  Biso   1.000  C
  C11      1.0000 0.72610  0.43920  0.66430  Biso   1.000  C
  C12      1.0000 0.36980  0.26680  0.61550  Biso   1.000  C
  H3       1.0000 0.36070  0.22890  0.59100  Biso   1.000  H
  C13      1.0000 0.51430  0.39270  0.55950  Biso   1.000  C
  C14      1.0000 0.70400  0.39630  0.62880  Biso   1.000  C
  H4       1.0000 0.70860  0.33510  0.62370  Biso   1.000  H
  C15      1.0000 0.40630  0.30650  0.62110  Biso   1.000  C
  C16      1.0000 0.46030  0.03370  0.45480  Biso   1.000  C
  H5       1.0000 0.47940  0.01620  0.43930  Biso   1.000  H
  C17      1.0000 0.68790  0.56910  0.64310  Biso   1.000  C
  H6       1.0000 0.68270  0.62990  0.64860  Biso   1.000  H
  C18      1.0000 0.40560  0.08270  0.50000  Biso   1.000  C
  H7       1.0000 0.38610  0.09740  0.51540  Biso   1.000  H
  C19      1.0000 0.43070  0.29180  0.58920  Biso   1.000  C
  C20      1.0000 0.84630  0.58900  0.83250  Biso   1.000  C
  H8       1.0000 0.83970  0.64830  0.83880  Biso   1.000  H
  C21      1.0000 0.56040  0.45730  0.52490  Biso   1.000  C
  H9       1.0000 0.57050  0.46300  0.49920  Biso   1.000  H
  C22      1.0000 0.46620  0.10930  0.48120  Biso   1.000  C
  H10      1.0000 0.48920  0.14330  0.48350  Biso   1.000  H
  C23      1.0000 0.41680  0.36390  0.65680  Biso   1.000  C
  H11      1.0000 0.44080  0.39450  0.66170  Biso   1.000  H
  C24      1.0000 0.71710  0.52690  0.67110  Biso   1.000  C
  H12      1.0000 0.73150  0.55840  0.69570  Biso   1.000  H
  C25      1.0000 0.67500  0.44180  0.60030  Biso   1.000  C
  H13      1.0000 0.66110  0.41180  0.57490  Biso   1.000  H
  C26      1.0000 0.40220  0.00990  0.47300  Biso   1.000  C
  H14      1.0000 0.37960  0.97450  0.47020  Biso   1.000  H
  C27      1.0000 0.56420  0.49070  0.59490  Biso   1.000  C
  H15      1.0000 0.57660  0.52140  0.62080  Biso   1.000  H
  C28      1.0000 0.34790  0.28210  0.64460  Biso   1.000  C
  H16      1.0000 0.32340  0.25370  0.64050  Biso   1.000  H
  C29      1.0000 0.86410  0.41710  0.81590  Biso   1.000  C
  H17      1.0000 0.87020  0.35620  0.81220  Biso   1.000  H
  C30      1.0000 0.39340  0.37550  0.68350  Biso   1.000  C
  H18      1.0000 0.40120  0.41470  0.70780  Biso   1.000  H
  C31      1.0000 0.53280  0.43460  0.59790  Biso   1.000  C
  H19      1.0000 0.52490  0.42590  0.62480  Biso   1.000  H
  C32      1.0000 0.88670  0.46720  0.84850  Biso   1.000  C
  H20      1.0000 0.90980  0.44170  0.86500  Biso   1.000  H
  I2       1.0000 0.26266  0.26728  0.69827  Biso   1.000  I
  I3       1.0000 0.36871  0.32812  0.80127  Biso   1.000  I
  I4       1.0000 0.64198  0.58304  0.48997  Biso   1.000  I
  C33      1.0000 0.77570  0.11670  0.69180  Biso   1.000  C
  H21      1.0000 0.75340  0.13970  0.67250  Biso   1.000  H
  C34      1.0000 0.78220  0.02640  0.69370  Biso   1.000  C
  H22      1.0000 0.76400  0.98790  0.67580  Biso   1.000  H
  C35      1.0000 0.83350  0.13840  0.74570  Biso   1.000  C
  H23      1.0000 0.85130  0.17610  0.76450  Biso   1.000  H
  C36      1.0000 0.83890  0.04540  0.74610  Biso   1.000  C
  H24      1.0000 0.86100  0.02060  0.76510  Biso   1.000  H
  N11      1.0000 0.81380  0.99050  0.72040  Biso   1.000  N
  N12      1.0000 0.42790  0.98510  0.45060  Biso   1.000  N
  I5       1.0000 0.97475  0.64791  0.87133  Biso   1.000  I
  Zn3      1.0000 0.91561  0.61960  0.90604  Biso   1.000  Zn
  I6       1.0000 0.88213  0.73662  0.93986  Biso   1.000  I
  I7       1.0000 0.60416  0.73329  0.60187  Biso   1.000  I
  I8       1.0000 0.96390  0.66420  0.88380  Biso   1.000  I
  I9       1.0000 0.35500  0.31570  0.79240  Biso   1.000  I
  I10      1.0000 0.24430  0.27210  0.71240  Biso   1.000  I
  Zn4      1.0000 0.31530  0.35560  0.71800  Biso   1.000  Zn
  I11      1.0000 0.61653  0.73230  0.58880  Biso   1.000  I
  I12      1.0000 0.36423  0.22510  0.94640  Biso   1.000  I
  Zn5      1.0000 0.82570  0.85410  0.72620  Biso   1.000  Zn
  Zn6      1.0000 0.12284  0.08931  0.56344  Biso   1.000  Zn
  N13      1.0000 0.31820  0.81820  0.75000  Biso   1.000  N
  N14      1.0000 0.96020  0.84860  0.59000  Biso   1.000  N
  C37      1.0000 0.25810  0.89450  0.69540  Biso   1.000  C
  C38      1.0000 0.29400  0.77260  0.71880  Biso   1.000  C
  N15      1.0000 0.97370  0.76970  0.52920  Biso   1.000  N
  N16      1.0000 0.27870  0.94540  0.72710  Biso   1.000  N
  N17      1.0000 0.92280  0.72120  0.56230  Biso   1.000  N
  N18      1.0000 0.26420  0.80590  0.68970  Biso   1.000  N
  N19      1.0000 0.16580  0.02780  0.60740  Biso   1.000  N
  C39      1.0000 0.03000  0.90330  0.52340  Biso   1.000  C
  H25      1.0000 0.01920  0.87220  0.49700  Biso   1.000  H
  C40      1.0000 0.93920  0.63490  0.50400  Biso   1.000  C
  C41      1.0000 0.33270  0.95550  0.78890  Biso   1.000  C
  C42      1.0000 0.32350  0.04330  0.79690  Biso   1.000  C
  H26      1.0000 0.30210  0.07200  0.77860  Biso   1.000  H
  C43      1.0000 0.98090  0.83490  0.55980  Biso   1.000  C
  N20      1.0000 0.07740  0.00390  0.56080  Biso   1.000  N
  C44      1.0000 0.30880  0.90230  0.75230  Biso   1.000  C
  N21      1.0000 0.85880  0.83470  0.67860  Biso   1.000  N
  C45      1.0000 0.94570  0.71380  0.53410  Biso   1.000  C
  N22      1.0000 0.37740  0.05010  0.85780  Biso   1.000  N
  C46      1.0000 0.30110  0.67440  0.71710  Biso   1.000  C
  C47      1.0000 0.22610  0.93920  0.66430  Biso   1.000  C
  C48      1.0000 0.86980  0.76680  0.61550  Biso   1.000  C
  H27      1.0000 0.86070  0.72890  0.59100  Biso   1.000  H
  C49      1.0000 0.01430  0.89270  0.55950  Biso   1.000  C
  C50      1.0000 0.20400  0.89630  0.62880  Biso   1.000  C
  H28      1.0000 0.20860  0.83510  0.62370  Biso   1.000  H
  C51      1.0000 0.90630  0.80650  0.62110  Biso   1.000  C
  C52      1.0000 0.96030  0.53370  0.45480  Biso   1.000  C
  H29      1.0000 0.97940  0.51620  0.43930  Biso   1.000  H
  C53      1.0000 0.18790  0.06910  0.64310  Biso   1.000  C
  H30      1.0000 0.18270  0.12990  0.64860  Biso   1.000  H
  C54      1.0000 0.90560  0.58270  0.50000  Biso   1.000  C
  H31      1.0000 0.88610  0.59740  0.51540  Biso   1.000  H
  C55      1.0000 0.93070  0.79180  0.58920  Biso   1.000  C
  C56      1.0000 0.34630  0.08900  0.83250  Biso   1.000  C
  H32      1.0000 0.33970  0.14830  0.83880  Biso   1.000  H
  C57      1.0000 0.06040  0.95730  0.52490  Biso   1.000  C
  H33      1.0000 0.07050  0.96300  0.49920  Biso   1.000  H
  C58      1.0000 0.96620  0.60930  0.48120  Biso   1.000  C
  H34      1.0000 0.98920  0.64330  0.48350  Biso   1.000  H
  C59      1.0000 0.91680  0.86390  0.65680  Biso   1.000  C
  H35      1.0000 0.94080  0.89450  0.66170  Biso   1.000  H
  C60      1.0000 0.21710  0.02690  0.67110  Biso   1.000  C
  H36      1.0000 0.23150  0.05840  0.69570  Biso   1.000  H
  C61      1.0000 0.17500  0.94180  0.60030  Biso   1.000  C
  H37      1.0000 0.16110  0.91180  0.57490  Biso   1.000  H
  C62      1.0000 0.90220  0.50990  0.47300  Biso   1.000  C
  H38      1.0000 0.87960  0.47450  0.47020  Biso   1.000  H
  C63      1.0000 0.06420  0.99070  0.59490  Biso   1.000  C
  H39      1.0000 0.07660  0.02140  0.62080  Biso   1.000  H
  C64      1.0000 0.84790  0.78210  0.64460  Biso   1.000  C
  H40      1.0000 0.82340  0.75370  0.64050  Biso   1.000  H
  C65      1.0000 0.36410  0.91710  0.81590  Biso   1.000  C
  H41      1.0000 0.37020  0.85620  0.81220  Biso   1.000  H
  C66      1.0000 0.89340  0.87550  0.68350  Biso   1.000  C
  H42      1.0000 0.90120  0.91470  0.70780  Biso   1.000  H
  C67      1.0000 0.03280  0.93460  0.59790  Biso   1.000  C
  H43      1.0000 0.02490  0.92590  0.62480  Biso   1.000  H
  C68      1.0000 0.38670  0.96720  0.84850  Biso   1.000  C
  H44      1.0000 0.40980  0.94170  0.86500  Biso   1.000  H
  I13      1.0000 0.76266  0.76728  0.69827  Biso   1.000  I
  I14      1.0000 0.86871  0.82812  0.80127  Biso   1.000  I
  I15      1.0000 0.14198  0.08304  0.48997  Biso   1.000  I
  C69      1.0000 0.27570  0.61670  0.69180  Biso   1.000  C
  H45      1.0000 0.25340  0.63970  0.67250  Biso   1.000  H
  C70      1.0000 0.28220  0.52640  0.69370  Biso   1.000  C
  H46      1.0000 0.26400  0.48790  0.67580  Biso   1.000  H
  C71      1.0000 0.33350  0.63840  0.74570  Biso   1.000  C
  H47      1.0000 0.35130  0.67610  0.76450  Biso   1.000  H
  C72      1.0000 0.33890  0.54540  0.74610  Biso   1.000  C
  H48      1.0000 0.36100  0.52060  0.76510  Biso   1.000  H
  N23      1.0000 0.31380  0.49050  0.72040  Biso   1.000  N
  N24      1.0000 0.92790  0.48510  0.45060  Biso   1.000  N
  I16      1.0000 0.47475  0.14791  0.87133  Biso   1.000  I
  Zn7      1.0000 0.41561  0.11960  0.90604  Biso   1.000  Zn
  I17      1.0000 0.38213  0.23662  0.93986  Biso   1.000  I
  I18      1.0000 0.10416  0.23329  0.60187  Biso   1.000  I
  I19      1.0000 0.46390  0.16420  0.88380  Biso   1.000  I
  I20      1.0000 0.85500  0.81570  0.79240  Biso   1.000  I
  I21      1.0000 0.74430  0.77210  0.71240  Biso   1.000  I
  Zn8      1.0000 0.81530  0.85560  0.71800  Biso   1.000  Zn
  I22      1.0000 0.11653  0.23230  0.58880  Biso   1.000  I
  I23      1.0000 0.86423  0.27490  0.44640  Biso   1.000  I
  Zn9      1.0000 0.32570  0.64590  0.22620  Biso   1.000  Zn
  Zn10     1.0000 0.62284  0.41069  0.06344  Biso   1.000  Zn
  N25      1.0000 0.81820  0.68180  0.25000  Biso   1.000  N
  N26      1.0000 0.46020  0.65140  0.09000  Biso   1.000  N
  C73      1.0000 0.75810  0.60550  0.19540  Biso   1.000  C
  C74      1.0000 0.79400  0.72740  0.21880  Biso   1.000  C
  N27      1.0000 0.47370  0.73030  0.02920  Biso   1.000  N
  N28      1.0000 0.77870  0.55460  0.22710  Biso   1.000  N
  N29      1.0000 0.42280  0.77880  0.06230  Biso   1.000  N
  N30      1.0000 0.76420  0.69410  0.18970  Biso   1.000  N
  N31      1.0000 0.66580  0.47220  0.10740  Biso   1.000  N
  C75      1.0000 0.53000  0.59670  0.02340  Biso   1.000  C
  H49      1.0000 0.51920  0.62780  0.99700  Biso   1.000  H
  C76      1.0000 0.43920  0.86510  0.00400  Biso   1.000  C
  C77      1.0000 0.83270  0.54450  0.28890  Biso   1.000  C
  C78      1.0000 0.82350  0.45670  0.29690  Biso   1.000  C
  H50      1.0000 0.80210  0.42800  0.27860  Biso   1.000  H
  C79      1.0000 0.48090  0.66510  0.05980  Biso   1.000  C
  N32      1.0000 0.57740  0.49610  0.06080  Biso   1.000  N
  C80      1.0000 0.80880  0.59770  0.25230  Biso   1.000  C
  N33      1.0000 0.35880  0.66530  0.17860  Biso   1.000  N
  C81      1.0000 0.44570  0.78620  0.03410  Biso   1.000  C
  N34      1.0000 0.87740  0.44990  0.35780  Biso   1.000  N
  C82      1.0000 0.80110  0.82560  0.21710  Biso   1.000  C
  C83      1.0000 0.72610  0.56080  0.16430  Biso   1.000  C
  C84      1.0000 0.36980  0.73320  0.11550  Biso   1.000  C
  H51      1.0000 0.36070  0.77110  0.09100  Biso   1.000  H
  C85      1.0000 0.51430  0.60730  0.05950  Biso   1.000  C
  C86      1.0000 0.70400  0.60370  0.12880  Biso   1.000  C
  H52      1.0000 0.70860  0.66490  0.12370  Biso   1.000  H
  C87      1.0000 0.40630  0.69350  0.12110  Biso   1.000  C
  C88      1.0000 0.46030  0.96630  0.95480  Biso   1.000  C
  H53      1.0000 0.47940  0.98380  0.93930  Biso   1.000  H
  C89      1.0000 0.68790  0.43090  0.14310  Biso   1.000  C
  H54      1.0000 0.68270  0.37010  0.14860  Biso   1.000  H
  C90      1.0000 0.40560  0.91730  0.00000  Biso   1.000  C
  H55      1.0000 0.38610  0.90260  0.01540  Biso   1.000  H
  C91      1.0000 0.43070  0.70820  0.08920  Biso   1.000  C
  C92      1.0000 0.84630  0.41100  0.33250  Biso   1.000  C
  H56      1.0000 0.83970  0.35170  0.33880  Biso   1.000  H
  C93      1.0000 0.56040  0.54270  0.02490  Biso   1.000  C
  H57      1.0000 0.57050  0.53700  0.99920  Biso   1.000  H
  C94      1.0000 0.46620  0.89070  0.98120  Biso   1.000  C
  H58      1.0000 0.48920  0.85670  0.98350  Biso   1.000  H
  C95      1.0000 0.41680  0.63610  0.15680  Biso   1.000  C
  H59      1.0000 0.44080  0.60550  0.16170  Biso   1.000  H
  C96      1.0000 0.71710  0.47310  0.17110  Biso   1.000  C
  H60      1.0000 0.73150  0.44160  0.19570  Biso   1.000  H
  C97      1.0000 0.67500  0.55820  0.10030  Biso   1.000  C
  H61      1.0000 0.66110  0.58820  0.07490  Biso   1.000  H
  C98      1.0000 0.40220  0.99010  0.97300  Biso   1.000  C
  H62      1.0000 0.37960  0.02550  0.97020  Biso   1.000  H
  C99      1.0000 0.56420  0.50930  0.09490  Biso   1.000  C
  H63      1.0000 0.57660  0.47860  0.12080  Biso   1.000  H
  C100     1.0000 0.34790  0.71790  0.14460  Biso   1.000  C
  H64      1.0000 0.32340  0.74630  0.14050  Biso   1.000  H
  C101     1.0000 0.86410  0.58290  0.31590  Biso   1.000  C
  H65      1.0000 0.87020  0.64380  0.31220  Biso   1.000  H
  C102     1.0000 0.39340  0.62450  0.18350  Biso   1.000  C
  H66      1.0000 0.40120  0.58530  0.20780  Biso   1.000  H
  C103     1.0000 0.53280  0.56540  0.09790  Biso   1.000  C
  H67      1.0000 0.52490  0.57410  0.12480  Biso   1.000  H
  C104     1.0000 0.88670  0.53280  0.34850  Biso   1.000  C
  H68      1.0000 0.90980  0.55830  0.36500  Biso   1.000  H
  I24      1.0000 0.26266  0.73272  0.19827  Biso   1.000  I
  I25      1.0000 0.36871  0.67188  0.30127  Biso   1.000  I
  I26      1.0000 0.64198  0.41696  0.98997  Biso   1.000  I
  C105     1.0000 0.77570  0.88330  0.19180  Biso   1.000  C
  H69      1.0000 0.75340  0.86030  0.17250  Biso   1.000  H
  C106     1.0000 0.78220  0.97360  0.19370  Biso   1.000  C
  H70      1.0000 0.76400  0.01210  0.17580  Biso   1.000  H
  C107     1.0000 0.83350  0.86160  0.24570  Biso   1.000  C
  H71      1.0000 0.85130  0.82390  0.26450  Biso   1.000  H
  C108     1.0000 0.83890  0.95460  0.24610  Biso   1.000  C
  H72      1.0000 0.86100  0.97940  0.26510  Biso   1.000  H
  N35      1.0000 0.81380  0.00950  0.22040  Biso   1.000  N
  N36      1.0000 0.42790  0.01490  0.95060  Biso   1.000  N
  I27      1.0000 0.97475  0.35209  0.37133  Biso   1.000  I
  Zn11     1.0000 0.91561  0.38040  0.40604  Biso   1.000  Zn
  I28      1.0000 0.88213  0.26338  0.43986  Biso   1.000  I
  I29      1.0000 0.60416  0.26671  0.10187  Biso   1.000  I
  I30      1.0000 0.96390  0.33580  0.38380  Biso   1.000  I
  I31      1.0000 0.35500  0.68430  0.29240  Biso   1.000  I
  I32      1.0000 0.24430  0.72790  0.21240  Biso   1.000  I
  Zn12     1.0000 0.31530  0.64440  0.21800  Biso   1.000  Zn
  I33      1.0000 0.61653  0.26770  0.08880  Biso   1.000  I
  I34      1.0000 0.36423  0.77490  0.44640  Biso   1.000  I
  Zn13     1.0000 0.82570  0.14590  0.22620  Biso   1.000  Zn
  Zn14     1.0000 0.12284  0.91069  0.06344  Biso   1.000  Zn
  N37      1.0000 0.31820  0.18180  0.25000  Biso   1.000  N
  N38      1.0000 0.96020  0.15140  0.09000  Biso   1.000  N
  C109     1.0000 0.25810  0.10550  0.19540  Biso   1.000  C
  C110     1.0000 0.29400  0.22740  0.21880  Biso   1.000  C
  N39      1.0000 0.97370  0.23030  0.02920  Biso   1.000  N
  N40      1.0000 0.27870  0.05460  0.22710  Biso   1.000  N
  N41      1.0000 0.92280  0.27880  0.06230  Biso   1.000  N
  N42      1.0000 0.26420  0.19410  0.18970  Biso   1.000  N
  N43      1.0000 0.16580  0.97220  0.10740  Biso   1.000  N
  C111     1.0000 0.03000  0.09670  0.02340  Biso   1.000  C
  H73      1.0000 0.01920  0.12780  0.99700  Biso   1.000  H
  C112     1.0000 0.93920  0.36510  0.00400  Biso   1.000  C
  C113     1.0000 0.33270  0.04450  0.28890  Biso   1.000  C
  C114     1.0000 0.32350  0.95670  0.29690  Biso   1.000  C
  H74      1.0000 0.30210  0.92800  0.27860  Biso   1.000  H
  C115     1.0000 0.98090  0.16510  0.05980  Biso   1.000  C
  N44      1.0000 0.07740  0.99610  0.06080  Biso   1.000  N
  C116     1.0000 0.30880  0.09770  0.25230  Biso   1.000  C
  N45      1.0000 0.85880  0.16530  0.17860  Biso   1.000  N
  C117     1.0000 0.94570  0.28620  0.03410  Biso   1.000  C
  N46      1.0000 0.37740  0.94990  0.35780  Biso   1.000  N
  C118     1.0000 0.30110  0.32560  0.21710  Biso   1.000  C
  C119     1.0000 0.22610  0.06080  0.16430  Biso   1.000  C
  C120     1.0000 0.86980  0.23320  0.11550  Biso   1.000  C
  H75      1.0000 0.86070  0.27110  0.09100  Biso   1.000  H
  C121     1.0000 0.01430  0.10730  0.05950  Biso   1.000  C
  C122     1.0000 0.20400  0.10370  0.12880  Biso   1.000  C
  H76      1.0000 0.20860  0.16490  0.12370  Biso   1.000  H
  C123     1.0000 0.90630  0.19350  0.12110  Biso   1.000  C
  C124     1.0000 0.96030  0.46630  0.95480  Biso   1.000  C
  H77      1.0000 0.97940  0.48380  0.93930  Biso   1.000  H
  C125     1.0000 0.18790  0.93090  0.14310  Biso   1.000  C
  H78      1.0000 0.18270  0.87010  0.14860  Biso   1.000  H
  C126     1.0000 0.90560  0.41730  0.00000  Biso   1.000  C
  H79      1.0000 0.88610  0.40260  0.01540  Biso   1.000  H
  C127     1.0000 0.93070  0.20820  0.08920  Biso   1.000  C
  C128     1.0000 0.34630  0.91100  0.33250  Biso   1.000  C
  H80      1.0000 0.33970  0.85170  0.33880  Biso   1.000  H
  C129     1.0000 0.06040  0.04270  0.02490  Biso   1.000  C
  H81      1.0000 0.07050  0.03700  0.99920  Biso   1.000  H
  C130     1.0000 0.96620  0.39070  0.98120  Biso   1.000  C
  H82      1.0000 0.98920  0.35670  0.98350  Biso   1.000  H
  C131     1.0000 0.91680  0.13610  0.15680  Biso   1.000  C
  H83      1.0000 0.94080  0.10550  0.16170  Biso   1.000  H
  C132     1.0000 0.21710  0.97310  0.17110  Biso   1.000  C
  H84      1.0000 0.23150  0.94160  0.19570  Biso   1.000  H
  C133     1.0000 0.17500  0.05820  0.10030  Biso   1.000  C
  H85      1.0000 0.16110  0.08820  0.07490  Biso   1.000  H
  C134     1.0000 0.90220  0.49010  0.97300  Biso   1.000  C
  H86      1.0000 0.87960  0.52550  0.97020  Biso   1.000  H
  C135     1.0000 0.06420  0.00930  0.09490  Biso   1.000  C
  H87      1.0000 0.07660  0.97860  0.12080  Biso   1.000  H
  C136     1.0000 0.84790  0.21790  0.14460  Biso   1.000  C
  H88      1.0000 0.82340  0.24630  0.14050  Biso   1.000  H
  C137     1.0000 0.36410  0.08290  0.31590  Biso   1.000  C
  H89      1.0000 0.37020  0.14380  0.31220  Biso   1.000  H
  C138     1.0000 0.89340  0.12450  0.18350  Biso   1.000  C
  H90      1.0000 0.90120  0.08530  0.20780  Biso   1.000  H
  C139     1.0000 0.03280  0.06540  0.09790  Biso   1.000  C
  H91      1.0000 0.02490  0.07410  0.12480  Biso   1.000  H
  C140     1.0000 0.38670  0.03280  0.34850  Biso   1.000  C
  H92      1.0000 0.40980  0.05830  0.36500  Biso   1.000  H
  I35      1.0000 0.76266  0.23272  0.19827  Biso   1.000  I
  I36      1.0000 0.86871  0.17188  0.30127  Biso   1.000  I
  I37      1.0000 0.14198  0.91696  0.98997  Biso   1.000  I
  C141     1.0000 0.27570  0.38330  0.19180  Biso   1.000  C
  H93      1.0000 0.25340  0.36030  0.17250  Biso   1.000  H
  C142     1.0000 0.28220  0.47360  0.19370  Biso   1.000  C
  H94      1.0000 0.26400  0.51210  0.17580  Biso   1.000  H
  C143     1.0000 0.33350  0.36160  0.24570  Biso   1.000  C
  H95      1.0000 0.35130  0.32390  0.26450  Biso   1.000  H
  C144     1.0000 0.33890  0.45460  0.24610  Biso   1.000  C
  H96      1.0000 0.36100  0.47940  0.26510  Biso   1.000  H
  N47      1.0000 0.31380  0.50950  0.22040  Biso   1.000  N
  N48      1.0000 0.92790  0.51490  0.95060  Biso   1.000  N
  I38      1.0000 0.47475  0.85209  0.37133  Biso   1.000  I
  Zn15     1.0000 0.41561  0.88040  0.40604  Biso   1.000  Zn
  I39      1.0000 0.38213  0.76338  0.43986  Biso   1.000  I
  I40      1.0000 0.10416  0.76671  0.10187  Biso   1.000  I
  I41      1.0000 0.46390  0.83580  0.38380  Biso   1.000  I
  I42      1.0000 0.85500  0.18430  0.29240  Biso   1.000  I
  I43      1.0000 0.74430  0.22790  0.21240  Biso   1.000  I
  Zn16     1.0000 0.81530  0.14440  0.21800  Biso   1.000  Zn
  I44      1.0000 0.11653  0.76770  0.08880  Biso   1.000  I
  I45      1.0000 0.13577  0.72510  0.55360  Biso   1.000  I
  Zn17     1.0000 0.67430  0.35410  0.77380  Biso   1.000  Zn
  Zn18     1.0000 0.37716  0.58931  0.93656  Biso   1.000  Zn
  N49      1.0000 0.18180  0.31820  0.75000  Biso   1.000  N
  N50      1.0000 0.53980  0.34860  0.91000  Biso   1.000  N
  C145     1.0000 0.24190  0.39450  0.80460  Biso   1.000  C
  C146     1.0000 0.20600  0.27260  0.78120  Biso   1.000  C
  N51      1.0000 0.52630  0.26970  0.97080  Biso   1.000  N
  N52      1.0000 0.22130  0.44540  0.77290  Biso   1.000  N
  N53      1.0000 0.57720  0.22120  0.93770  Biso   1.000  N
  N54      1.0000 0.23580  0.30590  0.81030  Biso   1.000  N
  N55      1.0000 0.33420  0.52780  0.89260  Biso   1.000  N
  C147     1.0000 0.47000  0.40330  0.97660  Biso   1.000  C
  H97      1.0000 0.48080  0.37220  0.00300  Biso   1.000  H
  C148     1.0000 0.56080  0.13490  0.99600  Biso   1.000  C
  C149     1.0000 0.16730  0.45550  0.71110  Biso   1.000  C
  C150     1.0000 0.17650  0.54330  0.70310  Biso   1.000  C
  H98      1.0000 0.19790  0.57200  0.72140  Biso   1.000  H
  C151     1.0000 0.51910  0.33490  0.94020  Biso   1.000  C
  N56      1.0000 0.42260  0.50390  0.93920  Biso   1.000  N
  C152     1.0000 0.19120  0.40230  0.74770  Biso   1.000  C
  N57      1.0000 0.64120  0.33470  0.82140  Biso   1.000  N
  C153     1.0000 0.55430  0.21380  0.96590  Biso   1.000  C
  N58      1.0000 0.12260  0.55010  0.64220  Biso   1.000  N
  C154     1.0000 0.19890  0.17440  0.78290  Biso   1.000  C
  C155     1.0000 0.27390  0.43920  0.83570  Biso   1.000  C
  C156     1.0000 0.63020  0.26680  0.88450  Biso   1.000  C
  H99      1.0000 0.63930  0.22890  0.90900  Biso   1.000  H
  C157     1.0000 0.48570  0.39270  0.94050  Biso   1.000  C
  C158     1.0000 0.29600  0.39630  0.87120  Biso   1.000  C
  H100     1.0000 0.29140  0.33510  0.87630  Biso   1.000  H
  C159     1.0000 0.59370  0.30650  0.87890  Biso   1.000  C
  C160     1.0000 0.53970  0.03370  0.04520  Biso   1.000  C
  H101     1.0000 0.52060  0.01620  0.06070  Biso   1.000  H
  C161     1.0000 0.31210  0.56910  0.85690  Biso   1.000  C
  H102     1.0000 0.31730  0.62990  0.85140  Biso   1.000  H
  C162     1.0000 0.59440  0.08270  0.00000  Biso   1.000  C
  H103     1.0000 0.61390  0.09740  0.98460  Biso   1.000  H
  C163     1.0000 0.56930  0.29180  0.91080  Biso   1.000  C
  C164     1.0000 0.15370  0.58900  0.66750  Biso   1.000  C
  H104     1.0000 0.16030  0.64830  0.66120  Biso   1.000  H
  C165     1.0000 0.43960  0.45730  0.97510  Biso   1.000  C
  H105     1.0000 0.42950  0.46300  0.00080  Biso   1.000  H
  C166     1.0000 0.53380  0.10930  0.01880  Biso   1.000  C
  H106     1.0000 0.51080  0.14330  0.01650  Biso   1.000  H
  C167     1.0000 0.58320  0.36390  0.84320  Biso   1.000  C
  H107     1.0000 0.55920  0.39450  0.83830  Biso   1.000  H
  C168     1.0000 0.28290  0.52690  0.82890  Biso   1.000  C
  H108     1.0000 0.26850  0.55840  0.80430  Biso   1.000  H
  C169     1.0000 0.32500  0.44180  0.89970  Biso   1.000  C
  H109     1.0000 0.33890  0.41180  0.92510  Biso   1.000  H
  C170     1.0000 0.59780  0.00990  0.02700  Biso   1.000  C
  H110     1.0000 0.62040  0.97450  0.02980  Biso   1.000  H
  C171     1.0000 0.43580  0.49070  0.90510  Biso   1.000  C
  H111     1.0000 0.42340  0.52140  0.87920  Biso   1.000  H
  C172     1.0000 0.65210  0.28210  0.85540  Biso   1.000  C
  H112     1.0000 0.67660  0.25370  0.85950  Biso   1.000  H
  C173     1.0000 0.13590  0.41710  0.68410  Biso   1.000  C
  H113     1.0000 0.12980  0.35620  0.68780  Biso   1.000  H
  C174     1.0000 0.60660  0.37550  0.81650  Biso   1.000  C
  H114     1.0000 0.59880  0.41470  0.79220  Biso   1.000  H
  C175     1.0000 0.46720  0.43460  0.90210  Biso   1.000  C
  H115     1.0000 0.47510  0.42590  0.87520  Biso   1.000  H
  C176     1.0000 0.11330  0.46720  0.65150  Biso   1.000  C
  H116     1.0000 0.09020  0.44170  0.63500  Biso   1.000  H
  I46      1.0000 0.73734  0.26728  0.80173  Biso   1.000  I
  I47      1.0000 0.63129  0.32812  0.69873  Biso   1.000  I
  I48      1.0000 0.35802  0.58304  0.01003  Biso   1.000  I
  C177     1.0000 0.22430  0.11670  0.80820  Biso   1.000  C
  H117     1.0000 0.24660  0.13970  0.82750  Biso   1.000  H
  C178     1.0000 0.21780  0.02640  0.80630  Biso   1.000  C
  H118     1.0000 0.23600  0.98790  0.82420  Biso   1.000  H
  C179     1.0000 0.16650  0.13840  0.75430  Biso   1.000  C
  H119     1.0000 0.14870  0.17610  0.73550  Biso   1.000  H
  C180     1.0000 0.16110  0.04540  0.75390  Biso   1.000  C
  H120     1.0000 0.13900  0.02060  0.73490  Biso   1.000  H
  N59      1.0000 0.18620  0.99050  0.77960  Biso   1.000  N
  N60      1.0000 0.57210  0.98510  0.04940  Biso   1.000  N
  I49      1.0000 0.02525  0.64791  0.62867  Biso   1.000  I
  Zn19     1.0000 0.08439  0.61960  0.59396  Biso   1.000  Zn
  I50      1.0000 0.11787  0.73662  0.56014  Biso   1.000  I
  I51      1.0000 0.39584  0.73329  0.89813  Biso   1.000  I
  I52      1.0000 0.03610  0.66420  0.61620  Biso   1.000  I
  I53      1.0000 0.64500  0.31570  0.70760  Biso   1.000  I
  I54      1.0000 0.75570  0.27210  0.78760  Biso   1.000  I
  Zn20     1.0000 0.68470  0.35560  0.78200  Biso   1.000  Zn
  I55      1.0000 0.38347  0.73230  0.91120  Biso   1.000  I
  I56      1.0000 0.63577  0.22510  0.55360  Biso   1.000  I
  Zn21     1.0000 0.17430  0.85410  0.77380  Biso   1.000  Zn
  Zn22     1.0000 0.87716  0.08931  0.93656  Biso   1.000  Zn
  N61      1.0000 0.68180  0.81820  0.75000  Biso   1.000  N
  N62      1.0000 0.03980  0.84860  0.91000  Biso   1.000  N
  C181     1.0000 0.74190  0.89450  0.80460  Biso   1.000  C
  C182     1.0000 0.70600  0.77260  0.78120  Biso   1.000  C
  N63      1.0000 0.02630  0.76970  0.97080  Biso   1.000  N
  N64      1.0000 0.72130  0.94540  0.77290  Biso   1.000  N
  N65      1.0000 0.07720  0.72120  0.93770  Biso   1.000  N
  N66      1.0000 0.73580  0.80590  0.81030  Biso   1.000  N
  N67      1.0000 0.83420  0.02780  0.89260  Biso   1.000  N
  C183     1.0000 0.97000  0.90330  0.97660  Biso   1.000  C
  H121     1.0000 0.98080  0.87220  0.00300  Biso   1.000  H
  C184     1.0000 0.06080  0.63490  0.99600  Biso   1.000  C
  C185     1.0000 0.66730  0.95550  0.71110  Biso   1.000  C
  C186     1.0000 0.67650  0.04330  0.70310  Biso   1.000  C
  H122     1.0000 0.69790  0.07200  0.72140  Biso   1.000  H
  C187     1.0000 0.01910  0.83490  0.94020  Biso   1.000  C
  N68      1.0000 0.92260  0.00390  0.93920  Biso   1.000  N
  C188     1.0000 0.69120  0.90230  0.74770  Biso   1.000  C
  N69      1.0000 0.14120  0.83470  0.82140  Biso   1.000  N
  C189     1.0000 0.05430  0.71380  0.96590  Biso   1.000  C
  N70      1.0000 0.62260  0.05010  0.64220  Biso   1.000  N
  C190     1.0000 0.69890  0.67440  0.78290  Biso   1.000  C
  C191     1.0000 0.77390  0.93920  0.83570  Biso   1.000  C
  C192     1.0000 0.13020  0.76680  0.88450  Biso   1.000  C
  H123     1.0000 0.13930  0.72890  0.90900  Biso   1.000  H
  C193     1.0000 0.98570  0.89270  0.94050  Biso   1.000  C
  C194     1.0000 0.79600  0.89630  0.87120  Biso   1.000  C
  H124     1.0000 0.79140  0.83510  0.87630  Biso   1.000  H
  C195     1.0000 0.09370  0.80650  0.87890  Biso   1.000  C
  C196     1.0000 0.03970  0.53370  0.04520  Biso   1.000  C
  H125     1.0000 0.02060  0.51620  0.06070  Biso   1.000  H
  C197     1.0000 0.81210  0.06910  0.85690  Biso   1.000  C
  H126     1.0000 0.81730  0.12990  0.85140  Biso   1.000  H
  C198     1.0000 0.09440  0.58270  0.00000  Biso   1.000  C
  H127     1.0000 0.11390  0.59740  0.98460  Biso   1.000  H
  C199     1.0000 0.06930  0.79180  0.91080  Biso   1.000  C
  C200     1.0000 0.65370  0.08900  0.66750  Biso   1.000  C
  H128     1.0000 0.66030  0.14830  0.66120  Biso   1.000  H
  C201     1.0000 0.93960  0.95730  0.97510  Biso   1.000  C
  H129     1.0000 0.92950  0.96300  0.00080  Biso   1.000  H
  C202     1.0000 0.03380  0.60930  0.01880  Biso   1.000  C
  H130     1.0000 0.01080  0.64330  0.01650  Biso   1.000  H
  C203     1.0000 0.08320  0.86390  0.84320  Biso   1.000  C
  H131     1.0000 0.05920  0.89450  0.83830  Biso   1.000  H
  C204     1.0000 0.78290  0.02690  0.82890  Biso   1.000  C
  H132     1.0000 0.76850  0.05840  0.80430  Biso   1.000  H
  C205     1.0000 0.82500  0.94180  0.89970  Biso   1.000  C
  H133     1.0000 0.83890  0.91180  0.92510  Biso   1.000  H
  C206     1.0000 0.09780  0.50990  0.02700  Biso   1.000  C
  H134     1.0000 0.12040  0.47450  0.02980  Biso   1.000  H
  C207     1.0000 0.93580  0.99070  0.90510  Biso   1.000  C
  H135     1.0000 0.92340  0.02140  0.87920  Biso   1.000  H
  C208     1.0000 0.15210  0.78210  0.85540  Biso   1.000  C
  H136     1.0000 0.17660  0.75370  0.85950  Biso   1.000  H
  C209     1.0000 0.63590  0.91710  0.68410  Biso   1.000  C
  H137     1.0000 0.62980  0.85620  0.68780  Biso   1.000  H
  C210     1.0000 0.10660  0.87550  0.81650  Biso   1.000  C
  H138     1.0000 0.09880  0.91470  0.79220  Biso   1.000  H
  C211     1.0000 0.96720  0.93460  0.90210  Biso   1.000  C
  H139     1.0000 0.97510  0.92590  0.87520  Biso   1.000  H
  C212     1.0000 0.61330  0.96720  0.65150  Biso   1.000  C
  H140     1.0000 0.59020  0.94170  0.63500  Biso   1.000  H
  I57      1.0000 0.23734  0.76728  0.80173  Biso   1.000  I
  I58      1.0000 0.13129  0.82812  0.69873  Biso   1.000  I
  I59      1.0000 0.85802  0.08304  0.01003  Biso   1.000  I
  C213     1.0000 0.72430  0.61670  0.80820  Biso   1.000  C
  H141     1.0000 0.74660  0.63970  0.82750  Biso   1.000  H
  C214     1.0000 0.71780  0.52640  0.80630  Biso   1.000  C
  H142     1.0000 0.73600  0.48790  0.82420  Biso   1.000  H
  C215     1.0000 0.66650  0.63840  0.75430  Biso   1.000  C
  H143     1.0000 0.64870  0.67610  0.73550  Biso   1.000  H
  C216     1.0000 0.66110  0.54540  0.75390  Biso   1.000  C
  H144     1.0000 0.63900  0.52060  0.73490  Biso   1.000  H
  N71      1.0000 0.68620  0.49050  0.77960  Biso   1.000  N
  N72      1.0000 0.07210  0.48510  0.04940  Biso   1.000  N
  I60      1.0000 0.52525  0.14791  0.62867  Biso   1.000  I
  Zn23     1.0000 0.58439  0.11960  0.59396  Biso   1.000  Zn
  I61      1.0000 0.61787  0.23662  0.56014  Biso   1.000  I
  I62      1.0000 0.89584  0.23329  0.89813  Biso   1.000  I
  I63      1.0000 0.53610  0.16420  0.61620  Biso   1.000  I
  I64      1.0000 0.14500  0.81570  0.70760  Biso   1.000  I
  I65      1.0000 0.25570  0.77210  0.78760  Biso   1.000  I
  Zn24     1.0000 0.18470  0.85560  0.78200  Biso   1.000  Zn
  I66      1.0000 0.88347  0.23230  0.91120  Biso   1.000  I
  I67      1.0000 0.13577  0.27490  0.05360  Biso   1.000  I
  Zn25     1.0000 0.67430  0.64590  0.27380  Biso   1.000  Zn
  Zn26     1.0000 0.37716  0.41069  0.43656  Biso   1.000  Zn
  N73      1.0000 0.18180  0.68180  0.25000  Biso   1.000  N
  N74      1.0000 0.53980  0.65140  0.41000  Biso   1.000  N
  C217     1.0000 0.24190  0.60550  0.30460  Biso   1.000  C
  C218     1.0000 0.20600  0.72740  0.28120  Biso   1.000  C
  N75      1.0000 0.52630  0.73030  0.47080  Biso   1.000  N
  N76      1.0000 0.22130  0.55460  0.27290  Biso   1.000  N
  N77      1.0000 0.57720  0.77880  0.43770  Biso   1.000  N
  N78      1.0000 0.23580  0.69410  0.31030  Biso   1.000  N
  N79      1.0000 0.33420  0.47220  0.39260  Biso   1.000  N
  C219     1.0000 0.47000  0.59670  0.47660  Biso   1.000  C
  H145     1.0000 0.48080  0.62780  0.50300  Biso   1.000  H
  C220     1.0000 0.56080  0.86510  0.49600  Biso   1.000  C
  C221     1.0000 0.16730  0.54450  0.21110  Biso   1.000  C
  C222     1.0000 0.17650  0.45670  0.20310  Biso   1.000  C
  H146     1.0000 0.19790  0.42800  0.22140  Biso   1.000  H
  C223     1.0000 0.51910  0.66510  0.44020  Biso   1.000  C
  N80      1.0000 0.42260  0.49610  0.43920  Biso   1.000  N
  C224     1.0000 0.19120  0.59770  0.24770  Biso   1.000  C
  N81      1.0000 0.64120  0.66530  0.32140  Biso   1.000  N
  C225     1.0000 0.55430  0.78620  0.46590  Biso   1.000  C
  N82      1.0000 0.12260  0.44990  0.14220  Biso   1.000  N
  C226     1.0000 0.19890  0.82560  0.28290  Biso   1.000  C
  C227     1.0000 0.27390  0.56080  0.33570  Biso   1.000  C
  C228     1.0000 0.63020  0.73320  0.38450  Biso   1.000  C
  H147     1.0000 0.63930  0.77110  0.40900  Biso   1.000  H
  C229     1.0000 0.48570  0.60730  0.44050  Biso   1.000  C
  C230     1.0000 0.29600  0.60370  0.37120  Biso   1.000  C
  H148     1.0000 0.29140  0.66490  0.37630  Biso   1.000  H
  C231     1.0000 0.59370  0.69350  0.37890  Biso   1.000  C
  C232     1.0000 0.53970  0.96630  0.54520  Biso   1.000  C
  H149     1.0000 0.52060  0.98380  0.56070  Biso   1.000  H
  C233     1.0000 0.31210  0.43090  0.35690  Biso   1.000  C
  H150     1.0000 0.31730  0.37010  0.35140  Biso   1.000  H
  C234     1.0000 0.59440  0.91730  0.50000  Biso   1.000  C
  H151     1.0000 0.61390  0.90260  0.48460  Biso   1.000  H
  C235     1.0000 0.56930  0.70820  0.41080  Biso   1.000  C
  C236     1.0000 0.15370  0.41100  0.16750  Biso   1.000  C
  H152     1.0000 0.16030  0.35170  0.16120  Biso   1.000  H
  C237     1.0000 0.43960  0.54270  0.47510  Biso   1.000  C
  H153     1.0000 0.42950  0.53700  0.50080  Biso   1.000  H
  C238     1.0000 0.53380  0.89070  0.51880  Biso   1.000  C
  H154     1.0000 0.51080  0.85670  0.51650  Biso   1.000  H
  C239     1.0000 0.58320  0.63610  0.34320  Biso   1.000  C
  H155     1.0000 0.55920  0.60550  0.33830  Biso   1.000  H
  C240     1.0000 0.28290  0.47310  0.32890  Biso   1.000  C
  H156     1.0000 0.26850  0.44160  0.30430  Biso   1.000  H
  C241     1.0000 0.32500  0.55820  0.39970  Biso   1.000  C
  H157     1.0000 0.33890  0.58820  0.42510  Biso   1.000  H
  C242     1.0000 0.59780  0.99010  0.52700  Biso   1.000  C
  H158     1.0000 0.62040  0.02550  0.52980  Biso   1.000  H
  C243     1.0000 0.43580  0.50930  0.40510  Biso   1.000  C
  H159     1.0000 0.42340  0.47860  0.37920  Biso   1.000  H
  C244     1.0000 0.65210  0.71790  0.35540  Biso   1.000  C
  H160     1.0000 0.67660  0.74630  0.35950  Biso   1.000  H
  C245     1.0000 0.13590  0.58290  0.18410  Biso   1.000  C
  H161     1.0000 0.12980  0.64380  0.18780  Biso   1.000  H
  C246     1.0000 0.60660  0.62450  0.31650  Biso   1.000  C
  H162     1.0000 0.59880  0.58530  0.29220  Biso   1.000  H
  C247     1.0000 0.46720  0.56540  0.40210  Biso   1.000  C
  H163     1.0000 0.47510  0.57410  0.37520  Biso   1.000  H
  C248     1.0000 0.11330  0.53280  0.15150  Biso   1.000  C
  H164     1.0000 0.09020  0.55830  0.13500  Biso   1.000  H
  I68      1.0000 0.73734  0.73272  0.30173  Biso   1.000  I
  I69      1.0000 0.63129  0.67188  0.19873  Biso   1.000  I
  I70      1.0000 0.35802  0.41696  0.51003  Biso   1.000  I
  C249     1.0000 0.22430  0.88330  0.30820  Biso   1.000  C
  H165     1.0000 0.24660  0.86030  0.32750  Biso   1.000  H
  C250     1.0000 0.21780  0.97360  0.30630  Biso   1.000  C
  H166     1.0000 0.23600  0.01210  0.32420  Biso   1.000  H
  C251     1.0000 0.16650  0.86160  0.25430  Biso   1.000  C
  H167     1.0000 0.14870  0.82390  0.23550  Biso   1.000  H
  C252     1.0000 0.16110  0.95460  0.25390  Biso   1.000  C
  H168     1.0000 0.13900  0.97940  0.23490  Biso   1.000  H
  N83      1.0000 0.18620  0.00950  0.27960  Biso   1.000  N
  N84      1.0000 0.57210  0.01490  0.54940  Biso   1.000  N
  I71      1.0000 0.02525  0.35209  0.12867  Biso   1.000  I
  Zn27     1.0000 0.08439  0.38040  0.09396  Biso   1.000  Zn
  I72      1.0000 0.11787  0.26338  0.06014  Biso   1.000  I
  I73      1.0000 0.39584  0.26671  0.39813  Biso   1.000  I
  I74      1.0000 0.03610  0.33580  0.11620  Biso   1.000  I
  I75      1.0000 0.64500  0.68430  0.20760  Biso   1.000  I
  I76      1.0000 0.75570  0.72790  0.28760  Biso   1.000  I
  Zn28     1.0000 0.68470  0.64440  0.28200  Biso   1.000  Zn
  I77      1.0000 0.38347  0.26770  0.41120  Biso   1.000  I
  I78      1.0000 0.63577  0.77490  0.05360  Biso   1.000  I
  Zn29     1.0000 0.17430  0.14590  0.27380  Biso   1.000  Zn
  Zn30     1.0000 0.87716  0.91069  0.43656  Biso   1.000  Zn
  N85      1.0000 0.68180  0.18180  0.25000  Biso   1.000  N
  N86      1.0000 0.03980  0.15140  0.41000  Biso   1.000  N
  C253     1.0000 0.74190  0.10550  0.30460  Biso   1.000  C
  C254     1.0000 0.70600  0.22740  0.28120  Biso   1.000  C
  N87      1.0000 0.02630  0.23030  0.47080  Biso   1.000  N
  N88      1.0000 0.72130  0.05460  0.27290  Biso   1.000  N
  N89      1.0000 0.07720  0.27880  0.43770  Biso   1.000  N
  N90      1.0000 0.73580  0.19410  0.31030  Biso   1.000  N
  N91      1.0000 0.83420  0.97220  0.39260  Biso   1.000  N
  C255     1.0000 0.97000  0.09670  0.47660  Biso   1.000  C
  H169     1.0000 0.98080  0.12780  0.50300  Biso   1.000  H
  C256     1.0000 0.06080  0.36510  0.49600  Biso   1.000  C
  C257     1.0000 0.66730  0.04450  0.21110  Biso   1.000  C
  C258     1.0000 0.67650  0.95670  0.20310  Biso   1.000  C
  H170     1.0000 0.69790  0.92800  0.22140  Biso   1.000  H
  C259     1.0000 0.01910  0.16510  0.44020  Biso   1.000  C
  N92      1.0000 0.92260  0.99610  0.43920  Biso   1.000  N
  C260     1.0000 0.69120  0.09770  0.24770  Biso   1.000  C
  N93      1.0000 0.14120  0.16530  0.32140  Biso   1.000  N
  C261     1.0000 0.05430  0.28620  0.46590  Biso   1.000  C
  N94      1.0000 0.62260  0.94990  0.14220  Biso   1.000  N
  C262     1.0000 0.69890  0.32560  0.28290  Biso   1.000  C
  C263     1.0000 0.77390  0.06080  0.33570  Biso   1.000  C
  C264     1.0000 0.13020  0.23320  0.38450  Biso   1.000  C
  H171     1.0000 0.13930  0.27110  0.40900  Biso   1.000  H
  C265     1.0000 0.98570  0.10730  0.44050  Biso   1.000  C
  C266     1.0000 0.79600  0.10370  0.37120  Biso   1.000  C
  H172     1.0000 0.79140  0.16490  0.37630  Biso   1.000  H
  C267     1.0000 0.09370  0.19350  0.37890  Biso   1.000  C
  C268     1.0000 0.03970  0.46630  0.54520  Biso   1.000  C
  H173     1.0000 0.02060  0.48380  0.56070  Biso   1.000  H
  C269     1.0000 0.81210  0.93090  0.35690  Biso   1.000  C
  H174     1.0000 0.81730  0.87010  0.35140  Biso   1.000  H
  C270     1.0000 0.09440  0.41730  0.50000  Biso   1.000  C
  H175     1.0000 0.11390  0.40260  0.48460  Biso   1.000  H
  C271     1.0000 0.06930  0.20820  0.41080  Biso   1.000  C
  C272     1.0000 0.65370  0.91100  0.16750  Biso   1.000  C
  H176     1.0000 0.66030  0.85170  0.16120  Biso   1.000  H
  C273     1.0000 0.93960  0.04270  0.47510  Biso   1.000  C
  H177     1.0000 0.92950  0.03700  0.50080  Biso   1.000  H
  C274     1.0000 0.03380  0.39070  0.51880  Biso   1.000  C
  H178     1.0000 0.01080  0.35670  0.51650  Biso   1.000  H
  C275     1.0000 0.08320  0.13610  0.34320  Biso   1.000  C
  H179     1.0000 0.05920  0.10550  0.33830  Biso   1.000  H
  C276     1.0000 0.78290  0.97310  0.32890  Biso   1.000  C
  H180     1.0000 0.76850  0.94160  0.30430  Biso   1.000  H
  C277     1.0000 0.82500  0.05820  0.39970  Biso   1.000  C
  H181     1.0000 0.83890  0.08820  0.42510  Biso   1.000  H
  C278     1.0000 0.09780  0.49010  0.52700  Biso   1.000  C
  H182     1.0000 0.12040  0.52550  0.52980  Biso   1.000  H
  C279     1.0000 0.93580  0.00930  0.40510  Biso   1.000  C
  H183     1.0000 0.92340  0.97860  0.37920  Biso   1.000  H
  C280     1.0000 0.15210  0.21790  0.35540  Biso   1.000  C
  H184     1.0000 0.17660  0.24630  0.35950  Biso   1.000  H
  C281     1.0000 0.63590  0.08290  0.18410  Biso   1.000  C
  H185     1.0000 0.62980  0.14380  0.18780  Biso   1.000  H
  C282     1.0000 0.10660  0.12450  0.31650  Biso   1.000  C
  H186     1.0000 0.09880  0.08530  0.29220  Biso   1.000  H
  C283     1.0000 0.96720  0.06540  0.40210  Biso   1.000  C
  H187     1.0000 0.97510  0.07410  0.37520  Biso   1.000  H
  C284     1.0000 0.61330  0.03280  0.15150  Biso   1.000  C
  H188     1.0000 0.59020  0.05830  0.13500  Biso   1.000  H
  I79      1.0000 0.23734  0.23272  0.30173  Biso   1.000  I
  I80      1.0000 0.13129  0.17188  0.19873  Biso   1.000  I
  I81      1.0000 0.85802  0.91696  0.51003  Biso   1.000  I
  C285     1.0000 0.72430  0.38330  0.30820  Biso   1.000  C
  H189     1.0000 0.74660  0.36030  0.32750  Biso   1.000  H
  C286     1.0000 0.71780  0.47360  0.30630  Biso   1.000  C
  H190     1.0000 0.73600  0.51210  0.32420  Biso   1.000  H
  C287     1.0000 0.66650  0.36160  0.25430  Biso   1.000  C
  H191     1.0000 0.64870  0.32390  0.23550  Biso   1.000  H
  C288     1.0000 0.66110  0.45460  0.25390  Biso   1.000  C
  H192     1.0000 0.63900  0.47940  0.23490  Biso   1.000  H
  N95      1.0000 0.68620  0.50950  0.27960  Biso   1.000  N
  N96      1.0000 0.07210  0.51490  0.54940  Biso   1.000  N
  I82      1.0000 0.52525  0.85209  0.12867  Biso   1.000  I
  Zn31     1.0000 0.58439  0.88040  0.09396  Biso   1.000  Zn
  I83      1.0000 0.61787  0.76338  0.06014  Biso   1.000  I
  I84      1.0000 0.89584  0.76671  0.39813  Biso   1.000  I
  I85      1.0000 0.53610  0.83580  0.11620  Biso   1.000  I
  I86      1.0000 0.14500  0.18430  0.20760  Biso   1.000  I
  I87      1.0000 0.25570  0.22790  0.28760  Biso   1.000  I
  Zn32     1.0000 0.18470  0.14440  0.28200  Biso   1.000  Zn
  I88      1.0000 0.88347  0.76770  0.41120  Biso   1.000  I
