data_image0
_cell_length_a       39.7112
_cell_length_b       34.5319
_cell_length_c       8.2613
_cell_angle_alpha    90
_cell_angle_beta     90
_cell_angle_gamma    90

_symmetry_space_group_name_H-M    "P 1"
_symmetry_int_tables_number       1

loop_
  _symmetry_equiv_pos_as_xyz
  'x, y, z'

loop_
  _atom_site_label
  _atom_site_occupancy
  _atom_site_fract_x
  _atom_site_fract_y
  _atom_site_fract_z
  _atom_site_thermal_displace_type
  _atom_site_B_iso_or_equiv
  _atom_site_type_symbol
  I1       1.0000 0.06201  0.18080  0.14553  Biso   1.000  I
  I2       1.0000 0.07776  0.24774  0.58970  Biso   1.000  I
  Zn1      1.0000 0.07138  0.24589  0.28510  Biso   1.000  Zn
  I3       1.0000 0.21233  0.20721  0.80260  Biso   1.000  I
  N1       1.0000 0.10990  0.27340  0.15730  Biso   1.000  N
  N2       1.0000 0.28390  0.46640  0.96010  Biso   1.000  N
  C1       1.0000 0.14420  0.32900  0.10080  Biso   1.000  C
  H1       1.0000 0.15230  0.35310  0.13300  Biso   1.000  H
  C2       1.0000 0.12040  0.25780  0.01540  Biso   1.000  C
  H2       1.0000 0.11250  0.23340  0.98710  Biso   1.000  H
  C3       1.0000 0.12160  0.30870  0.19680  Biso   1.000  C
  H3       1.0000 0.11420  0.32010  0.29270  Biso   1.000  H
  N3       1.0000 0.19680  0.36180  0.90520  Biso   1.000  N
  N4       1.0000 0.18260  0.31600  0.69960  Biso   1.000  N
  C4       1.0000 0.17930  0.33120  0.84500  Biso   1.000  C
  C5       1.0000 0.24130  0.40840  0.85710  Biso   1.000  C
  C6       1.0000 0.28170  0.45780  0.80510  Biso   1.000  C
  H4       1.0000 0.29460  0.47180  0.73180  Biso   1.000  H
  C7       1.0000 0.24220  0.41830  0.01870  Biso   1.000  C
  H5       1.0000 0.22830  0.40610  0.09360  Biso   1.000  H
  N5       1.0000 0.22690  0.28270  0.14760  Biso   1.000  N
  C8       1.0000 0.14200  0.27610  0.91150  Biso   1.000  C
  H6       1.0000 0.14820  0.26460  0.81420  Biso   1.000  H
  C9       1.0000 0.26450  0.44700  0.06550  Biso   1.000  C
  H7       1.0000 0.26600  0.45310  0.17490  Biso   1.000  H
  C10      1.0000 0.15460  0.31250  0.95500  Biso   1.000  C
  N6       1.0000 0.22540  0.36220  0.65220  Biso   1.000  N
  C11      1.0000 0.20610  0.33230  0.60850  Biso   1.000  C
  C12      1.0000 0.26050  0.42820  0.74540  Biso   1.000  C
  H8       1.0000 0.25970  0.42220  0.63570  Biso   1.000  H
  C13      1.0000 0.19750  0.28100  0.39800  Biso   1.000  C
  H9       1.0000 0.18230  0.26820  0.46500  Biso   1.000  H
  C14      1.0000 0.21950  0.37590  0.79860  Biso   1.000  C
  C15      1.0000 0.21240  0.31560  0.44850  Biso   1.000  C
  C16      1.0000 0.23430  0.33340  0.33880  Biso   1.000  C
  H10      1.0000 0.24480  0.35660  0.36640  Biso   1.000  H
  C17      1.0000 0.20540  0.26610  0.24770  Biso   1.000  C
  H11      1.0000 0.19500  0.24320  0.21540  Biso   1.000  H
  C18      1.0000 0.24040  0.31680  0.18990  Biso   1.000  C
  H12      1.0000 0.25430  0.32960  0.11670  Biso   1.000  H
  I4       1.0000 0.20390  0.19550  0.85670  Biso   1.000  I
  I5       1.0000 0.06201  0.68080  0.64553  Biso   1.000  I
  I6       1.0000 0.07776  0.74774  0.08970  Biso   1.000  I
  Zn2      1.0000 0.07138  0.74589  0.78510  Biso   1.000  Zn
  I7       1.0000 0.21233  0.70721  0.30260  Biso   1.000  I
  N7       1.0000 0.10990  0.77340  0.65730  Biso   1.000  N
  N8       1.0000 0.28390  0.96640  0.46010  Biso   1.000  N
  C19      1.0000 0.14420  0.82900  0.60080  Biso   1.000  C
  H13      1.0000 0.15230  0.85310  0.63300  Biso   1.000  H
  C20      1.0000 0.12040  0.75780  0.51540  Biso   1.000  C
  H14      1.0000 0.11250  0.73340  0.48710  Biso   1.000  H
  C21      1.0000 0.12160  0.80870  0.69680  Biso   1.000  C
  H15      1.0000 0.11420  0.82010  0.79270  Biso   1.000  H
  N9       1.0000 0.19680  0.86180  0.40520  Biso   1.000  N
  N10      1.0000 0.18260  0.81600  0.19960  Biso   1.000  N
  C22      1.0000 0.17930  0.83120  0.34500  Biso   1.000  C
  C23      1.0000 0.24130  0.90840  0.35710  Biso   1.000  C
  C24      1.0000 0.28170  0.95780  0.30510  Biso   1.000  C
  H16      1.0000 0.29460  0.97180  0.23180  Biso   1.000  H
  C25      1.0000 0.24220  0.91830  0.51870  Biso   1.000  C
  H17      1.0000 0.22830  0.90610  0.59360  Biso   1.000  H
  N11      1.0000 0.22690  0.78270  0.64760  Biso   1.000  N
  C26      1.0000 0.14200  0.77610  0.41150  Biso   1.000  C
  H18      1.0000 0.14820  0.76460  0.31420  Biso   1.000  H
  C27      1.0000 0.26450  0.94700  0.56550  Biso   1.000  C
  H19      1.0000 0.26600  0.95310  0.67490  Biso   1.000  H
  C28      1.0000 0.15460  0.81250  0.45500  Biso   1.000  C
  N12      1.0000 0.22540  0.86220  0.15220  Biso   1.000  N
  C29      1.0000 0.20610  0.83230  0.10850  Biso   1.000  C
  C30      1.0000 0.26050  0.92820  0.24540  Biso   1.000  C
  H20      1.0000 0.25970  0.92220  0.13570  Biso   1.000  H
  C31      1.0000 0.19750  0.78100  0.89800  Biso   1.000  C
  H21      1.0000 0.18230  0.76820  0.96500  Biso   1.000  H
  C32      1.0000 0.21950  0.87590  0.29860  Biso   1.000  C
  C33      1.0000 0.21240  0.81560  0.94850  Biso   1.000  C
  C34      1.0000 0.23430  0.83340  0.83880  Biso   1.000  C
  H22      1.0000 0.24480  0.85660  0.86640  Biso   1.000  H
  C35      1.0000 0.20540  0.76610  0.74770  Biso   1.000  C
  H23      1.0000 0.19500  0.74320  0.71540  Biso   1.000  H
  C36      1.0000 0.24040  0.81680  0.68990  Biso   1.000  C
  H24      1.0000 0.25430  0.82960  0.61670  Biso   1.000  H
  I8       1.0000 0.20390  0.69550  0.35670  Biso   1.000  I
  I9       1.0000 0.56201  0.18080  0.64553  Biso   1.000  I
  I10      1.0000 0.57776  0.24774  0.08970  Biso   1.000  I
  Zn3      1.0000 0.57138  0.24589  0.78510  Biso   1.000  Zn
  I11      1.0000 0.71233  0.20721  0.30260  Biso   1.000  I
  N13      1.0000 0.60990  0.27340  0.65730  Biso   1.000  N
  N14      1.0000 0.78390  0.46640  0.46010  Biso   1.000  N
  C37      1.0000 0.64420  0.32900  0.60080  Biso   1.000  C
  H25      1.0000 0.65230  0.35310  0.63300  Biso   1.000  H
  C38      1.0000 0.62040  0.25780  0.51540  Biso   1.000  C
  H26      1.0000 0.61250  0.23340  0.48710  Biso   1.000  H
  C39      1.0000 0.62160  0.30870  0.69680  Biso   1.000  C
  H27      1.0000 0.61420  0.32010  0.79270  Biso   1.000  H
  N15      1.0000 0.69680  0.36180  0.40520  Biso   1.000  N
  N16      1.0000 0.68260  0.31600  0.19960  Biso   1.000  N
  C40      1.0000 0.67930  0.33120  0.34500  Biso   1.000  C
  C41      1.0000 0.74130  0.40840  0.35710  Biso   1.000  C
  C42      1.0000 0.78170  0.45780  0.30510  Biso   1.000  C
  H28      1.0000 0.79460  0.47180  0.23180  Biso   1.000  H
  C43      1.0000 0.74220  0.41830  0.51870  Biso   1.000  C
  H29      1.0000 0.72830  0.40610  0.59360  Biso   1.000  H
  N17      1.0000 0.72690  0.28270  0.64760  Biso   1.000  N
  C44      1.0000 0.64200  0.27610  0.41150  Biso   1.000  C
  H30      1.0000 0.64820  0.26460  0.31420  Biso   1.000  H
  C45      1.0000 0.76450  0.44700  0.56550  Biso   1.000  C
  H31      1.0000 0.76600  0.45310  0.67490  Biso   1.000  H
  C46      1.0000 0.65460  0.31250  0.45500  Biso   1.000  C
  N18      1.0000 0.72540  0.36220  0.15220  Biso   1.000  N
  C47      1.0000 0.70610  0.33230  0.10850  Biso   1.000  C
  C48      1.0000 0.76050  0.42820  0.24540  Biso   1.000  C
  H32      1.0000 0.75970  0.42220  0.13570  Biso   1.000  H
  C49      1.0000 0.69750  0.28100  0.89800  Biso   1.000  C
  H33      1.0000 0.68230  0.26820  0.96500  Biso   1.000  H
  C50      1.0000 0.71950  0.37590  0.29860  Biso   1.000  C
  C51      1.0000 0.71240  0.31560  0.94850  Biso   1.000  C
  C52      1.0000 0.73430  0.33340  0.83880  Biso   1.000  C
  H34      1.0000 0.74480  0.35660  0.86640  Biso   1.000  H
  C53      1.0000 0.70540  0.26610  0.74770  Biso   1.000  C
  H35      1.0000 0.69500  0.24320  0.71540  Biso   1.000  H
  C54      1.0000 0.74040  0.31680  0.68990  Biso   1.000  C
  H36      1.0000 0.75430  0.32960  0.61670  Biso   1.000  H
  I12      1.0000 0.70390  0.19550  0.35670  Biso   1.000  I
  I13      1.0000 0.56201  0.68080  0.14553  Biso   1.000  I
  I14      1.0000 0.57776  0.74774  0.58970  Biso   1.000  I
  Zn4      1.0000 0.57138  0.74589  0.28510  Biso   1.000  Zn
  I15      1.0000 0.71233  0.70721  0.80260  Biso   1.000  I
  N19      1.0000 0.60990  0.77340  0.15730  Biso   1.000  N
  N20      1.0000 0.78390  0.96640  0.96010  Biso   1.000  N
  C55      1.0000 0.64420  0.82900  0.10080  Biso   1.000  C
  H37      1.0000 0.65230  0.85310  0.13300  Biso   1.000  H
  C56      1.0000 0.62040  0.75780  0.01540  Biso   1.000  C
  H38      1.0000 0.61250  0.73340  0.98710  Biso   1.000  H
  C57      1.0000 0.62160  0.80870  0.19680  Biso   1.000  C
  H39      1.0000 0.61420  0.82010  0.29270  Biso   1.000  H
  N21      1.0000 0.69680  0.86180  0.90520  Biso   1.000  N
  N22      1.0000 0.68260  0.81600  0.69960  Biso   1.000  N
  C58      1.0000 0.67930  0.83120  0.84500  Biso   1.000  C
  C59      1.0000 0.74130  0.90840  0.85710  Biso   1.000  C
  C60      1.0000 0.78170  0.95780  0.80510  Biso   1.000  C
  H40      1.0000 0.79460  0.97180  0.73180  Biso   1.000  H
  C61      1.0000 0.74220  0.91830  0.01870  Biso   1.000  C
  H41      1.0000 0.72830  0.90610  0.09360  Biso   1.000  H
  N23      1.0000 0.72690  0.78270  0.14760  Biso   1.000  N
  C62      1.0000 0.64200  0.77610  0.91150  Biso   1.000  C
  H42      1.0000 0.64820  0.76460  0.81420  Biso   1.000  H
  C63      1.0000 0.76450  0.94700  0.06550  Biso   1.000  C
  H43      1.0000 0.76600  0.95310  0.17490  Biso   1.000  H
  C64      1.0000 0.65460  0.81250  0.95500  Biso   1.000  C
  N24      1.0000 0.72540  0.86220  0.65220  Biso   1.000  N
  C65      1.0000 0.70610  0.83230  0.60850  Biso   1.000  C
  C66      1.0000 0.76050  0.92820  0.74540  Biso   1.000  C
  H44      1.0000 0.75970  0.92220  0.63570  Biso   1.000  H
  C67      1.0000 0.69750  0.78100  0.39800  Biso   1.000  C
  H45      1.0000 0.68230  0.76820  0.46500  Biso   1.000  H
  C68      1.0000 0.71950  0.87590  0.79860  Biso   1.000  C
  C69      1.0000 0.71240  0.81560  0.44850  Biso   1.000  C
  C70      1.0000 0.73430  0.83340  0.33880  Biso   1.000  C
  H46      1.0000 0.74480  0.85660  0.36640  Biso   1.000  H
  C71      1.0000 0.70540  0.76610  0.24770  Biso   1.000  C
  H47      1.0000 0.69500  0.74320  0.21540  Biso   1.000  H
  C72      1.0000 0.74040  0.81680  0.18990  Biso   1.000  C
  H48      1.0000 0.75430  0.82960  0.11670  Biso   1.000  H
  I16      1.0000 0.70390  0.69550  0.85670  Biso   1.000  I
  I17      1.0000 0.93799  0.81920  0.14553  Biso   1.000  I
  I18      1.0000 0.92224  0.75226  0.58970  Biso   1.000  I
  Zn5      1.0000 0.92862  0.75411  0.28510  Biso   1.000  Zn
  I19      1.0000 0.78767  0.79279  0.80260  Biso   1.000  I
  N25      1.0000 0.89010  0.72660  0.15730  Biso   1.000  N
  N26      1.0000 0.71610  0.53360  0.96010  Biso   1.000  N
  C73      1.0000 0.85580  0.67100  0.10080  Biso   1.000  C
  H49      1.0000 0.84770  0.64690  0.13300  Biso   1.000  H
  C74      1.0000 0.87960  0.74220  0.01540  Biso   1.000  C
  H50      1.0000 0.88750  0.76660  0.98710  Biso   1.000  H
  C75      1.0000 0.87840  0.69130  0.19680  Biso   1.000  C
  H51      1.0000 0.88580  0.67990  0.29270  Biso   1.000  H
  N27      1.0000 0.80320  0.63820  0.90520  Biso   1.000  N
  N28      1.0000 0.81740  0.68400  0.69960  Biso   1.000  N
  C76      1.0000 0.82070  0.66880  0.84500  Biso   1.000  C
  C77      1.0000 0.75870  0.59160  0.85710  Biso   1.000  C
  C78      1.0000 0.71830  0.54220  0.80510  Biso   1.000  C
  H52      1.0000 0.70540  0.52820  0.73180  Biso   1.000  H
  C79      1.0000 0.75780  0.58170  0.01870  Biso   1.000  C
  H53      1.0000 0.77170  0.59390  0.09360  Biso   1.000  H
  N29      1.0000 0.77310  0.71730  0.14760  Biso   1.000  N
  C80      1.0000 0.85800  0.72390  0.91150  Biso   1.000  C
  H54      1.0000 0.85180  0.73540  0.81420  Biso   1.000  H
  C81      1.0000 0.73550  0.55300  0.06550  Biso   1.000  C
  H55      1.0000 0.73400  0.54690  0.17490  Biso   1.000  H
  C82      1.0000 0.84540  0.68750  0.95500  Biso   1.000  C
  N30      1.0000 0.77460  0.63780  0.65220  Biso   1.000  N
  C83      1.0000 0.79390  0.66770  0.60850  Biso   1.000  C
  C84      1.0000 0.73950  0.57180  0.74540  Biso   1.000  C
  H56      1.0000 0.74030  0.57780  0.63570  Biso   1.000  H
  C85      1.0000 0.80250  0.71900  0.39800  Biso   1.000  C
  H57      1.0000 0.81770  0.73180  0.46500  Biso   1.000  H
  C86      1.0000 0.78050  0.62410  0.79860  Biso   1.000  C
  C87      1.0000 0.78760  0.68440  0.44850  Biso   1.000  C
  C88      1.0000 0.76570  0.66660  0.33880  Biso   1.000  C
  H58      1.0000 0.75520  0.64340  0.36640  Biso   1.000  H
  C89      1.0000 0.79460  0.73390  0.24770  Biso   1.000  C
  H59      1.0000 0.80500  0.75680  0.21540  Biso   1.000  H
  C90      1.0000 0.75960  0.68320  0.18990  Biso   1.000  C
  H60      1.0000 0.74570  0.67040  0.11670  Biso   1.000  H
  I20      1.0000 0.79610  0.80450  0.85670  Biso   1.000  I
  I21      1.0000 0.93799  0.31920  0.64553  Biso   1.000  I
  I22      1.0000 0.92224  0.25226  0.08970  Biso   1.000  I
  Zn6      1.0000 0.92862  0.25411  0.78510  Biso   1.000  Zn
  I23      1.0000 0.78767  0.29279  0.30260  Biso   1.000  I
  N31      1.0000 0.89010  0.22660  0.65730  Biso   1.000  N
  N32      1.0000 0.71610  0.03360  0.46010  Biso   1.000  N
  C91      1.0000 0.85580  0.17100  0.60080  Biso   1.000  C
  H61      1.0000 0.84770  0.14690  0.63300  Biso   1.000  H
  C92      1.0000 0.87960  0.24220  0.51540  Biso   1.000  C
  H62      1.0000 0.88750  0.26660  0.48710  Biso   1.000  H
  C93      1.0000 0.87840  0.19130  0.69680  Biso   1.000  C
  H63      1.0000 0.88580  0.17990  0.79270  Biso   1.000  H
  N33      1.0000 0.80320  0.13820  0.40520  Biso   1.000  N
  N34      1.0000 0.81740  0.18400  0.19960  Biso   1.000  N
  C94      1.0000 0.82070  0.16880  0.34500  Biso   1.000  C
  C95      1.0000 0.75870  0.09160  0.35710  Biso   1.000  C
  C96      1.0000 0.71830  0.04220  0.30510  Biso   1.000  C
  H64      1.0000 0.70540  0.02820  0.23180  Biso   1.000  H
  C97      1.0000 0.75780  0.08170  0.51870  Biso   1.000  C
  H65      1.0000 0.77170  0.09390  0.59360  Biso   1.000  H
  N35      1.0000 0.77310  0.21730  0.64760  Biso   1.000  N
  C98      1.0000 0.85800  0.22390  0.41150  Biso   1.000  C
  H66      1.0000 0.85180  0.23540  0.31420  Biso   1.000  H
  C99      1.0000 0.73550  0.05300  0.56550  Biso   1.000  C
  H67      1.0000 0.73400  0.04690  0.67490  Biso   1.000  H
  C100     1.0000 0.84540  0.18750  0.45500  Biso   1.000  C
  N36      1.0000 0.77460  0.13780  0.15220  Biso   1.000  N
  C101     1.0000 0.79390  0.16770  0.10850  Biso   1.000  C
  C102     1.0000 0.73950  0.07180  0.24540  Biso   1.000  C
  H68      1.0000 0.74030  0.07780  0.13570  Biso   1.000  H
  C103     1.0000 0.80250  0.21900  0.89800  Biso   1.000  C
  H69      1.0000 0.81770  0.23180  0.96500  Biso   1.000  H
  C104     1.0000 0.78050  0.12410  0.29860  Biso   1.000  C
  C105     1.0000 0.78760  0.18440  0.94850  Biso   1.000  C
  C106     1.0000 0.76570  0.16660  0.83880  Biso   1.000  C
  H70      1.0000 0.75520  0.14340  0.86640  Biso   1.000  H
  C107     1.0000 0.79460  0.23390  0.74770  Biso   1.000  C
  H71      1.0000 0.80500  0.25680  0.71540  Biso   1.000  H
  C108     1.0000 0.75960  0.18320  0.68990  Biso   1.000  C
  H72      1.0000 0.74570  0.17040  0.61670  Biso   1.000  H
  I24      1.0000 0.79610  0.30450  0.35670  Biso   1.000  I
  I25      1.0000 0.43799  0.81920  0.64553  Biso   1.000  I
  I26      1.0000 0.42224  0.75226  0.08970  Biso   1.000  I
  Zn7      1.0000 0.42862  0.75411  0.78510  Biso   1.000  Zn
  I27      1.0000 0.28767  0.79279  0.30260  Biso   1.000  I
  N37      1.0000 0.39010  0.72660  0.65730  Biso   1.000  N
  N38      1.0000 0.21610  0.53360  0.46010  Biso   1.000  N
  C109     1.0000 0.35580  0.67100  0.60080  Biso   1.000  C
  H73      1.0000 0.34770  0.64690  0.63300  Biso   1.000  H
  C110     1.0000 0.37960  0.74220  0.51540  Biso   1.000  C
  H74      1.0000 0.38750  0.76660  0.48710  Biso   1.000  H
  C111     1.0000 0.37840  0.69130  0.69680  Biso   1.000  C
  H75      1.0000 0.38580  0.67990  0.79270  Biso   1.000  H
  N39      1.0000 0.30320  0.63820  0.40520  Biso   1.000  N
  N40      1.0000 0.31740  0.68400  0.19960  Biso   1.000  N
  C112     1.0000 0.32070  0.66880  0.34500  Biso   1.000  C
  C113     1.0000 0.25870  0.59160  0.35710  Biso   1.000  C
  C114     1.0000 0.21830  0.54220  0.30510  Biso   1.000  C
  H76      1.0000 0.20540  0.52820  0.23180  Biso   1.000  H
  C115     1.0000 0.25780  0.58170  0.51870  Biso   1.000  C
  H77      1.0000 0.27170  0.59390  0.59360  Biso   1.000  H
  N41      1.0000 0.27310  0.71730  0.64760  Biso   1.000  N
  C116     1.0000 0.35800  0.72390  0.41150  Biso   1.000  C
  H78      1.0000 0.35180  0.73540  0.31420  Biso   1.000  H
  C117     1.0000 0.23550  0.55300  0.56550  Biso   1.000  C
  H79      1.0000 0.23400  0.54690  0.67490  Biso   1.000  H
  C118     1.0000 0.34540  0.68750  0.45500  Biso   1.000  C
  N42      1.0000 0.27460  0.63780  0.15220  Biso   1.000  N
  C119     1.0000 0.29390  0.66770  0.10850  Biso   1.000  C
  C120     1.0000 0.23950  0.57180  0.24540  Biso   1.000  C
  H80      1.0000 0.24030  0.57780  0.13570  Biso   1.000  H
  C121     1.0000 0.30250  0.71900  0.89800  Biso   1.000  C
  H81      1.0000 0.31770  0.73180  0.96500  Biso   1.000  H
  C122     1.0000 0.28050  0.62410  0.29860  Biso   1.000  C
  C123     1.0000 0.28760  0.68440  0.94850  Biso   1.000  C
  C124     1.0000 0.26570  0.66660  0.83880  Biso   1.000  C
  H82      1.0000 0.25520  0.64340  0.86640  Biso   1.000  H
  C125     1.0000 0.29460  0.73390  0.74770  Biso   1.000  C
  H83      1.0000 0.30500  0.75680  0.71540  Biso   1.000  H
  C126     1.0000 0.25960  0.68320  0.68990  Biso   1.000  C
  H84      1.0000 0.24570  0.67040  0.61670  Biso   1.000  H
  I28      1.0000 0.29610  0.80450  0.35670  Biso   1.000  I
  I29      1.0000 0.43799  0.31920  0.14553  Biso   1.000  I
  I30      1.0000 0.42224  0.25226  0.58970  Biso   1.000  I
  Zn8      1.0000 0.42862  0.25411  0.28510  Biso   1.000  Zn
  I31      1.0000 0.28767  0.29279  0.80260  Biso   1.000  I
  N43      1.0000 0.39010  0.22660  0.15730  Biso   1.000  N
  N44      1.0000 0.21610  0.03360  0.96010  Biso   1.000  N
  C127     1.0000 0.35580  0.17100  0.10080  Biso   1.000  C
  H85      1.0000 0.34770  0.14690  0.13300  Biso   1.000  H
  C128     1.0000 0.37960  0.24220  0.01540  Biso   1.000  C
  H86      1.0000 0.38750  0.26660  0.98710  Biso   1.000  H
  C129     1.0000 0.37840  0.19130  0.19680  Biso   1.000  C
  H87      1.0000 0.38580  0.17990  0.29270  Biso   1.000  H
  N45      1.0000 0.30320  0.13820  0.90520  Biso   1.000  N
  N46      1.0000 0.31740  0.18400  0.69960  Biso   1.000  N
  C130     1.0000 0.32070  0.16880  0.84500  Biso   1.000  C
  C131     1.0000 0.25870  0.09160  0.85710  Biso   1.000  C
  C132     1.0000 0.21830  0.04220  0.80510  Biso   1.000  C
  H88      1.0000 0.20540  0.02820  0.73180  Biso   1.000  H
  C133     1.0000 0.25780  0.08170  0.01870  Biso   1.000  C
  H89      1.0000 0.27170  0.09390  0.09360  Biso   1.000  H
  N47      1.0000 0.27310  0.21730  0.14760  Biso   1.000  N
  C134     1.0000 0.35800  0.22390  0.91150  Biso   1.000  C
  H90      1.0000 0.35180  0.23540  0.81420  Biso   1.000  H
  C135     1.0000 0.23550  0.05300  0.06550  Biso   1.000  C
  H91      1.0000 0.23400  0.04690  0.17490  Biso   1.000  H
  C136     1.0000 0.34540  0.18750  0.95500  Biso   1.000  C
  N48      1.0000 0.27460  0.13780  0.65220  Biso   1.000  N
  C137     1.0000 0.29390  0.16770  0.60850  Biso   1.000  C
  C138     1.0000 0.23950  0.07180  0.74540  Biso   1.000  C
  H92      1.0000 0.24030  0.07780  0.63570  Biso   1.000  H
  C139     1.0000 0.30250  0.21900  0.39800  Biso   1.000  C
  H93      1.0000 0.31770  0.23180  0.46500  Biso   1.000  H
  C140     1.0000 0.28050  0.12410  0.79860  Biso   1.000  C
  C141     1.0000 0.28760  0.18440  0.44850  Biso   1.000  C
  C142     1.0000 0.26570  0.16660  0.33880  Biso   1.000  C
  H94      1.0000 0.25520  0.14340  0.36640  Biso   1.000  H
  C143     1.0000 0.29460  0.23390  0.24770  Biso   1.000  C
  H95      1.0000 0.30500  0.25680  0.21540  Biso   1.000  H
  C144     1.0000 0.25960  0.18320  0.18990  Biso   1.000  C
  H96      1.0000 0.24570  0.17040  0.11670  Biso   1.000  H
  I32      1.0000 0.29610  0.30450  0.85670  Biso   1.000  I
  I33      1.0000 0.31201  0.06920  0.39553  Biso   1.000  I
  I34      1.0000 0.32776  0.00226  0.83970  Biso   1.000  I
  Zn9      1.0000 0.32138  0.00411  0.53510  Biso   1.000  Zn
  I35      1.0000 0.46233  0.04279  0.05260  Biso   1.000  I
  N49      1.0000 0.35990  0.97660  0.40730  Biso   1.000  N
  N50      1.0000 0.53390  0.78360  0.21010  Biso   1.000  N
  C145     1.0000 0.39420  0.92100  0.35080  Biso   1.000  C
  H97      1.0000 0.40230  0.89690  0.38300  Biso   1.000  H
  C146     1.0000 0.37040  0.99220  0.26540  Biso   1.000  C
  H98      1.0000 0.36250  0.01660  0.23710  Biso   1.000  H
  C147     1.0000 0.37160  0.94130  0.44680  Biso   1.000  C
  H99      1.0000 0.36420  0.92990  0.54270  Biso   1.000  H
  N51      1.0000 0.44680  0.88820  0.15520  Biso   1.000  N
  N52      1.0000 0.43260  0.93400  0.94960  Biso   1.000  N
  C148     1.0000 0.42930  0.91880  0.09500  Biso   1.000  C
  C149     1.0000 0.49130  0.84160  0.10710  Biso   1.000  C
  C150     1.0000 0.53170  0.79220  0.05510  Biso   1.000  C
  H100     1.0000 0.54460  0.77820  0.98180  Biso   1.000  H
  C151     1.0000 0.49220  0.83170  0.26870  Biso   1.000  C
  H101     1.0000 0.47830  0.84390  0.34360  Biso   1.000  H
  N53      1.0000 0.47690  0.96730  0.39760  Biso   1.000  N
  C152     1.0000 0.39200  0.97390  0.16150  Biso   1.000  C
  H102     1.0000 0.39820  0.98540  0.06420  Biso   1.000  H
  C153     1.0000 0.51450  0.80300  0.31550  Biso   1.000  C
  H103     1.0000 0.51600  0.79690  0.42490  Biso   1.000  H
  C154     1.0000 0.40460  0.93750  0.20500  Biso   1.000  C
  N54      1.0000 0.47540  0.88780  0.90220  Biso   1.000  N
  C155     1.0000 0.45610  0.91770  0.85850  Biso   1.000  C
  C156     1.0000 0.51050  0.82180  0.99540  Biso   1.000  C
  H104     1.0000 0.50970  0.82780  0.88570  Biso   1.000  H
  C157     1.0000 0.44750  0.96900  0.64800  Biso   1.000  C
  H105     1.0000 0.43230  0.98180  0.71500  Biso   1.000  H
  C158     1.0000 0.46950  0.87410  0.04860  Biso   1.000  C
  C159     1.0000 0.46240  0.93440  0.69850  Biso   1.000  C
  C160     1.0000 0.48430  0.91660  0.58880  Biso   1.000  C
  H106     1.0000 0.49480  0.89340  0.61640  Biso   1.000  H
  C161     1.0000 0.45540  0.98390  0.49770  Biso   1.000  C
  H107     1.0000 0.44500  0.00680  0.46540  Biso   1.000  H
  C162     1.0000 0.49040  0.93320  0.43990  Biso   1.000  C
  H108     1.0000 0.50430  0.92040  0.36670  Biso   1.000  H
  I36      1.0000 0.45390  0.05450  0.10670  Biso   1.000  I
  I37      1.0000 0.31201  0.56920  0.89553  Biso   1.000  I
  I38      1.0000 0.32776  0.50226  0.33970  Biso   1.000  I
  Zn10     1.0000 0.32138  0.50411  0.03510  Biso   1.000  Zn
  I39      1.0000 0.46233  0.54279  0.55260  Biso   1.000  I
  N55      1.0000 0.35990  0.47660  0.90730  Biso   1.000  N
  N56      1.0000 0.53390  0.28360  0.71010  Biso   1.000  N
  C163     1.0000 0.39420  0.42100  0.85080  Biso   1.000  C
  H109     1.0000 0.40230  0.39690  0.88300  Biso   1.000  H
  C164     1.0000 0.37040  0.49220  0.76540  Biso   1.000  C
  H110     1.0000 0.36250  0.51660  0.73710  Biso   1.000  H
  C165     1.0000 0.37160  0.44130  0.94680  Biso   1.000  C
  H111     1.0000 0.36420  0.42990  0.04270  Biso   1.000  H
  N57      1.0000 0.44680  0.38820  0.65520  Biso   1.000  N
  N58      1.0000 0.43260  0.43400  0.44960  Biso   1.000  N
  C166     1.0000 0.42930  0.41880  0.59500  Biso   1.000  C
  C167     1.0000 0.49130  0.34160  0.60710  Biso   1.000  C
  C168     1.0000 0.53170  0.29220  0.55510  Biso   1.000  C
  H112     1.0000 0.54460  0.27820  0.48180  Biso   1.000  H
  C169     1.0000 0.49220  0.33170  0.76870  Biso   1.000  C
  H113     1.0000 0.47830  0.34390  0.84360  Biso   1.000  H
  N59      1.0000 0.47690  0.46730  0.89760  Biso   1.000  N
  C170     1.0000 0.39200  0.47390  0.66150  Biso   1.000  C
  H114     1.0000 0.39820  0.48540  0.56420  Biso   1.000  H
  C171     1.0000 0.51450  0.30300  0.81550  Biso   1.000  C
  H115     1.0000 0.51600  0.29690  0.92490  Biso   1.000  H
  C172     1.0000 0.40460  0.43750  0.70500  Biso   1.000  C
  N60      1.0000 0.47540  0.38780  0.40220  Biso   1.000  N
  C173     1.0000 0.45610  0.41770  0.35850  Biso   1.000  C
  C174     1.0000 0.51050  0.32180  0.49540  Biso   1.000  C
  H116     1.0000 0.50970  0.32780  0.38570  Biso   1.000  H
  C175     1.0000 0.44750  0.46900  0.14800  Biso   1.000  C
  H117     1.0000 0.43230  0.48180  0.21500  Biso   1.000  H
  C176     1.0000 0.46950  0.37410  0.54860  Biso   1.000  C
  C177     1.0000 0.46240  0.43440  0.19850  Biso   1.000  C
  C178     1.0000 0.48430  0.41660  0.08880  Biso   1.000  C
  H118     1.0000 0.49480  0.39340  0.11640  Biso   1.000  H
  C179     1.0000 0.45540  0.48390  0.99770  Biso   1.000  C
  H119     1.0000 0.44500  0.50680  0.96540  Biso   1.000  H
  C180     1.0000 0.49040  0.43320  0.93990  Biso   1.000  C
  H120     1.0000 0.50430  0.42040  0.86670  Biso   1.000  H
  I40      1.0000 0.45390  0.55450  0.60670  Biso   1.000  I
  I41      1.0000 0.81201  0.06920  0.89553  Biso   1.000  I
  I42      1.0000 0.82776  0.00226  0.33970  Biso   1.000  I
  Zn11     1.0000 0.82138  0.00411  0.03510  Biso   1.000  Zn
  I43      1.0000 0.96233  0.04279  0.55260  Biso   1.000  I
  N61      1.0000 0.85990  0.97660  0.90730  Biso   1.000  N
  N62      1.0000 0.03390  0.78360  0.71010  Biso   1.000  N
  C181     1.0000 0.89420  0.92100  0.85080  Biso   1.000  C
  H121     1.0000 0.90230  0.89690  0.88300  Biso   1.000  H
  C182     1.0000 0.87040  0.99220  0.76540  Biso   1.000  C
  H122     1.0000 0.86250  0.01660  0.73710  Biso   1.000  H
  C183     1.0000 0.87160  0.94130  0.94680  Biso   1.000  C
  H123     1.0000 0.86420  0.92990  0.04270  Biso   1.000  H
  N63      1.0000 0.94680  0.88820  0.65520  Biso   1.000  N
  N64      1.0000 0.93260  0.93400  0.44960  Biso   1.000  N
  C184     1.0000 0.92930  0.91880  0.59500  Biso   1.000  C
  C185     1.0000 0.99130  0.84160  0.60710  Biso   1.000  C
  C186     1.0000 0.03170  0.79220  0.55510  Biso   1.000  C
  H124     1.0000 0.04460  0.77820  0.48180  Biso   1.000  H
  C187     1.0000 0.99220  0.83170  0.76870  Biso   1.000  C
  H125     1.0000 0.97830  0.84390  0.84360  Biso   1.000  H
  N65      1.0000 0.97690  0.96730  0.89760  Biso   1.000  N
  C188     1.0000 0.89200  0.97390  0.66150  Biso   1.000  C
  H126     1.0000 0.89820  0.98540  0.56420  Biso   1.000  H
  C189     1.0000 0.01450  0.80300  0.81550  Biso   1.000  C
  H127     1.0000 0.01600  0.79690  0.92490  Biso   1.000  H
  C190     1.0000 0.90460  0.93750  0.70500  Biso   1.000  C
  N66      1.0000 0.97540  0.88780  0.40220  Biso   1.000  N
  C191     1.0000 0.95610  0.91770  0.35850  Biso   1.000  C
  C192     1.0000 0.01050  0.82180  0.49540  Biso   1.000  C
  H128     1.0000 0.00970  0.82780  0.38570  Biso   1.000  H
  C193     1.0000 0.94750  0.96900  0.14800  Biso   1.000  C
  H129     1.0000 0.93230  0.98180  0.21500  Biso   1.000  H
  C194     1.0000 0.96950  0.87410  0.54860  Biso   1.000  C
  C195     1.0000 0.96240  0.93440  0.19850  Biso   1.000  C
  C196     1.0000 0.98430  0.91660  0.08880  Biso   1.000  C
  H130     1.0000 0.99480  0.89340  0.11640  Biso   1.000  H
  C197     1.0000 0.95540  0.98390  0.99770  Biso   1.000  C
  H131     1.0000 0.94500  0.00680  0.96540  Biso   1.000  H
  C198     1.0000 0.99040  0.93320  0.93990  Biso   1.000  C
  H132     1.0000 0.00430  0.92040  0.86670  Biso   1.000  H
  I44      1.0000 0.95390  0.05450  0.60670  Biso   1.000  I
  I45      1.0000 0.81201  0.56920  0.39553  Biso   1.000  I
  I46      1.0000 0.82776  0.50226  0.83970  Biso   1.000  I
  Zn12     1.0000 0.82138  0.50411  0.53510  Biso   1.000  Zn
  I47      1.0000 0.96233  0.54279  0.05260  Biso   1.000  I
  N67      1.0000 0.85990  0.47660  0.40730  Biso   1.000  N
  N68      1.0000 0.03390  0.28360  0.21010  Biso   1.000  N
  C199     1.0000 0.89420  0.42100  0.35080  Biso   1.000  C
  H133     1.0000 0.90230  0.39690  0.38300  Biso   1.000  H
  C200     1.0000 0.87040  0.49220  0.26540  Biso   1.000  C
  H134     1.0000 0.86250  0.51660  0.23710  Biso   1.000  H
  C201     1.0000 0.87160  0.44130  0.44680  Biso   1.000  C
  H135     1.0000 0.86420  0.42990  0.54270  Biso   1.000  H
  N69      1.0000 0.94680  0.38820  0.15520  Biso   1.000  N
  N70      1.0000 0.93260  0.43400  0.94960  Biso   1.000  N
  C202     1.0000 0.92930  0.41880  0.09500  Biso   1.000  C
  C203     1.0000 0.99130  0.34160  0.10710  Biso   1.000  C
  C204     1.0000 0.03170  0.29220  0.05510  Biso   1.000  C
  H136     1.0000 0.04460  0.27820  0.98180  Biso   1.000  H
  C205     1.0000 0.99220  0.33170  0.26870  Biso   1.000  C
  H137     1.0000 0.97830  0.34390  0.34360  Biso   1.000  H
  N71      1.0000 0.97690  0.46730  0.39760  Biso   1.000  N
  C206     1.0000 0.89200  0.47390  0.16150  Biso   1.000  C
  H138     1.0000 0.89820  0.48540  0.06420  Biso   1.000  H
  C207     1.0000 0.01450  0.30300  0.31550  Biso   1.000  C
  H139     1.0000 0.01600  0.29690  0.42490  Biso   1.000  H
  C208     1.0000 0.90460  0.43750  0.20500  Biso   1.000  C
  N72      1.0000 0.97540  0.38780  0.90220  Biso   1.000  N
  C209     1.0000 0.95610  0.41770  0.85850  Biso   1.000  C
  C210     1.0000 0.01050  0.32180  0.99540  Biso   1.000  C
  H140     1.0000 0.00970  0.32780  0.88570  Biso   1.000  H
  C211     1.0000 0.94750  0.46900  0.64800  Biso   1.000  C
  H141     1.0000 0.93230  0.48180  0.71500  Biso   1.000  H
  C212     1.0000 0.96950  0.37410  0.04860  Biso   1.000  C
  C213     1.0000 0.96240  0.43440  0.69850  Biso   1.000  C
  C214     1.0000 0.98430  0.41660  0.58880  Biso   1.000  C
  H142     1.0000 0.99480  0.39340  0.61640  Biso   1.000  H
  C215     1.0000 0.95540  0.48390  0.49770  Biso   1.000  C
  H143     1.0000 0.94500  0.50680  0.46540  Biso   1.000  H
  C216     1.0000 0.99040  0.43320  0.43990  Biso   1.000  C
  H144     1.0000 0.00430  0.42040  0.36670  Biso   1.000  H
  I48      1.0000 0.95390  0.55450  0.10670  Biso   1.000  I
  I49      1.0000 0.18799  0.43080  0.39553  Biso   1.000  I
  I50      1.0000 0.17224  0.49774  0.83970  Biso   1.000  I
  Zn13     1.0000 0.17862  0.49589  0.53510  Biso   1.000  Zn
  I51      1.0000 0.03767  0.45721  0.05260  Biso   1.000  I
  N73      1.0000 0.14010  0.52340  0.40730  Biso   1.000  N
  N74      1.0000 0.96610  0.71640  0.21010  Biso   1.000  N
  C217     1.0000 0.10580  0.57900  0.35080  Biso   1.000  C
  H145     1.0000 0.09770  0.60310  0.38300  Biso   1.000  H
  C218     1.0000 0.12960  0.50780  0.26540  Biso   1.000  C
  H146     1.0000 0.13750  0.48340  0.23710  Biso   1.000  H
  C219     1.0000 0.12840  0.55870  0.44680  Biso   1.000  C
  H147     1.0000 0.13580  0.57010  0.54270  Biso   1.000  H
  N75      1.0000 0.05320  0.61180  0.15520  Biso   1.000  N
  N76      1.0000 0.06740  0.56600  0.94960  Biso   1.000  N
  C220     1.0000 0.07070  0.58120  0.09500  Biso   1.000  C
  C221     1.0000 0.00870  0.65840  0.10710  Biso   1.000  C
  C222     1.0000 0.96830  0.70780  0.05510  Biso   1.000  C
  H148     1.0000 0.95540  0.72180  0.98180  Biso   1.000  H
  C223     1.0000 0.00780  0.66830  0.26870  Biso   1.000  C
  H149     1.0000 0.02170  0.65610  0.34360  Biso   1.000  H
  N77      1.0000 0.02310  0.53270  0.39760  Biso   1.000  N
  C224     1.0000 0.10800  0.52610  0.16150  Biso   1.000  C
  H150     1.0000 0.10180  0.51460  0.06420  Biso   1.000  H
  C225     1.0000 0.98550  0.69700  0.31550  Biso   1.000  C
  H151     1.0000 0.98400  0.70310  0.42490  Biso   1.000  H
  C226     1.0000 0.09540  0.56250  0.20500  Biso   1.000  C
  N78      1.0000 0.02460  0.61220  0.90220  Biso   1.000  N
  C227     1.0000 0.04390  0.58230  0.85850  Biso   1.000  C
  C228     1.0000 0.98950  0.67820  0.99540  Biso   1.000  C
  H152     1.0000 0.99030  0.67220  0.88570  Biso   1.000  H
  C229     1.0000 0.05250  0.53100  0.64800  Biso   1.000  C
  H153     1.0000 0.06770  0.51820  0.71500  Biso   1.000  H
  C230     1.0000 0.03050  0.62590  0.04860  Biso   1.000  C
  C231     1.0000 0.03760  0.56560  0.69850  Biso   1.000  C
  C232     1.0000 0.01570  0.58340  0.58880  Biso   1.000  C
  H154     1.0000 0.00520  0.60660  0.61640  Biso   1.000  H
  C233     1.0000 0.04460  0.51610  0.49770  Biso   1.000  C
  H155     1.0000 0.05500  0.49320  0.46540  Biso   1.000  H
  C234     1.0000 0.00960  0.56680  0.43990  Biso   1.000  C
  H156     1.0000 0.99570  0.57960  0.36670  Biso   1.000  H
  I52      1.0000 0.04610  0.44550  0.10670  Biso   1.000  I
  I53      1.0000 0.18799  0.93080  0.89553  Biso   1.000  I
  I54      1.0000 0.17224  0.99774  0.33970  Biso   1.000  I
  Zn14     1.0000 0.17862  0.99589  0.03510  Biso   1.000  Zn
  I55      1.0000 0.03767  0.95721  0.55260  Biso   1.000  I
  N79      1.0000 0.14010  0.02340  0.90730  Biso   1.000  N
  N80      1.0000 0.96610  0.21640  0.71010  Biso   1.000  N
  C235     1.0000 0.10580  0.07900  0.85080  Biso   1.000  C
  H157     1.0000 0.09770  0.10310  0.88300  Biso   1.000  H
  C236     1.0000 0.12960  0.00780  0.76540  Biso   1.000  C
  H158     1.0000 0.13750  0.98340  0.73710  Biso   1.000  H
  C237     1.0000 0.12840  0.05870  0.94680  Biso   1.000  C
  H159     1.0000 0.13580  0.07010  0.04270  Biso   1.000  H
  N81      1.0000 0.05320  0.11180  0.65520  Biso   1.000  N
  N82      1.0000 0.06740  0.06600  0.44960  Biso   1.000  N
  C238     1.0000 0.07070  0.08120  0.59500  Biso   1.000  C
  C239     1.0000 0.00870  0.15840  0.60710  Biso   1.000  C
  C240     1.0000 0.96830  0.20780  0.55510  Biso   1.000  C
  H160     1.0000 0.95540  0.22180  0.48180  Biso   1.000  H
  C241     1.0000 0.00780  0.16830  0.76870  Biso   1.000  C
  H161     1.0000 0.02170  0.15610  0.84360  Biso   1.000  H
  N83      1.0000 0.02310  0.03270  0.89760  Biso   1.000  N
  C242     1.0000 0.10800  0.02610  0.66150  Biso   1.000  C
  H162     1.0000 0.10180  0.01460  0.56420  Biso   1.000  H
  C243     1.0000 0.98550  0.19700  0.81550  Biso   1.000  C
  H163     1.0000 0.98400  0.20310  0.92490  Biso   1.000  H
  C244     1.0000 0.09540  0.06250  0.70500  Biso   1.000  C
  N84      1.0000 0.02460  0.11220  0.40220  Biso   1.000  N
  C245     1.0000 0.04390  0.08230  0.35850  Biso   1.000  C
  C246     1.0000 0.98950  0.17820  0.49540  Biso   1.000  C
  H164     1.0000 0.99030  0.17220  0.38570  Biso   1.000  H
  C247     1.0000 0.05250  0.03100  0.14800  Biso   1.000  C
  H165     1.0000 0.06770  0.01820  0.21500  Biso   1.000  H
  C248     1.0000 0.03050  0.12590  0.54860  Biso   1.000  C
  C249     1.0000 0.03760  0.06560  0.19850  Biso   1.000  C
  C250     1.0000 0.01570  0.08340  0.08880  Biso   1.000  C
  H166     1.0000 0.00520  0.10660  0.11640  Biso   1.000  H
  C251     1.0000 0.04460  0.01610  0.99770  Biso   1.000  C
  H167     1.0000 0.05500  0.99320  0.96540  Biso   1.000  H
  C252     1.0000 0.00960  0.06680  0.93990  Biso   1.000  C
  H168     1.0000 0.99570  0.07960  0.86670  Biso   1.000  H
  I56      1.0000 0.04610  0.94550  0.60670  Biso   1.000  I
  I57      1.0000 0.68799  0.43080  0.89553  Biso   1.000  I
  I58      1.0000 0.67224  0.49774  0.33970  Biso   1.000  I
  Zn15     1.0000 0.67862  0.49589  0.03510  Biso   1.000  Zn
  I59      1.0000 0.53767  0.45721  0.55260  Biso   1.000  I
  N85      1.0000 0.64010  0.52340  0.90730  Biso   1.000  N
  N86      1.0000 0.46610  0.71640  0.71010  Biso   1.000  N
  C253     1.0000 0.60580  0.57900  0.85080  Biso   1.000  C
  H169     1.0000 0.59770  0.60310  0.88300  Biso   1.000  H
  C254     1.0000 0.62960  0.50780  0.76540  Biso   1.000  C
  H170     1.0000 0.63750  0.48340  0.73710  Biso   1.000  H
  C255     1.0000 0.62840  0.55870  0.94680  Biso   1.000  C
  H171     1.0000 0.63580  0.57010  0.04270  Biso   1.000  H
  N87      1.0000 0.55320  0.61180  0.65520  Biso   1.000  N
  N88      1.0000 0.56740  0.56600  0.44960  Biso   1.000  N
  C256     1.0000 0.57070  0.58120  0.59500  Biso   1.000  C
  C257     1.0000 0.50870  0.65840  0.60710  Biso   1.000  C
  C258     1.0000 0.46830  0.70780  0.55510  Biso   1.000  C
  H172     1.0000 0.45540  0.72180  0.48180  Biso   1.000  H
  C259     1.0000 0.50780  0.66830  0.76870  Biso   1.000  C
  H173     1.0000 0.52170  0.65610  0.84360  Biso   1.000  H
  N89      1.0000 0.52310  0.53270  0.89760  Biso   1.000  N
  C260     1.0000 0.60800  0.52610  0.66150  Biso   1.000  C
  H174     1.0000 0.60180  0.51460  0.56420  Biso   1.000  H
  C261     1.0000 0.48550  0.69700  0.81550  Biso   1.000  C
  H175     1.0000 0.48400  0.70310  0.92490  Biso   1.000  H
  C262     1.0000 0.59540  0.56250  0.70500  Biso   1.000  C
  N90      1.0000 0.52460  0.61220  0.40220  Biso   1.000  N
  C263     1.0000 0.54390  0.58230  0.35850  Biso   1.000  C
  C264     1.0000 0.48950  0.67820  0.49540  Biso   1.000  C
  H176     1.0000 0.49030  0.67220  0.38570  Biso   1.000  H
  C265     1.0000 0.55250  0.53100  0.14800  Biso   1.000  C
  H177     1.0000 0.56770  0.51820  0.21500  Biso   1.000  H
  C266     1.0000 0.53050  0.62590  0.54860  Biso   1.000  C
  C267     1.0000 0.53760  0.56560  0.19850  Biso   1.000  C
  C268     1.0000 0.51570  0.58340  0.08880  Biso   1.000  C
  H178     1.0000 0.50520  0.60660  0.11640  Biso   1.000  H
  C269     1.0000 0.54460  0.51610  0.99770  Biso   1.000  C
  H179     1.0000 0.55500  0.49320  0.96540  Biso   1.000  H
  C270     1.0000 0.50960  0.56680  0.93990  Biso   1.000  C
  H180     1.0000 0.49570  0.57960  0.86670  Biso   1.000  H
  I60      1.0000 0.54610  0.44550  0.60670  Biso   1.000  I
  I61      1.0000 0.68799  0.93080  0.39553  Biso   1.000  I
  I62      1.0000 0.67224  0.99774  0.83970  Biso   1.000  I
  Zn16     1.0000 0.67862  0.99589  0.53510  Biso   1.000  Zn
  I63      1.0000 0.53767  0.95721  0.05260  Biso   1.000  I
  N91      1.0000 0.64010  0.02340  0.40730  Biso   1.000  N
  N92      1.0000 0.46610  0.21640  0.21010  Biso   1.000  N
  C271     1.0000 0.60580  0.07900  0.35080  Biso   1.000  C
  H181     1.0000 0.59770  0.10310  0.38300  Biso   1.000  H
  C272     1.0000 0.62960  0.00780  0.26540  Biso   1.000  C
  H182     1.0000 0.63750  0.98340  0.23710  Biso   1.000  H
  C273     1.0000 0.62840  0.05870  0.44680  Biso   1.000  C
  H183     1.0000 0.63580  0.07010  0.54270  Biso   1.000  H
  N93      1.0000 0.55320  0.11180  0.15520  Biso   1.000  N
  N94      1.0000 0.56740  0.06600  0.94960  Biso   1.000  N
  C274     1.0000 0.57070  0.08120  0.09500  Biso   1.000  C
  C275     1.0000 0.50870  0.15840  0.10710  Biso   1.000  C
  C276     1.0000 0.46830  0.20780  0.05510  Biso   1.000  C
  H184     1.0000 0.45540  0.22180  0.98180  Biso   1.000  H
  C277     1.0000 0.50780  0.16830  0.26870  Biso   1.000  C
  H185     1.0000 0.52170  0.15610  0.34360  Biso   1.000  H
  N95      1.0000 0.52310  0.03270  0.39760  Biso   1.000  N
  C278     1.0000 0.60800  0.02610  0.16150  Biso   1.000  C
  H186     1.0000 0.60180  0.01460  0.06420  Biso   1.000  H
  C279     1.0000 0.48550  0.19700  0.31550  Biso   1.000  C
  H187     1.0000 0.48400  0.20310  0.42490  Biso   1.000  H
  C280     1.0000 0.59540  0.06250  0.20500  Biso   1.000  C
  N96      1.0000 0.52460  0.11220  0.90220  Biso   1.000  N
  C281     1.0000 0.54390  0.08230  0.85850  Biso   1.000  C
  C282     1.0000 0.48950  0.17820  0.99540  Biso   1.000  C
  H188     1.0000 0.49030  0.17220  0.88570  Biso   1.000  H
  C283     1.0000 0.55250  0.03100  0.64800  Biso   1.000  C
  H189     1.0000 0.56770  0.01820  0.71500  Biso   1.000  H
  C284     1.0000 0.53050  0.12590  0.04860  Biso   1.000  C
  C285     1.0000 0.53760  0.06560  0.69850  Biso   1.000  C
  C286     1.0000 0.51570  0.08340  0.58880  Biso   1.000  C
  H190     1.0000 0.50520  0.10660  0.61640  Biso   1.000  H
  C287     1.0000 0.54460  0.01610  0.49770  Biso   1.000  C
  H191     1.0000 0.55500  0.99320  0.46540  Biso   1.000  H
  C288     1.0000 0.50960  0.06680  0.43990  Biso   1.000  C
  H192     1.0000 0.49570  0.07960  0.36670  Biso   1.000  H
  I64      1.0000 0.54610  0.94550  0.10670  Biso   1.000  I
  Zn17     1.0000 0.25000  0.25000  0.96310  Biso   1.000  Zn
  Zn18     1.0000 0.25000  0.75000  0.46310  Biso   1.000  Zn
  Zn19     1.0000 0.75000  0.75000  0.96310  Biso   1.000  Zn
  Zn20     1.0000 0.75000  0.25000  0.46310  Biso   1.000  Zn
  Zn21     1.0000 0.50000  0.00000  0.21310  Biso   1.000  Zn
  Zn22     1.0000 0.50000  0.50000  0.71310  Biso   1.000  Zn
  Zn23     1.0000 0.00000  0.50000  0.21310  Biso   1.000  Zn
  Zn24     1.0000 0.00000  0.00000  0.71310  Biso   1.000  Zn
