data_image0
_cell_length_a       35.159
_cell_length_b       14.6274
_cell_length_c       31.1596
_cell_angle_alpha    90
_cell_angle_beta     101.486
_cell_angle_gamma    90

_symmetry_space_group_name_H-M    "P 1"
_symmetry_int_tables_number       1

loop_
  _symmetry_equiv_pos_as_xyz
  'x, y, z'

loop_
  _atom_site_label
  _atom_site_occupancy
  _atom_site_fract_x
  _atom_site_fract_y
  _atom_site_fract_z
  _atom_site_thermal_displace_type
  _atom_site_B_iso_or_equiv
  _atom_site_type_symbol
  I1       1.0000 0.26808  0.24564  0.20883  Biso   1.000  I
  I2       1.0000 0.37941  0.25813  0.44031  Biso   1.000  I
  I3       1.0000 0.37450  0.16405  0.30409  Biso   1.000  I
  I4       1.0000 0.60846  0.24157  0.60254  Biso   1.000  I
  I5       1.0000 0.47597  0.33836  0.36850  Biso   1.000  I
  I6       1.0000 0.64848  0.09748  0.49184  Biso   1.000  I
  Zn1      1.0000 0.41674  0.37164  0.40347  Biso   1.000  Zn
  Zn2      1.0000 0.62586  0.09916  0.56384  Biso   1.000  Zn
  Zn3      1.0000 0.32974  0.15187  0.22913  Biso   1.000  Zn
  N1       1.0000 0.57860  0.01240  0.55850  Biso   1.000  N
  N2       1.0000 0.37850  0.44130  0.35440  Biso   1.000  N
  N3       1.0000 0.16770  0.46900  0.10840  Biso   1.000  N
  N4       1.0000 0.31810  0.01330  0.22030  Biso   1.000  N
  N5       1.0000 0.36190  0.82830  0.68150  Biso   1.000  N
  N6       1.0000 0.27920  0.55220  0.22640  Biso   1.000  N
  N7       1.0000 0.26660  0.69260  0.18770  Biso   1.000  N
  N8       1.0000 0.42920  0.48100  0.44680  Biso   1.000  N
  N9       1.0000 0.31970  0.67920  0.24740  Biso   1.000  N
  N10      1.0000 0.47500  0.77230  0.52550  Biso   1.000  N
  N11      1.0000 0.46000  0.85350  0.58590  Biso   1.000  N
  C1       1.0000 0.18420  0.43120  0.14700  Biso   1.000  C
  H1       1.0000 0.17510  0.37360  0.15470  Biso   1.000  H
  N12      1.0000 0.42440  0.72130  0.55930  Biso   1.000  N
  C2       1.0000 0.34660  0.40480  0.33140  Biso   1.000  C
  H2       1.0000 0.33930  0.34510  0.33860  Biso   1.000  H
  C3       1.0000 0.51470  0.90020  0.55550  Biso   1.000  C
  C4       1.0000 0.33340  0.53870  0.28730  Biso   1.000  C
  C5       1.0000 0.48100  0.83830  0.55550  Biso   1.000  C
  C6       1.0000 0.22660  0.55860  0.16470  Biso   1.000  C
  C7       1.0000 0.46160  0.53110  0.45090  Biso   1.000  C
  H3       1.0000 0.48070  0.51310  0.43480  Biso   1.000  H
  C8       1.0000 0.21400  0.47410  0.17560  Biso   1.000  C
  H4       1.0000 0.22560  0.44560  0.20240  Biso   1.000  H
  C9       1.0000 0.43110  0.79340  0.58560  Biso   1.000  C
  C10      1.0000 0.25920  0.60390  0.19440  Biso   1.000  C
  C11      1.0000 0.17990  0.55030  0.09830  Biso   1.000  C
  H5       1.0000 0.16810  0.57660  0.07100  Biso   1.000  H
  C12      1.0000 0.40730  0.80570  0.61880  Biso   1.000  C
  C13      1.0000 0.44100  0.63290  0.50090  Biso   1.000  C
  C14      1.0000 0.20880  0.59880  0.12510  Biso   1.000  C
  H6       1.0000 0.21640  0.65760  0.11690  Biso   1.000  H
  C15      1.0000 0.53210  0.90870  0.52030  Biso   1.000  C
  H7       1.0000 0.52220  0.87570  0.49420  Biso   1.000  H
  C16      1.0000 0.32340  0.45110  0.29710  Biso   1.000  C
  H8       1.0000 0.30080  0.42290  0.28060  Biso   1.000  H
  C17      1.0000 0.30980  0.59340  0.25160  Biso   1.000  C
  C18      1.0000 0.30480  0.82600  0.21520  Biso   1.000  C
  C19      1.0000 0.35040  0.77610  0.64640  Biso   1.000  C
  H9       1.0000 0.32590  0.74700  0.64300  Biso   1.000  H
  C20      1.0000 0.36710  0.57640  0.31180  Biso   1.000  C
  H10      1.0000 0.37500  0.63660  0.30610  Biso   1.000  H
  C21      1.0000 0.34330  0.95440  0.24350  Biso   1.000  C
  H11      1.0000 0.36590  0.97800  0.26210  Biso   1.000  H
  C22      1.0000 0.38860  0.52430  0.34430  Biso   1.000  C
  H12      1.0000 0.41200  0.54930  0.36050  Biso   1.000  H
  C23      1.0000 0.56360  0.96470  0.52240  Biso   1.000  C
  H13      1.0000 0.57530  0.96980  0.49750  Biso   1.000  H
  C24      1.0000 0.46870  0.60700  0.47710  Biso   1.000  C
  H14      1.0000 0.49200  0.64110  0.47900  Biso   1.000  H
  C25      1.0000 0.40730  0.58140  0.49670  Biso   1.000  C
  H15      1.0000 0.38780  0.59800  0.51240  Biso   1.000  H
  C26      1.0000 0.28620  0.97960  0.19380  Biso   1.000  C
  H16      1.0000 0.26830  0.02070  0.17690  Biso   1.000  H
  C27      1.0000 0.29660  0.72620  0.21600  Biso   1.000  C
  C28      1.0000 0.41960  0.85960  0.65510  Biso   1.000  C
  H17      1.0000 0.44380  0.89060  0.65890  Biso   1.000  H
  C29      1.0000 0.44680  0.71380  0.52970  Biso   1.000  C
  C30      1.0000 0.33790  0.86190  0.24170  Biso   1.000  C
  H18      1.0000 0.35660  0.82240  0.25840  Biso   1.000  H
  C31      1.0000 0.40230  0.50690  0.46980  Biso   1.000  C
  H19      1.0000 0.37920  0.47210  0.46720  Biso   1.000  H
  C32      1.0000 0.27890  0.88710  0.19050  Biso   1.000  C
  H20      1.0000 0.25630  0.86490  0.17140  Biso   1.000  H
  C33      1.0000 0.39670  0.86860  0.68570  Biso   1.000  C
  H21      1.0000 0.40590  0.90490  0.71090  Biso   1.000  H
  C34      1.0000 0.37180  0.76180  0.61490  Biso   1.000  C
  H22      1.0000 0.36250  0.72260  0.59080  Biso   1.000  H
  C35      1.0000 0.56220  0.00220  0.59310  Biso   1.000  C
  H23      1.0000 0.57300  0.03470  0.61900  Biso   1.000  H
  C36      1.0000 0.53070  0.94780  0.59360  Biso   1.000  C
  H24      1.0000 0.52000  0.94250  0.61920  Biso   1.000  H
  I7       1.0000 0.47360  0.34890  0.37960  Biso   1.000  I
  I8       1.0000 0.76808  0.74564  0.20883  Biso   1.000  I
  I9       1.0000 0.87941  0.75813  0.44031  Biso   1.000  I
  I10      1.0000 0.87450  0.66405  0.30409  Biso   1.000  I
  I11      1.0000 0.10846  0.74157  0.60254  Biso   1.000  I
  I12      1.0000 0.97597  0.83836  0.36850  Biso   1.000  I
  I13      1.0000 0.14848  0.59748  0.49184  Biso   1.000  I
  Zn4      1.0000 0.91674  0.87164  0.40347  Biso   1.000  Zn
  Zn5      1.0000 0.12586  0.59916  0.56384  Biso   1.000  Zn
  Zn6      1.0000 0.82974  0.65187  0.22913  Biso   1.000  Zn
  N13      1.0000 0.07860  0.51240  0.55850  Biso   1.000  N
  N14      1.0000 0.87850  0.94130  0.35440  Biso   1.000  N
  N15      1.0000 0.66770  0.96900  0.10840  Biso   1.000  N
  N16      1.0000 0.81810  0.51330  0.22030  Biso   1.000  N
  N17      1.0000 0.86190  0.32830  0.68150  Biso   1.000  N
  N18      1.0000 0.77920  0.05220  0.22640  Biso   1.000  N
  N19      1.0000 0.76660  0.19260  0.18770  Biso   1.000  N
  N20      1.0000 0.92920  0.98100  0.44680  Biso   1.000  N
  N21      1.0000 0.81970  0.17920  0.24740  Biso   1.000  N
  N22      1.0000 0.97500  0.27230  0.52550  Biso   1.000  N
  N23      1.0000 0.96000  0.35350  0.58590  Biso   1.000  N
  C37      1.0000 0.68420  0.93120  0.14700  Biso   1.000  C
  H25      1.0000 0.67510  0.87360  0.15470  Biso   1.000  H
  N24      1.0000 0.92440  0.22130  0.55930  Biso   1.000  N
  C38      1.0000 0.84660  0.90480  0.33140  Biso   1.000  C
  H26      1.0000 0.83930  0.84510  0.33860  Biso   1.000  H
  C39      1.0000 0.01470  0.40020  0.55550  Biso   1.000  C
  C40      1.0000 0.83340  0.03870  0.28730  Biso   1.000  C
  C41      1.0000 0.98100  0.33830  0.55550  Biso   1.000  C
  C42      1.0000 0.72660  0.05860  0.16470  Biso   1.000  C
  C43      1.0000 0.96160  0.03110  0.45090  Biso   1.000  C
  H27      1.0000 0.98070  0.01310  0.43480  Biso   1.000  H
  C44      1.0000 0.71400  0.97410  0.17560  Biso   1.000  C
  H28      1.0000 0.72560  0.94560  0.20240  Biso   1.000  H
  C45      1.0000 0.93110  0.29340  0.58560  Biso   1.000  C
  C46      1.0000 0.75920  0.10390  0.19440  Biso   1.000  C
  C47      1.0000 0.67990  0.05030  0.09830  Biso   1.000  C
  H29      1.0000 0.66810  0.07660  0.07100  Biso   1.000  H
  C48      1.0000 0.90730  0.30570  0.61880  Biso   1.000  C
  C49      1.0000 0.94100  0.13290  0.50090  Biso   1.000  C
  C50      1.0000 0.70880  0.09880  0.12510  Biso   1.000  C
  H30      1.0000 0.71640  0.15760  0.11690  Biso   1.000  H
  C51      1.0000 0.03210  0.40870  0.52030  Biso   1.000  C
  H31      1.0000 0.02220  0.37570  0.49420  Biso   1.000  H
  C52      1.0000 0.82340  0.95110  0.29710  Biso   1.000  C
  H32      1.0000 0.80080  0.92290  0.28060  Biso   1.000  H
  C53      1.0000 0.80980  0.09340  0.25160  Biso   1.000  C
  C54      1.0000 0.80480  0.32600  0.21520  Biso   1.000  C
  C55      1.0000 0.85040  0.27610  0.64640  Biso   1.000  C
  H33      1.0000 0.82590  0.24700  0.64300  Biso   1.000  H
  C56      1.0000 0.86710  0.07640  0.31180  Biso   1.000  C
  H34      1.0000 0.87500  0.13660  0.30610  Biso   1.000  H
  C57      1.0000 0.84330  0.45440  0.24350  Biso   1.000  C
  H35      1.0000 0.86590  0.47800  0.26210  Biso   1.000  H
  C58      1.0000 0.88860  0.02430  0.34430  Biso   1.000  C
  H36      1.0000 0.91200  0.04930  0.36050  Biso   1.000  H
  C59      1.0000 0.06360  0.46470  0.52240  Biso   1.000  C
  H37      1.0000 0.07530  0.46980  0.49750  Biso   1.000  H
  C60      1.0000 0.96870  0.10700  0.47710  Biso   1.000  C
  H38      1.0000 0.99200  0.14110  0.47900  Biso   1.000  H
  C61      1.0000 0.90730  0.08140  0.49670  Biso   1.000  C
  H39      1.0000 0.88780  0.09800  0.51240  Biso   1.000  H
  C62      1.0000 0.78620  0.47960  0.19380  Biso   1.000  C
  H40      1.0000 0.76830  0.52070  0.17690  Biso   1.000  H
  C63      1.0000 0.79660  0.22620  0.21600  Biso   1.000  C
  C64      1.0000 0.91960  0.35960  0.65510  Biso   1.000  C
  H41      1.0000 0.94380  0.39060  0.65890  Biso   1.000  H
  C65      1.0000 0.94680  0.21380  0.52970  Biso   1.000  C
  C66      1.0000 0.83790  0.36190  0.24170  Biso   1.000  C
  H42      1.0000 0.85660  0.32240  0.25840  Biso   1.000  H
  C67      1.0000 0.90230  0.00690  0.46980  Biso   1.000  C
  H43      1.0000 0.87920  0.97210  0.46720  Biso   1.000  H
  C68      1.0000 0.77890  0.38710  0.19050  Biso   1.000  C
  H44      1.0000 0.75630  0.36490  0.17140  Biso   1.000  H
  C69      1.0000 0.89670  0.36860  0.68570  Biso   1.000  C
  H45      1.0000 0.90590  0.40490  0.71090  Biso   1.000  H
  C70      1.0000 0.87180  0.26180  0.61490  Biso   1.000  C
  H46      1.0000 0.86250  0.22260  0.59080  Biso   1.000  H
  C71      1.0000 0.06220  0.50220  0.59310  Biso   1.000  C
  H47      1.0000 0.07300  0.53470  0.61900  Biso   1.000  H
  C72      1.0000 0.03070  0.44780  0.59360  Biso   1.000  C
  H48      1.0000 0.02000  0.44250  0.61920  Biso   1.000  H
  I14      1.0000 0.97360  0.84890  0.37960  Biso   1.000  I
  I15      1.0000 0.26808  0.75436  0.70883  Biso   1.000  I
  I16      1.0000 0.37941  0.74187  0.94031  Biso   1.000  I
  I17      1.0000 0.37450  0.83595  0.80409  Biso   1.000  I
  I18      1.0000 0.60846  0.75843  0.10254  Biso   1.000  I
  I19      1.0000 0.47597  0.66164  0.86850  Biso   1.000  I
  I20      1.0000 0.64848  0.90252  0.99184  Biso   1.000  I
  Zn7      1.0000 0.41674  0.62836  0.90347  Biso   1.000  Zn
  Zn8      1.0000 0.62586  0.90084  0.06384  Biso   1.000  Zn
  Zn9      1.0000 0.32974  0.84813  0.72913  Biso   1.000  Zn
  N25      1.0000 0.57860  0.98760  0.05850  Biso   1.000  N
  N26      1.0000 0.37850  0.55870  0.85440  Biso   1.000  N
  N27      1.0000 0.16770  0.53100  0.60840  Biso   1.000  N
  N28      1.0000 0.31810  0.98670  0.72030  Biso   1.000  N
  N29      1.0000 0.36190  0.17170  0.18150  Biso   1.000  N
  N30      1.0000 0.27920  0.44780  0.72640  Biso   1.000  N
  N31      1.0000 0.26660  0.30740  0.68770  Biso   1.000  N
  N32      1.0000 0.42920  0.51900  0.94680  Biso   1.000  N
  N33      1.0000 0.31970  0.32080  0.74740  Biso   1.000  N
  N34      1.0000 0.47500  0.22770  0.02550  Biso   1.000  N
  N35      1.0000 0.46000  0.14650  0.08590  Biso   1.000  N
  C73      1.0000 0.18420  0.56880  0.64700  Biso   1.000  C
  H49      1.0000 0.17510  0.62640  0.65470  Biso   1.000  H
  N36      1.0000 0.42440  0.27870  0.05930  Biso   1.000  N
  C74      1.0000 0.34660  0.59520  0.83140  Biso   1.000  C
  H50      1.0000 0.33930  0.65490  0.83860  Biso   1.000  H
  C75      1.0000 0.51470  0.09980  0.05550  Biso   1.000  C
  C76      1.0000 0.33340  0.46130  0.78730  Biso   1.000  C
  C77      1.0000 0.48100  0.16170  0.05550  Biso   1.000  C
  C78      1.0000 0.22660  0.44140  0.66470  Biso   1.000  C
  C79      1.0000 0.46160  0.46890  0.95090  Biso   1.000  C
  H51      1.0000 0.48070  0.48690  0.93480  Biso   1.000  H
  C80      1.0000 0.21400  0.52590  0.67560  Biso   1.000  C
  H52      1.0000 0.22560  0.55440  0.70240  Biso   1.000  H
  C81      1.0000 0.43110  0.20660  0.08560  Biso   1.000  C
  C82      1.0000 0.25920  0.39610  0.69440  Biso   1.000  C
  C83      1.0000 0.17990  0.44970  0.59830  Biso   1.000  C
  H53      1.0000 0.16810  0.42340  0.57100  Biso   1.000  H
  C84      1.0000 0.40730  0.19430  0.11880  Biso   1.000  C
  C85      1.0000 0.44100  0.36710  0.00090  Biso   1.000  C
  C86      1.0000 0.20880  0.40120  0.62510  Biso   1.000  C
  H54      1.0000 0.21640  0.34240  0.61690  Biso   1.000  H
  C87      1.0000 0.53210  0.09130  0.02030  Biso   1.000  C
  H55      1.0000 0.52220  0.12430  0.99420  Biso   1.000  H
  C88      1.0000 0.32340  0.54890  0.79710  Biso   1.000  C
  H56      1.0000 0.30080  0.57710  0.78060  Biso   1.000  H
  C89      1.0000 0.30980  0.40660  0.75160  Biso   1.000  C
  C90      1.0000 0.30480  0.17400  0.71520  Biso   1.000  C
  C91      1.0000 0.35040  0.22390  0.14640  Biso   1.000  C
  H57      1.0000 0.32590  0.25300  0.14300  Biso   1.000  H
  C92      1.0000 0.36710  0.42360  0.81180  Biso   1.000  C
  H58      1.0000 0.37500  0.36340  0.80610  Biso   1.000  H
  C93      1.0000 0.34330  0.04560  0.74350  Biso   1.000  C
  H59      1.0000 0.36590  0.02200  0.76210  Biso   1.000  H
  C94      1.0000 0.38860  0.47570  0.84430  Biso   1.000  C
  H60      1.0000 0.41200  0.45070  0.86050  Biso   1.000  H
  C95      1.0000 0.56360  0.03530  0.02240  Biso   1.000  C
  H61      1.0000 0.57530  0.03020  0.99750  Biso   1.000  H
  C96      1.0000 0.46870  0.39300  0.97710  Biso   1.000  C
  H62      1.0000 0.49200  0.35890  0.97900  Biso   1.000  H
  C97      1.0000 0.40730  0.41860  0.99670  Biso   1.000  C
  H63      1.0000 0.38780  0.40200  0.01240  Biso   1.000  H
  C98      1.0000 0.28620  0.02040  0.69380  Biso   1.000  C
  H64      1.0000 0.26830  0.97930  0.67690  Biso   1.000  H
  C99      1.0000 0.29660  0.27380  0.71600  Biso   1.000  C
  C100     1.0000 0.41960  0.14040  0.15510  Biso   1.000  C
  H65      1.0000 0.44380  0.10940  0.15890  Biso   1.000  H
  C101     1.0000 0.44680  0.28620  0.02970  Biso   1.000  C
  C102     1.0000 0.33790  0.13810  0.74170  Biso   1.000  C
  H66      1.0000 0.35660  0.17760  0.75840  Biso   1.000  H
  C103     1.0000 0.40230  0.49310  0.96980  Biso   1.000  C
  H67      1.0000 0.37920  0.52790  0.96720  Biso   1.000  H
  C104     1.0000 0.27890  0.11290  0.69050  Biso   1.000  C
  H68      1.0000 0.25630  0.13510  0.67140  Biso   1.000  H
  C105     1.0000 0.39670  0.13140  0.18570  Biso   1.000  C
  H69      1.0000 0.40590  0.09510  0.21090  Biso   1.000  H
  C106     1.0000 0.37180  0.23820  0.11490  Biso   1.000  C
  H70      1.0000 0.36250  0.27740  0.09080  Biso   1.000  H
  C107     1.0000 0.56220  0.99780  0.09310  Biso   1.000  C
  H71      1.0000 0.57300  0.96530  0.11900  Biso   1.000  H
  C108     1.0000 0.53070  0.05220  0.09360  Biso   1.000  C
  H72      1.0000 0.52000  0.05750  0.11920  Biso   1.000  H
  I21      1.0000 0.47360  0.65110  0.87960  Biso   1.000  I
  I22      1.0000 0.76808  0.25436  0.70883  Biso   1.000  I
  I23      1.0000 0.87941  0.24187  0.94031  Biso   1.000  I
  I24      1.0000 0.87450  0.33595  0.80409  Biso   1.000  I
  I25      1.0000 0.10846  0.25843  0.10254  Biso   1.000  I
  I26      1.0000 0.97597  0.16164  0.86850  Biso   1.000  I
  I27      1.0000 0.14848  0.40252  0.99184  Biso   1.000  I
  Zn10     1.0000 0.91674  0.12836  0.90347  Biso   1.000  Zn
  Zn11     1.0000 0.12586  0.40084  0.06384  Biso   1.000  Zn
  Zn12     1.0000 0.82974  0.34813  0.72913  Biso   1.000  Zn
  N37      1.0000 0.07860  0.48760  0.05850  Biso   1.000  N
  N38      1.0000 0.87850  0.05870  0.85440  Biso   1.000  N
  N39      1.0000 0.66770  0.03100  0.60840  Biso   1.000  N
  N40      1.0000 0.81810  0.48670  0.72030  Biso   1.000  N
  N41      1.0000 0.86190  0.67170  0.18150  Biso   1.000  N
  N42      1.0000 0.77920  0.94780  0.72640  Biso   1.000  N
  N43      1.0000 0.76660  0.80740  0.68770  Biso   1.000  N
  N44      1.0000 0.92920  0.01900  0.94680  Biso   1.000  N
  N45      1.0000 0.81970  0.82080  0.74740  Biso   1.000  N
  N46      1.0000 0.97500  0.72770  0.02550  Biso   1.000  N
  N47      1.0000 0.96000  0.64650  0.08590  Biso   1.000  N
  C109     1.0000 0.68420  0.06880  0.64700  Biso   1.000  C
  H73      1.0000 0.67510  0.12640  0.65470  Biso   1.000  H
  N48      1.0000 0.92440  0.77870  0.05930  Biso   1.000  N
  C110     1.0000 0.84660  0.09520  0.83140  Biso   1.000  C
  H74      1.0000 0.83930  0.15490  0.83860  Biso   1.000  H
  C111     1.0000 0.01470  0.59980  0.05550  Biso   1.000  C
  C112     1.0000 0.83340  0.96130  0.78730  Biso   1.000  C
  C113     1.0000 0.98100  0.66170  0.05550  Biso   1.000  C
  C114     1.0000 0.72660  0.94140  0.66470  Biso   1.000  C
  C115     1.0000 0.96160  0.96890  0.95090  Biso   1.000  C
  H75      1.0000 0.98070  0.98690  0.93480  Biso   1.000  H
  C116     1.0000 0.71400  0.02590  0.67560  Biso   1.000  C
  H76      1.0000 0.72560  0.05440  0.70240  Biso   1.000  H
  C117     1.0000 0.93110  0.70660  0.08560  Biso   1.000  C
  C118     1.0000 0.75920  0.89610  0.69440  Biso   1.000  C
  C119     1.0000 0.67990  0.94970  0.59830  Biso   1.000  C
  H77      1.0000 0.66810  0.92340  0.57100  Biso   1.000  H
  C120     1.0000 0.90730  0.69430  0.11880  Biso   1.000  C
  C121     1.0000 0.94100  0.86710  0.00090  Biso   1.000  C
  C122     1.0000 0.70880  0.90120  0.62510  Biso   1.000  C
  H78      1.0000 0.71640  0.84240  0.61690  Biso   1.000  H
  C123     1.0000 0.03210  0.59130  0.02030  Biso   1.000  C
  H79      1.0000 0.02220  0.62430  0.99420  Biso   1.000  H
  C124     1.0000 0.82340  0.04890  0.79710  Biso   1.000  C
  H80      1.0000 0.80080  0.07710  0.78060  Biso   1.000  H
  C125     1.0000 0.80980  0.90660  0.75160  Biso   1.000  C
  C126     1.0000 0.80480  0.67400  0.71520  Biso   1.000  C
  C127     1.0000 0.85040  0.72390  0.14640  Biso   1.000  C
  H81      1.0000 0.82590  0.75300  0.14300  Biso   1.000  H
  C128     1.0000 0.86710  0.92360  0.81180  Biso   1.000  C
  H82      1.0000 0.87500  0.86340  0.80610  Biso   1.000  H
  C129     1.0000 0.84330  0.54560  0.74350  Biso   1.000  C
  H83      1.0000 0.86590  0.52200  0.76210  Biso   1.000  H
  C130     1.0000 0.88860  0.97570  0.84430  Biso   1.000  C
  H84      1.0000 0.91200  0.95070  0.86050  Biso   1.000  H
  C131     1.0000 0.06360  0.53530  0.02240  Biso   1.000  C
  H85      1.0000 0.07530  0.53020  0.99750  Biso   1.000  H
  C132     1.0000 0.96870  0.89300  0.97710  Biso   1.000  C
  H86      1.0000 0.99200  0.85890  0.97900  Biso   1.000  H
  C133     1.0000 0.90730  0.91860  0.99670  Biso   1.000  C
  H87      1.0000 0.88780  0.90200  0.01240  Biso   1.000  H
  C134     1.0000 0.78620  0.52040  0.69380  Biso   1.000  C
  H88      1.0000 0.76830  0.47930  0.67690  Biso   1.000  H
  C135     1.0000 0.79660  0.77380  0.71600  Biso   1.000  C
  C136     1.0000 0.91960  0.64040  0.15510  Biso   1.000  C
  H89      1.0000 0.94380  0.60940  0.15890  Biso   1.000  H
  C137     1.0000 0.94680  0.78620  0.02970  Biso   1.000  C
  C138     1.0000 0.83790  0.63810  0.74170  Biso   1.000  C
  H90      1.0000 0.85660  0.67760  0.75840  Biso   1.000  H
  C139     1.0000 0.90230  0.99310  0.96980  Biso   1.000  C
  H91      1.0000 0.87920  0.02790  0.96720  Biso   1.000  H
  C140     1.0000 0.77890  0.61290  0.69050  Biso   1.000  C
  H92      1.0000 0.75630  0.63510  0.67140  Biso   1.000  H
  C141     1.0000 0.89670  0.63140  0.18570  Biso   1.000  C
  H93      1.0000 0.90590  0.59510  0.21090  Biso   1.000  H
  C142     1.0000 0.87180  0.73820  0.11490  Biso   1.000  C
  H94      1.0000 0.86250  0.77740  0.09080  Biso   1.000  H
  C143     1.0000 0.06220  0.49780  0.09310  Biso   1.000  C
  H95      1.0000 0.07300  0.46530  0.11900  Biso   1.000  H
  C144     1.0000 0.03070  0.55220  0.09360  Biso   1.000  C
  H96      1.0000 0.02000  0.55750  0.11920  Biso   1.000  H
  I28      1.0000 0.97360  0.15110  0.87960  Biso   1.000  I
  I29      1.0000 0.73192  0.24564  0.29117  Biso   1.000  I
  I30      1.0000 0.62059  0.25813  0.05969  Biso   1.000  I
  I31      1.0000 0.62550  0.16405  0.19591  Biso   1.000  I
  I32      1.0000 0.39154  0.24157  0.89746  Biso   1.000  I
  I33      1.0000 0.52403  0.33836  0.13150  Biso   1.000  I
  I34      1.0000 0.35152  0.09748  0.00816  Biso   1.000  I
  Zn13     1.0000 0.58326  0.37164  0.09653  Biso   1.000  Zn
  Zn14     1.0000 0.37414  0.09916  0.93616  Biso   1.000  Zn
  Zn15     1.0000 0.67026  0.15187  0.27087  Biso   1.000  Zn
  N49      1.0000 0.42140  0.01240  0.94150  Biso   1.000  N
  N50      1.0000 0.62150  0.44130  0.14560  Biso   1.000  N
  N51      1.0000 0.83230  0.46900  0.39160  Biso   1.000  N
  N52      1.0000 0.68190  0.01330  0.27970  Biso   1.000  N
  N53      1.0000 0.63810  0.82830  0.81850  Biso   1.000  N
  N54      1.0000 0.72080  0.55220  0.27360  Biso   1.000  N
  N55      1.0000 0.73340  0.69260  0.31230  Biso   1.000  N
  N56      1.0000 0.57080  0.48100  0.05320  Biso   1.000  N
  N57      1.0000 0.68030  0.67920  0.25260  Biso   1.000  N
  N58      1.0000 0.52500  0.77230  0.97450  Biso   1.000  N
  N59      1.0000 0.54000  0.85350  0.91410  Biso   1.000  N
  C145     1.0000 0.81580  0.43120  0.35300  Biso   1.000  C
  H97      1.0000 0.82490  0.37360  0.34530  Biso   1.000  H
  N60      1.0000 0.57560  0.72130  0.94070  Biso   1.000  N
  C146     1.0000 0.65340  0.40480  0.16860  Biso   1.000  C
  H98      1.0000 0.66070  0.34510  0.16140  Biso   1.000  H
  C147     1.0000 0.48530  0.90020  0.94450  Biso   1.000  C
  C148     1.0000 0.66660  0.53870  0.21270  Biso   1.000  C
  C149     1.0000 0.51900  0.83830  0.94450  Biso   1.000  C
  C150     1.0000 0.77340  0.55860  0.33530  Biso   1.000  C
  C151     1.0000 0.53840  0.53110  0.04910  Biso   1.000  C
  H99      1.0000 0.51930  0.51310  0.06520  Biso   1.000  H
  C152     1.0000 0.78600  0.47410  0.32440  Biso   1.000  C
  H100     1.0000 0.77440  0.44560  0.29760  Biso   1.000  H
  C153     1.0000 0.56890  0.79340  0.91440  Biso   1.000  C
  C154     1.0000 0.74080  0.60390  0.30560  Biso   1.000  C
  C155     1.0000 0.82010  0.55030  0.40170  Biso   1.000  C
  H101     1.0000 0.83190  0.57660  0.42900  Biso   1.000  H
  C156     1.0000 0.59270  0.80570  0.88120  Biso   1.000  C
  C157     1.0000 0.55900  0.63290  0.99910  Biso   1.000  C
  C158     1.0000 0.79120  0.59880  0.37490  Biso   1.000  C
  H102     1.0000 0.78360  0.65760  0.38310  Biso   1.000  H
  C159     1.0000 0.46790  0.90870  0.97970  Biso   1.000  C
  H103     1.0000 0.47780  0.87570  0.00580  Biso   1.000  H
  C160     1.0000 0.67660  0.45110  0.20290  Biso   1.000  C
  H104     1.0000 0.69920  0.42290  0.21940  Biso   1.000  H
  C161     1.0000 0.69020  0.59340  0.24840  Biso   1.000  C
  C162     1.0000 0.69520  0.82600  0.28480  Biso   1.000  C
  C163     1.0000 0.64960  0.77610  0.85360  Biso   1.000  C
  H105     1.0000 0.67410  0.74700  0.85700  Biso   1.000  H
  C164     1.0000 0.63290  0.57640  0.18820  Biso   1.000  C
  H106     1.0000 0.62500  0.63660  0.19390  Biso   1.000  H
  C165     1.0000 0.65670  0.95440  0.25650  Biso   1.000  C
  H107     1.0000 0.63410  0.97800  0.23790  Biso   1.000  H
  C166     1.0000 0.61140  0.52430  0.15570  Biso   1.000  C
  H108     1.0000 0.58800  0.54930  0.13950  Biso   1.000  H
  C167     1.0000 0.43640  0.96470  0.97760  Biso   1.000  C
  H109     1.0000 0.42470  0.96980  0.00250  Biso   1.000  H
  C168     1.0000 0.53130  0.60700  0.02290  Biso   1.000  C
  H110     1.0000 0.50800  0.64110  0.02100  Biso   1.000  H
  C169     1.0000 0.59270  0.58140  0.00330  Biso   1.000  C
  H111     1.0000 0.61220  0.59800  0.98760  Biso   1.000  H
  C170     1.0000 0.71380  0.97960  0.30620  Biso   1.000  C
  H112     1.0000 0.73170  0.02070  0.32310  Biso   1.000  H
  C171     1.0000 0.70340  0.72620  0.28400  Biso   1.000  C
  C172     1.0000 0.58040  0.85960  0.84490  Biso   1.000  C
  H113     1.0000 0.55620  0.89060  0.84110  Biso   1.000  H
  C173     1.0000 0.55320  0.71380  0.97030  Biso   1.000  C
  C174     1.0000 0.66210  0.86190  0.25830  Biso   1.000  C
  H114     1.0000 0.64340  0.82240  0.24160  Biso   1.000  H
  C175     1.0000 0.59770  0.50690  0.03020  Biso   1.000  C
  H115     1.0000 0.62080  0.47210  0.03280  Biso   1.000  H
  C176     1.0000 0.72110  0.88710  0.30950  Biso   1.000  C
  H116     1.0000 0.74370  0.86490  0.32860  Biso   1.000  H
  C177     1.0000 0.60330  0.86860  0.81430  Biso   1.000  C
  H117     1.0000 0.59410  0.90490  0.78910  Biso   1.000  H
  C178     1.0000 0.62820  0.76180  0.88510  Biso   1.000  C
  H118     1.0000 0.63750  0.72260  0.90920  Biso   1.000  H
  C179     1.0000 0.43780  0.00220  0.90690  Biso   1.000  C
  H119     1.0000 0.42700  0.03470  0.88100  Biso   1.000  H
  C180     1.0000 0.46930  0.94780  0.90640  Biso   1.000  C
  H120     1.0000 0.48000  0.94250  0.88080  Biso   1.000  H
  I35      1.0000 0.52640  0.34890  0.12040  Biso   1.000  I
  I36      1.0000 0.23192  0.74564  0.29117  Biso   1.000  I
  I37      1.0000 0.12059  0.75813  0.05969  Biso   1.000  I
  I38      1.0000 0.12550  0.66405  0.19591  Biso   1.000  I
  I39      1.0000 0.89154  0.74157  0.89746  Biso   1.000  I
  I40      1.0000 0.02403  0.83836  0.13150  Biso   1.000  I
  I41      1.0000 0.85152  0.59748  0.00816  Biso   1.000  I
  Zn16     1.0000 0.08326  0.87164  0.09653  Biso   1.000  Zn
  Zn17     1.0000 0.87414  0.59916  0.93616  Biso   1.000  Zn
  Zn18     1.0000 0.17026  0.65187  0.27087  Biso   1.000  Zn
  N61      1.0000 0.92140  0.51240  0.94150  Biso   1.000  N
  N62      1.0000 0.12150  0.94130  0.14560  Biso   1.000  N
  N63      1.0000 0.33230  0.96900  0.39160  Biso   1.000  N
  N64      1.0000 0.18190  0.51330  0.27970  Biso   1.000  N
  N65      1.0000 0.13810  0.32830  0.81850  Biso   1.000  N
  N66      1.0000 0.22080  0.05220  0.27360  Biso   1.000  N
  N67      1.0000 0.23340  0.19260  0.31230  Biso   1.000  N
  N68      1.0000 0.07080  0.98100  0.05320  Biso   1.000  N
  N69      1.0000 0.18030  0.17920  0.25260  Biso   1.000  N
  N70      1.0000 0.02500  0.27230  0.97450  Biso   1.000  N
  N71      1.0000 0.04000  0.35350  0.91410  Biso   1.000  N
  C181     1.0000 0.31580  0.93120  0.35300  Biso   1.000  C
  H121     1.0000 0.32490  0.87360  0.34530  Biso   1.000  H
  N72      1.0000 0.07560  0.22130  0.94070  Biso   1.000  N
  C182     1.0000 0.15340  0.90480  0.16860  Biso   1.000  C
  H122     1.0000 0.16070  0.84510  0.16140  Biso   1.000  H
  C183     1.0000 0.98530  0.40020  0.94450  Biso   1.000  C
  C184     1.0000 0.16660  0.03870  0.21270  Biso   1.000  C
  C185     1.0000 0.01900  0.33830  0.94450  Biso   1.000  C
  C186     1.0000 0.27340  0.05860  0.33530  Biso   1.000  C
  C187     1.0000 0.03840  0.03110  0.04910  Biso   1.000  C
  H123     1.0000 0.01930  0.01310  0.06520  Biso   1.000  H
  C188     1.0000 0.28600  0.97410  0.32440  Biso   1.000  C
  H124     1.0000 0.27440  0.94560  0.29760  Biso   1.000  H
  C189     1.0000 0.06890  0.29340  0.91440  Biso   1.000  C
  C190     1.0000 0.24080  0.10390  0.30560  Biso   1.000  C
  C191     1.0000 0.32010  0.05030  0.40170  Biso   1.000  C
  H125     1.0000 0.33190  0.07660  0.42900  Biso   1.000  H
  C192     1.0000 0.09270  0.30570  0.88120  Biso   1.000  C
  C193     1.0000 0.05900  0.13290  0.99910  Biso   1.000  C
  C194     1.0000 0.29120  0.09880  0.37490  Biso   1.000  C
  H126     1.0000 0.28360  0.15760  0.38310  Biso   1.000  H
  C195     1.0000 0.96790  0.40870  0.97970  Biso   1.000  C
  H127     1.0000 0.97780  0.37570  0.00580  Biso   1.000  H
  C196     1.0000 0.17660  0.95110  0.20290  Biso   1.000  C
  H128     1.0000 0.19920  0.92290  0.21940  Biso   1.000  H
  C197     1.0000 0.19020  0.09340  0.24840  Biso   1.000  C
  C198     1.0000 0.19520  0.32600  0.28480  Biso   1.000  C
  C199     1.0000 0.14960  0.27610  0.85360  Biso   1.000  C
  H129     1.0000 0.17410  0.24700  0.85700  Biso   1.000  H
  C200     1.0000 0.13290  0.07640  0.18820  Biso   1.000  C
  H130     1.0000 0.12500  0.13660  0.19390  Biso   1.000  H
  C201     1.0000 0.15670  0.45440  0.25650  Biso   1.000  C
  H131     1.0000 0.13410  0.47800  0.23790  Biso   1.000  H
  C202     1.0000 0.11140  0.02430  0.15570  Biso   1.000  C
  H132     1.0000 0.08800  0.04930  0.13950  Biso   1.000  H
  C203     1.0000 0.93640  0.46470  0.97760  Biso   1.000  C
  H133     1.0000 0.92470  0.46980  0.00250  Biso   1.000  H
  C204     1.0000 0.03130  0.10700  0.02290  Biso   1.000  C
  H134     1.0000 0.00800  0.14110  0.02100  Biso   1.000  H
  C205     1.0000 0.09270  0.08140  0.00330  Biso   1.000  C
  H135     1.0000 0.11220  0.09800  0.98760  Biso   1.000  H
  C206     1.0000 0.21380  0.47960  0.30620  Biso   1.000  C
  H136     1.0000 0.23170  0.52070  0.32310  Biso   1.000  H
  C207     1.0000 0.20340  0.22620  0.28400  Biso   1.000  C
  C208     1.0000 0.08040  0.35960  0.84490  Biso   1.000  C
  H137     1.0000 0.05620  0.39060  0.84110  Biso   1.000  H
  C209     1.0000 0.05320  0.21380  0.97030  Biso   1.000  C
  C210     1.0000 0.16210  0.36190  0.25830  Biso   1.000  C
  H138     1.0000 0.14340  0.32240  0.24160  Biso   1.000  H
  C211     1.0000 0.09770  0.00690  0.03020  Biso   1.000  C
  H139     1.0000 0.12080  0.97210  0.03280  Biso   1.000  H
  C212     1.0000 0.22110  0.38710  0.30950  Biso   1.000  C
  H140     1.0000 0.24370  0.36490  0.32860  Biso   1.000  H
  C213     1.0000 0.10330  0.36860  0.81430  Biso   1.000  C
  H141     1.0000 0.09410  0.40490  0.78910  Biso   1.000  H
  C214     1.0000 0.12820  0.26180  0.88510  Biso   1.000  C
  H142     1.0000 0.13750  0.22260  0.90920  Biso   1.000  H
  C215     1.0000 0.93780  0.50220  0.90690  Biso   1.000  C
  H143     1.0000 0.92700  0.53470  0.88100  Biso   1.000  H
  C216     1.0000 0.96930  0.44780  0.90640  Biso   1.000  C
  H144     1.0000 0.98000  0.44250  0.88080  Biso   1.000  H
  I42      1.0000 0.02640  0.84890  0.12040  Biso   1.000  I
  I43      1.0000 0.73192  0.75436  0.79117  Biso   1.000  I
  I44      1.0000 0.62059  0.74187  0.55969  Biso   1.000  I
  I45      1.0000 0.62550  0.83595  0.69591  Biso   1.000  I
  I46      1.0000 0.39154  0.75843  0.39746  Biso   1.000  I
  I47      1.0000 0.52403  0.66164  0.63150  Biso   1.000  I
  I48      1.0000 0.35152  0.90252  0.50816  Biso   1.000  I
  Zn19     1.0000 0.58326  0.62836  0.59653  Biso   1.000  Zn
  Zn20     1.0000 0.37414  0.90084  0.43616  Biso   1.000  Zn
  Zn21     1.0000 0.67026  0.84813  0.77087  Biso   1.000  Zn
  N73      1.0000 0.42140  0.98760  0.44150  Biso   1.000  N
  N74      1.0000 0.62150  0.55870  0.64560  Biso   1.000  N
  N75      1.0000 0.83230  0.53100  0.89160  Biso   1.000  N
  N76      1.0000 0.68190  0.98670  0.77970  Biso   1.000  N
  N77      1.0000 0.63810  0.17170  0.31850  Biso   1.000  N
  N78      1.0000 0.72080  0.44780  0.77360  Biso   1.000  N
  N79      1.0000 0.73340  0.30740  0.81230  Biso   1.000  N
  N80      1.0000 0.57080  0.51900  0.55320  Biso   1.000  N
  N81      1.0000 0.68030  0.32080  0.75260  Biso   1.000  N
  N82      1.0000 0.52500  0.22770  0.47450  Biso   1.000  N
  N83      1.0000 0.54000  0.14650  0.41410  Biso   1.000  N
  C217     1.0000 0.81580  0.56880  0.85300  Biso   1.000  C
  H145     1.0000 0.82490  0.62640  0.84530  Biso   1.000  H
  N84      1.0000 0.57560  0.27870  0.44070  Biso   1.000  N
  C218     1.0000 0.65340  0.59520  0.66860  Biso   1.000  C
  H146     1.0000 0.66070  0.65490  0.66140  Biso   1.000  H
  C219     1.0000 0.48530  0.09980  0.44450  Biso   1.000  C
  C220     1.0000 0.66660  0.46130  0.71270  Biso   1.000  C
  C221     1.0000 0.51900  0.16170  0.44450  Biso   1.000  C
  C222     1.0000 0.77340  0.44140  0.83530  Biso   1.000  C
  C223     1.0000 0.53840  0.46890  0.54910  Biso   1.000  C
  H147     1.0000 0.51930  0.48690  0.56520  Biso   1.000  H
  C224     1.0000 0.78600  0.52590  0.82440  Biso   1.000  C
  H148     1.0000 0.77440  0.55440  0.79760  Biso   1.000  H
  C225     1.0000 0.56890  0.20660  0.41440  Biso   1.000  C
  C226     1.0000 0.74080  0.39610  0.80560  Biso   1.000  C
  C227     1.0000 0.82010  0.44970  0.90170  Biso   1.000  C
  H149     1.0000 0.83190  0.42340  0.92900  Biso   1.000  H
  C228     1.0000 0.59270  0.19430  0.38120  Biso   1.000  C
  C229     1.0000 0.55900  0.36710  0.49910  Biso   1.000  C
  C230     1.0000 0.79120  0.40120  0.87490  Biso   1.000  C
  H150     1.0000 0.78360  0.34240  0.88310  Biso   1.000  H
  C231     1.0000 0.46790  0.09130  0.47970  Biso   1.000  C
  H151     1.0000 0.47780  0.12430  0.50580  Biso   1.000  H
  C232     1.0000 0.67660  0.54890  0.70290  Biso   1.000  C
  H152     1.0000 0.69920  0.57710  0.71940  Biso   1.000  H
  C233     1.0000 0.69020  0.40660  0.74840  Biso   1.000  C
  C234     1.0000 0.69520  0.17400  0.78480  Biso   1.000  C
  C235     1.0000 0.64960  0.22390  0.35360  Biso   1.000  C
  H153     1.0000 0.67410  0.25300  0.35700  Biso   1.000  H
  C236     1.0000 0.63290  0.42360  0.68820  Biso   1.000  C
  H154     1.0000 0.62500  0.36340  0.69390  Biso   1.000  H
  C237     1.0000 0.65670  0.04560  0.75650  Biso   1.000  C
  H155     1.0000 0.63410  0.02200  0.73790  Biso   1.000  H
  C238     1.0000 0.61140  0.47570  0.65570  Biso   1.000  C
  H156     1.0000 0.58800  0.45070  0.63950  Biso   1.000  H
  C239     1.0000 0.43640  0.03530  0.47760  Biso   1.000  C
  H157     1.0000 0.42470  0.03020  0.50250  Biso   1.000  H
  C240     1.0000 0.53130  0.39300  0.52290  Biso   1.000  C
  H158     1.0000 0.50800  0.35890  0.52100  Biso   1.000  H
  C241     1.0000 0.59270  0.41860  0.50330  Biso   1.000  C
  H159     1.0000 0.61220  0.40200  0.48760  Biso   1.000  H
  C242     1.0000 0.71380  0.02040  0.80620  Biso   1.000  C
  H160     1.0000 0.73170  0.97930  0.82310  Biso   1.000  H
  C243     1.0000 0.70340  0.27380  0.78400  Biso   1.000  C
  C244     1.0000 0.58040  0.14040  0.34490  Biso   1.000  C
  H161     1.0000 0.55620  0.10940  0.34110  Biso   1.000  H
  C245     1.0000 0.55320  0.28620  0.47030  Biso   1.000  C
  C246     1.0000 0.66210  0.13810  0.75830  Biso   1.000  C
  H162     1.0000 0.64340  0.17760  0.74160  Biso   1.000  H
  C247     1.0000 0.59770  0.49310  0.53020  Biso   1.000  C
  H163     1.0000 0.62080  0.52790  0.53280  Biso   1.000  H
  C248     1.0000 0.72110  0.11290  0.80950  Biso   1.000  C
  H164     1.0000 0.74370  0.13510  0.82860  Biso   1.000  H
  C249     1.0000 0.60330  0.13140  0.31430  Biso   1.000  C
  H165     1.0000 0.59410  0.09510  0.28910  Biso   1.000  H
  C250     1.0000 0.62820  0.23820  0.38510  Biso   1.000  C
  H166     1.0000 0.63750  0.27740  0.40920  Biso   1.000  H
  C251     1.0000 0.43780  0.99780  0.40690  Biso   1.000  C
  H167     1.0000 0.42700  0.96530  0.38100  Biso   1.000  H
  C252     1.0000 0.46930  0.05220  0.40640  Biso   1.000  C
  H168     1.0000 0.48000  0.05750  0.38080  Biso   1.000  H
  I49      1.0000 0.52640  0.65110  0.62040  Biso   1.000  I
  I50      1.0000 0.23192  0.25436  0.79117  Biso   1.000  I
  I51      1.0000 0.12059  0.24187  0.55969  Biso   1.000  I
  I52      1.0000 0.12550  0.33595  0.69591  Biso   1.000  I
  I53      1.0000 0.89154  0.25843  0.39746  Biso   1.000  I
  I54      1.0000 0.02403  0.16164  0.63150  Biso   1.000  I
  I55      1.0000 0.85152  0.40252  0.50816  Biso   1.000  I
  Zn22     1.0000 0.08326  0.12836  0.59653  Biso   1.000  Zn
  Zn23     1.0000 0.87414  0.40084  0.43616  Biso   1.000  Zn
  Zn24     1.0000 0.17026  0.34813  0.77087  Biso   1.000  Zn
  N85      1.0000 0.92140  0.48760  0.44150  Biso   1.000  N
  N86      1.0000 0.12150  0.05870  0.64560  Biso   1.000  N
  N87      1.0000 0.33230  0.03100  0.89160  Biso   1.000  N
  N88      1.0000 0.18190  0.48670  0.77970  Biso   1.000  N
  N89      1.0000 0.13810  0.67170  0.31850  Biso   1.000  N
  N90      1.0000 0.22080  0.94780  0.77360  Biso   1.000  N
  N91      1.0000 0.23340  0.80740  0.81230  Biso   1.000  N
  N92      1.0000 0.07080  0.01900  0.55320  Biso   1.000  N
  N93      1.0000 0.18030  0.82080  0.75260  Biso   1.000  N
  N94      1.0000 0.02500  0.72770  0.47450  Biso   1.000  N
  N95      1.0000 0.04000  0.64650  0.41410  Biso   1.000  N
  C253     1.0000 0.31580  0.06880  0.85300  Biso   1.000  C
  H169     1.0000 0.32490  0.12640  0.84530  Biso   1.000  H
  N96      1.0000 0.07560  0.77870  0.44070  Biso   1.000  N
  C254     1.0000 0.15340  0.09520  0.66860  Biso   1.000  C
  H170     1.0000 0.16070  0.15490  0.66140  Biso   1.000  H
  C255     1.0000 0.98530  0.59980  0.44450  Biso   1.000  C
  C256     1.0000 0.16660  0.96130  0.71270  Biso   1.000  C
  C257     1.0000 0.01900  0.66170  0.44450  Biso   1.000  C
  C258     1.0000 0.27340  0.94140  0.83530  Biso   1.000  C
  C259     1.0000 0.03840  0.96890  0.54910  Biso   1.000  C
  H171     1.0000 0.01930  0.98690  0.56520  Biso   1.000  H
  C260     1.0000 0.28600  0.02590  0.82440  Biso   1.000  C
  H172     1.0000 0.27440  0.05440  0.79760  Biso   1.000  H
  C261     1.0000 0.06890  0.70660  0.41440  Biso   1.000  C
  C262     1.0000 0.24080  0.89610  0.80560  Biso   1.000  C
  C263     1.0000 0.32010  0.94970  0.90170  Biso   1.000  C
  H173     1.0000 0.33190  0.92340  0.92900  Biso   1.000  H
  C264     1.0000 0.09270  0.69430  0.38120  Biso   1.000  C
  C265     1.0000 0.05900  0.86710  0.49910  Biso   1.000  C
  C266     1.0000 0.29120  0.90120  0.87490  Biso   1.000  C
  H174     1.0000 0.28360  0.84240  0.88310  Biso   1.000  H
  C267     1.0000 0.96790  0.59130  0.47970  Biso   1.000  C
  H175     1.0000 0.97780  0.62430  0.50580  Biso   1.000  H
  C268     1.0000 0.17660  0.04890  0.70290  Biso   1.000  C
  H176     1.0000 0.19920  0.07710  0.71940  Biso   1.000  H
  C269     1.0000 0.19020  0.90660  0.74840  Biso   1.000  C
  C270     1.0000 0.19520  0.67400  0.78480  Biso   1.000  C
  C271     1.0000 0.14960  0.72390  0.35360  Biso   1.000  C
  H177     1.0000 0.17410  0.75300  0.35700  Biso   1.000  H
  C272     1.0000 0.13290  0.92360  0.68820  Biso   1.000  C
  H178     1.0000 0.12500  0.86340  0.69390  Biso   1.000  H
  C273     1.0000 0.15670  0.54560  0.75650  Biso   1.000  C
  H179     1.0000 0.13410  0.52200  0.73790  Biso   1.000  H
  C274     1.0000 0.11140  0.97570  0.65570  Biso   1.000  C
  H180     1.0000 0.08800  0.95070  0.63950  Biso   1.000  H
  C275     1.0000 0.93640  0.53530  0.47760  Biso   1.000  C
  H181     1.0000 0.92470  0.53020  0.50250  Biso   1.000  H
  C276     1.0000 0.03130  0.89300  0.52290  Biso   1.000  C
  H182     1.0000 0.00800  0.85890  0.52100  Biso   1.000  H
  C277     1.0000 0.09270  0.91860  0.50330  Biso   1.000  C
  H183     1.0000 0.11220  0.90200  0.48760  Biso   1.000  H
  C278     1.0000 0.21380  0.52040  0.80620  Biso   1.000  C
  H184     1.0000 0.23170  0.47930  0.82310  Biso   1.000  H
  C279     1.0000 0.20340  0.77380  0.78400  Biso   1.000  C
  C280     1.0000 0.08040  0.64040  0.34490  Biso   1.000  C
  H185     1.0000 0.05620  0.60940  0.34110  Biso   1.000  H
  C281     1.0000 0.05320  0.78620  0.47030  Biso   1.000  C
  C282     1.0000 0.16210  0.63810  0.75830  Biso   1.000  C
  H186     1.0000 0.14340  0.67760  0.74160  Biso   1.000  H
  C283     1.0000 0.09770  0.99310  0.53020  Biso   1.000  C
  H187     1.0000 0.12080  0.02790  0.53280  Biso   1.000  H
  C284     1.0000 0.22110  0.61290  0.80950  Biso   1.000  C
  H188     1.0000 0.24370  0.63510  0.82860  Biso   1.000  H
  C285     1.0000 0.10330  0.63140  0.31430  Biso   1.000  C
  H189     1.0000 0.09410  0.59510  0.28910  Biso   1.000  H
  C286     1.0000 0.12820  0.73820  0.38510  Biso   1.000  C
  H190     1.0000 0.13750  0.77740  0.40920  Biso   1.000  H
  C287     1.0000 0.93780  0.49780  0.40690  Biso   1.000  C
  H191     1.0000 0.92700  0.46530  0.38100  Biso   1.000  H
  C288     1.0000 0.96930  0.55220  0.40640  Biso   1.000  C
  H192     1.0000 0.98000  0.55750  0.38080  Biso   1.000  H
  I56      1.0000 0.02640  0.15110  0.62040  Biso   1.000  I
