data_image0
_cell_length_a       35.2284
_cell_length_b       35.2284
_cell_length_c       21.4996
_cell_angle_alpha    90
_cell_angle_beta     90
_cell_angle_gamma    120

_symmetry_space_group_name_H-M    "P 1"
_symmetry_int_tables_number       1

loop_
  _symmetry_equiv_pos_as_xyz
  'x, y, z'

loop_
  _atom_site_label
  _atom_site_occupancy
  _atom_site_fract_x
  _atom_site_fract_y
  _atom_site_fract_z
  _atom_site_thermal_displace_type
  _atom_site_B_iso_or_equiv
  _atom_site_type_symbol
  O1       1.0000 0.30318  0.19081  0.23589  Biso   1.000  O
  O2       1.0000 0.27784  0.17818  0.13781  Biso   1.000  O
  C1       1.0000 0.27846  0.19018  0.19222  Biso   1.000  C
  C2       1.0000 0.24710  0.20582  0.20999  Biso   1.000  C
  C3       1.0000 0.21962  0.20799  0.16447  Biso   1.000  C
  H1       1.0000 0.22010  0.19900  0.12300  Biso   1.000  H
  C4       1.0000 0.19180  0.22345  0.18092  Biso   1.000  C
  H2       1.0000 0.17320  0.22480  0.15010  Biso   1.000  H
  C5       1.0000 0.19032  0.23678  0.24019  Biso   1.000  C
  C6       1.0000 0.21755  0.23439  0.28608  Biso   1.000  C
  H3       1.0000 0.21680  0.24310  0.32770  Biso   1.000  H
  C7       1.0000 0.24586  0.21879  0.26901  Biso   1.000  C
  H4       1.0000 0.26460  0.21730  0.29960  Biso   1.000  H
  C8       1.0000 0.16272  0.25622  0.25801  Biso   1.000  C
  C9       1.0000 0.18024  0.29338  0.29449  Biso   1.000  C
  H5       1.0000 0.21000  0.30600  0.30700  Biso   1.000  H
  H6       1.0000 0.05610  0.15770  0.26730  Biso   1.000  H
  H7       1.0000 0.08390  0.12290  0.16930  Biso   1.000  H
  H8       1.0000 0.08410  0.12220  0.17050  Biso   1.000  H
  O3       1.0000 0.96985  0.52414  0.56922  Biso   1.000  O
  O4       1.0000 0.94451  0.51151  0.47114  Biso   1.000  O
  C10      1.0000 0.94513  0.52351  0.52555  Biso   1.000  C
  C11      1.0000 0.91377  0.53915  0.54332  Biso   1.000  C
  C12      1.0000 0.88629  0.54132  0.49780  Biso   1.000  C
  H9       1.0000 0.88677  0.53233  0.45633  Biso   1.000  H
  C13      1.0000 0.85847  0.55678  0.51425  Biso   1.000  C
  H10      1.0000 0.83987  0.55813  0.48343  Biso   1.000  H
  C14      1.0000 0.85699  0.57011  0.57352  Biso   1.000  C
  C15      1.0000 0.88422  0.56772  0.61941  Biso   1.000  C
  H11      1.0000 0.88347  0.57643  0.66103  Biso   1.000  H
  C16      1.0000 0.91253  0.55212  0.60234  Biso   1.000  C
  H12      1.0000 0.93127  0.55063  0.63293  Biso   1.000  H
  C17      1.0000 0.82939  0.58955  0.59134  Biso   1.000  C
  C18      1.0000 0.84691  0.62671  0.62782  Biso   1.000  C
  H13      1.0000 0.87667  0.63933  0.64033  Biso   1.000  H
  H14      1.0000 0.72277  0.49103  0.60063  Biso   1.000  H
  H15      1.0000 0.75057  0.45623  0.50263  Biso   1.000  H
  H16      1.0000 0.75077  0.45553  0.50383  Biso   1.000  H
  O5       1.0000 0.63651  0.85748  0.90256  Biso   1.000  O
  O6       1.0000 0.61117  0.84485  0.80448  Biso   1.000  O
  C19      1.0000 0.61179  0.85685  0.85889  Biso   1.000  C
  C20      1.0000 0.58043  0.87249  0.87666  Biso   1.000  C
  C21      1.0000 0.55295  0.87466  0.83114  Biso   1.000  C
  H17      1.0000 0.55343  0.86567  0.78967  Biso   1.000  H
  C22      1.0000 0.52513  0.89012  0.84759  Biso   1.000  C
  H18      1.0000 0.50653  0.89147  0.81677  Biso   1.000  H
  C23      1.0000 0.52365  0.90345  0.90686  Biso   1.000  C
  C24      1.0000 0.55088  0.90106  0.95275  Biso   1.000  C
  H19      1.0000 0.55013  0.90977  0.99437  Biso   1.000  H
  C25      1.0000 0.57919  0.88546  0.93568  Biso   1.000  C
  H20      1.0000 0.59793  0.88397  0.96627  Biso   1.000  H
  C26      1.0000 0.49605  0.92289  0.92468  Biso   1.000  C
  C27      1.0000 0.51357  0.96005  0.96116  Biso   1.000  C
  H21      1.0000 0.54333  0.97267  0.97367  Biso   1.000  H
  H22      1.0000 0.38943  0.82437  0.93397  Biso   1.000  H
  H23      1.0000 0.41723  0.78957  0.83597  Biso   1.000  H
  H24      1.0000 0.41743  0.78887  0.83717  Biso   1.000  H
  O7       1.0000 0.80919  0.11237  0.23589  Biso   1.000  O
  O8       1.0000 0.82182  0.09966  0.13781  Biso   1.000  O
  C28      1.0000 0.80982  0.08828  0.19222  Biso   1.000  C
  C29      1.0000 0.79418  0.04128  0.20999  Biso   1.000  C
  C30      1.0000 0.79201  0.01163  0.16447  Biso   1.000  C
  H25      1.0000 0.80100  0.02110  0.12300  Biso   1.000  H
  C31      1.0000 0.77655  0.96835  0.18092  Biso   1.000  C
  H26      1.0000 0.77520  0.94840  0.15010  Biso   1.000  H
  C32      1.0000 0.76322  0.95354  0.24019  Biso   1.000  C
  C33      1.0000 0.76561  0.98316  0.28608  Biso   1.000  C
  H27      1.0000 0.75690  0.97370  0.32770  Biso   1.000  H
  C34      1.0000 0.78121  0.02707  0.26901  Biso   1.000  C
  H28      1.0000 0.78270  0.04730  0.29960  Biso   1.000  H
  C35      1.0000 0.74378  0.90650  0.25801  Biso   1.000  C
  C36      1.0000 0.70662  0.88686  0.29449  Biso   1.000  C
  H29      1.0000 0.69400  0.90400  0.30700  Biso   1.000  H
  H30      1.0000 0.84230  0.89840  0.26730  Biso   1.000  H
  H31      1.0000 0.87710  0.96100  0.16930  Biso   1.000  H
  H32      1.0000 0.87780  0.96190  0.17050  Biso   1.000  H
  O9       1.0000 0.47586  0.44570  0.56922  Biso   1.000  O
  O10      1.0000 0.48849  0.43299  0.47114  Biso   1.000  O
  C37      1.0000 0.47649  0.42161  0.52555  Biso   1.000  C
  C38      1.0000 0.46085  0.37461  0.54332  Biso   1.000  C
  C39      1.0000 0.45868  0.34496  0.49780  Biso   1.000  C
  H33      1.0000 0.46767  0.35443  0.45633  Biso   1.000  H
  C40      1.0000 0.44322  0.30168  0.51425  Biso   1.000  C
  H34      1.0000 0.44187  0.28173  0.48343  Biso   1.000  H
  C41      1.0000 0.42989  0.28687  0.57352  Biso   1.000  C
  C42      1.0000 0.43228  0.31649  0.61941  Biso   1.000  C
  H35      1.0000 0.42357  0.30703  0.66103  Biso   1.000  H
  C43      1.0000 0.44788  0.36040  0.60234  Biso   1.000  C
  H36      1.0000 0.44937  0.38063  0.63293  Biso   1.000  H
  C44      1.0000 0.41045  0.23983  0.59134  Biso   1.000  C
  C45      1.0000 0.37329  0.22019  0.62782  Biso   1.000  C
  H37      1.0000 0.36067  0.23733  0.64033  Biso   1.000  H
  H38      1.0000 0.50897  0.23173  0.60063  Biso   1.000  H
  H39      1.0000 0.54377  0.29433  0.50263  Biso   1.000  H
  H40      1.0000 0.54447  0.29523  0.50383  Biso   1.000  H
  O11      1.0000 0.14252  0.77904  0.90256  Biso   1.000  O
  O12      1.0000 0.15515  0.76633  0.80448  Biso   1.000  O
  C46      1.0000 0.14315  0.75495  0.85889  Biso   1.000  C
  C47      1.0000 0.12751  0.70795  0.87666  Biso   1.000  C
  C48      1.0000 0.12534  0.67830  0.83114  Biso   1.000  C
  H41      1.0000 0.13433  0.68777  0.78967  Biso   1.000  H
  C49      1.0000 0.10988  0.63502  0.84759  Biso   1.000  C
  H42      1.0000 0.10853  0.61507  0.81677  Biso   1.000  H
  C50      1.0000 0.09655  0.62021  0.90686  Biso   1.000  C
  C51      1.0000 0.09894  0.64983  0.95275  Biso   1.000  C
  H43      1.0000 0.09023  0.64037  0.99437  Biso   1.000  H
  C52      1.0000 0.11454  0.69374  0.93568  Biso   1.000  C
  H44      1.0000 0.11603  0.71397  0.96627  Biso   1.000  H
  C53      1.0000 0.07711  0.57317  0.92468  Biso   1.000  C
  C54      1.0000 0.03995  0.55353  0.96116  Biso   1.000  C
  H45      1.0000 0.02733  0.57067  0.97367  Biso   1.000  H
  H46      1.0000 0.17563  0.56507  0.93397  Biso   1.000  H
  H47      1.0000 0.21043  0.62767  0.83597  Biso   1.000  H
  H48      1.0000 0.21113  0.62857  0.83717  Biso   1.000  H
  O13      1.0000 0.88763  0.69682  0.23589  Biso   1.000  O
  O14      1.0000 0.90034  0.72216  0.13781  Biso   1.000  O
  C55      1.0000 0.91172  0.72154  0.19222  Biso   1.000  C
  C56      1.0000 0.95872  0.75290  0.20999  Biso   1.000  C
  C57      1.0000 0.98837  0.78038  0.16447  Biso   1.000  C
  H49      1.0000 0.97890  0.77990  0.12300  Biso   1.000  H
  C58      1.0000 0.03165  0.80820  0.18092  Biso   1.000  C
  H50      1.0000 0.05160  0.82680  0.15010  Biso   1.000  H
  C59      1.0000 0.04646  0.80968  0.24019  Biso   1.000  C
  C60      1.0000 0.01684  0.78245  0.28608  Biso   1.000  C
  H51      1.0000 0.02630  0.78320  0.32770  Biso   1.000  H
  C61      1.0000 0.97293  0.75414  0.26901  Biso   1.000  C
  H52      1.0000 0.95270  0.73540  0.29960  Biso   1.000  H
  C62      1.0000 0.09350  0.83728  0.25801  Biso   1.000  C
  C63      1.0000 0.11314  0.81976  0.29449  Biso   1.000  C
  H53      1.0000 0.09600  0.79000  0.30700  Biso   1.000  H
  H54      1.0000 0.10160  0.94390  0.26730  Biso   1.000  H
  H55      1.0000 0.03900  0.91610  0.16930  Biso   1.000  H
  H56      1.0000 0.03810  0.91590  0.17050  Biso   1.000  H
  O15      1.0000 0.55430  0.03015  0.56922  Biso   1.000  O
  O16      1.0000 0.56701  0.05549  0.47114  Biso   1.000  O
  C64      1.0000 0.57839  0.05487  0.52555  Biso   1.000  C
  C65      1.0000 0.62539  0.08623  0.54332  Biso   1.000  C
  C66      1.0000 0.65504  0.11371  0.49780  Biso   1.000  C
  H57      1.0000 0.64557  0.11323  0.45633  Biso   1.000  H
  C67      1.0000 0.69832  0.14153  0.51425  Biso   1.000  C
  H58      1.0000 0.71827  0.16013  0.48343  Biso   1.000  H
  C68      1.0000 0.71313  0.14301  0.57352  Biso   1.000  C
  C69      1.0000 0.68351  0.11578  0.61941  Biso   1.000  C
  H59      1.0000 0.69297  0.11653  0.66103  Biso   1.000  H
  C70      1.0000 0.63960  0.08747  0.60234  Biso   1.000  C
  H60      1.0000 0.61937  0.06873  0.63293  Biso   1.000  H
  C71      1.0000 0.76017  0.17061  0.59134  Biso   1.000  C
  C72      1.0000 0.77981  0.15309  0.62782  Biso   1.000  C
  H61      1.0000 0.76267  0.12333  0.64033  Biso   1.000  H
  H62      1.0000 0.76827  0.27723  0.60063  Biso   1.000  H
  H63      1.0000 0.70567  0.24943  0.50263  Biso   1.000  H
  H64      1.0000 0.70477  0.24923  0.50383  Biso   1.000  H
  O17      1.0000 0.22096  0.36349  0.90256  Biso   1.000  O
  O18      1.0000 0.23367  0.38883  0.80448  Biso   1.000  O
  C73      1.0000 0.24505  0.38821  0.85889  Biso   1.000  C
  C74      1.0000 0.29205  0.41957  0.87666  Biso   1.000  C
  C75      1.0000 0.32170  0.44705  0.83114  Biso   1.000  C
  H65      1.0000 0.31223  0.44657  0.78967  Biso   1.000  H
  C76      1.0000 0.36498  0.47487  0.84759  Biso   1.000  C
  H66      1.0000 0.38493  0.49347  0.81677  Biso   1.000  H
  C77      1.0000 0.37979  0.47635  0.90686  Biso   1.000  C
  C78      1.0000 0.35017  0.44912  0.95275  Biso   1.000  C
  H67      1.0000 0.35963  0.44987  0.99437  Biso   1.000  H
  C79      1.0000 0.30626  0.42081  0.93568  Biso   1.000  C
  H68      1.0000 0.28603  0.40207  0.96627  Biso   1.000  H
  C80      1.0000 0.42683  0.50395  0.92468  Biso   1.000  C
  C81      1.0000 0.44647  0.48643  0.96116  Biso   1.000  C
  H69      1.0000 0.42933  0.45667  0.97367  Biso   1.000  H
  H70      1.0000 0.43493  0.61057  0.93397  Biso   1.000  H
  H71      1.0000 0.37233  0.58277  0.83597  Biso   1.000  H
  H72      1.0000 0.37143  0.58257  0.83717  Biso   1.000  H
  O19      1.0000 0.19081  0.30318  0.76411  Biso   1.000  O
  O20      1.0000 0.17818  0.27784  0.86219  Biso   1.000  O
  C82      1.0000 0.19018  0.27846  0.80778  Biso   1.000  C
  C83      1.0000 0.20582  0.24710  0.79001  Biso   1.000  C
  C84      1.0000 0.20799  0.21962  0.83553  Biso   1.000  C
  H73      1.0000 0.19900  0.22010  0.87700  Biso   1.000  H
  C85      1.0000 0.22345  0.19180  0.81908  Biso   1.000  C
  H74      1.0000 0.22480  0.17320  0.84990  Biso   1.000  H
  C86      1.0000 0.23678  0.19032  0.75981  Biso   1.000  C
  C87      1.0000 0.23439  0.21755  0.71392  Biso   1.000  C
  H75      1.0000 0.24310  0.21680  0.67230  Biso   1.000  H
  C88      1.0000 0.21879  0.24586  0.73099  Biso   1.000  C
  H76      1.0000 0.21730  0.26460  0.70040  Biso   1.000  H
  C89      1.0000 0.25622  0.16272  0.74199  Biso   1.000  C
  C90      1.0000 0.29338  0.18024  0.70551  Biso   1.000  C
  H77      1.0000 0.30600  0.21000  0.69300  Biso   1.000  H
  H78      1.0000 0.15770  0.05610  0.73270  Biso   1.000  H
  H79      1.0000 0.12290  0.08390  0.83070  Biso   1.000  H
  H80      1.0000 0.12220  0.08410  0.82950  Biso   1.000  H
  O21      1.0000 0.85748  0.63651  0.09744  Biso   1.000  O
  O22      1.0000 0.84485  0.61117  0.19552  Biso   1.000  O
  C91      1.0000 0.85685  0.61179  0.14111  Biso   1.000  C
  C92      1.0000 0.87249  0.58043  0.12334  Biso   1.000  C
  C93      1.0000 0.87466  0.55295  0.16886  Biso   1.000  C
  H81      1.0000 0.86567  0.55343  0.21033  Biso   1.000  H
  C94      1.0000 0.89012  0.52513  0.15241  Biso   1.000  C
  H82      1.0000 0.89147  0.50653  0.18323  Biso   1.000  H
  C95      1.0000 0.90345  0.52365  0.09314  Biso   1.000  C
  C96      1.0000 0.90106  0.55088  0.04725  Biso   1.000  C
  H83      1.0000 0.90977  0.55013  0.00563  Biso   1.000  H
  C97      1.0000 0.88546  0.57919  0.06432  Biso   1.000  C
  H84      1.0000 0.88397  0.59793  0.03373  Biso   1.000  H
  C98      1.0000 0.92289  0.49605  0.07532  Biso   1.000  C
  C99      1.0000 0.96005  0.51357  0.03884  Biso   1.000  C
  H85      1.0000 0.97267  0.54333  0.02633  Biso   1.000  H
  H86      1.0000 0.82437  0.38943  0.06603  Biso   1.000  H
  H87      1.0000 0.78957  0.41723  0.16403  Biso   1.000  H
  H88      1.0000 0.78887  0.41743  0.16283  Biso   1.000  H
  O23      1.0000 0.52414  0.96985  0.43078  Biso   1.000  O
  O24      1.0000 0.51151  0.94451  0.52886  Biso   1.000  O
  C100     1.0000 0.52351  0.94513  0.47445  Biso   1.000  C
  C101     1.0000 0.53915  0.91377  0.45668  Biso   1.000  C
  C102     1.0000 0.54132  0.88629  0.50220  Biso   1.000  C
  H89      1.0000 0.53233  0.88677  0.54367  Biso   1.000  H
  C103     1.0000 0.55678  0.85847  0.48575  Biso   1.000  C
  H90      1.0000 0.55813  0.83987  0.51657  Biso   1.000  H
  C104     1.0000 0.57011  0.85699  0.42648  Biso   1.000  C
  C105     1.0000 0.56772  0.88422  0.38059  Biso   1.000  C
  H91      1.0000 0.57643  0.88347  0.33897  Biso   1.000  H
  C106     1.0000 0.55212  0.91253  0.39766  Biso   1.000  C
  H92      1.0000 0.55063  0.93127  0.36707  Biso   1.000  H
  C107     1.0000 0.58955  0.82939  0.40866  Biso   1.000  C
  C108     1.0000 0.62671  0.84691  0.37218  Biso   1.000  C
  H93      1.0000 0.63933  0.87667  0.35967  Biso   1.000  H
  H94      1.0000 0.49103  0.72277  0.39937  Biso   1.000  H
  H95      1.0000 0.45623  0.75057  0.49737  Biso   1.000  H
  H96      1.0000 0.45553  0.75077  0.49617  Biso   1.000  H
  O25      1.0000 0.11237  0.80919  0.76411  Biso   1.000  O
  O26      1.0000 0.09966  0.82182  0.86219  Biso   1.000  O
  C109     1.0000 0.08828  0.80982  0.80778  Biso   1.000  C
  C110     1.0000 0.04128  0.79418  0.79001  Biso   1.000  C
  C111     1.0000 0.01163  0.79201  0.83553  Biso   1.000  C
  H97      1.0000 0.02110  0.80100  0.87700  Biso   1.000  H
  C112     1.0000 0.96835  0.77655  0.81908  Biso   1.000  C
  H98      1.0000 0.94840  0.77520  0.84990  Biso   1.000  H
  C113     1.0000 0.95354  0.76322  0.75981  Biso   1.000  C
  C114     1.0000 0.98316  0.76561  0.71392  Biso   1.000  C
  H99      1.0000 0.97370  0.75690  0.67230  Biso   1.000  H
  C115     1.0000 0.02707  0.78121  0.73099  Biso   1.000  C
  H100     1.0000 0.04730  0.78270  0.70040  Biso   1.000  H
  C116     1.0000 0.90650  0.74378  0.74199  Biso   1.000  C
  C117     1.0000 0.88686  0.70662  0.70551  Biso   1.000  C
  H101     1.0000 0.90400  0.69400  0.69300  Biso   1.000  H
  H102     1.0000 0.89840  0.84230  0.73270  Biso   1.000  H
  H103     1.0000 0.96100  0.87710  0.83070  Biso   1.000  H
  H104     1.0000 0.96190  0.87780  0.82950  Biso   1.000  H
  O27      1.0000 0.77904  0.14252  0.09744  Biso   1.000  O
  O28      1.0000 0.76633  0.15515  0.19552  Biso   1.000  O
  C118     1.0000 0.75495  0.14315  0.14111  Biso   1.000  C
  C119     1.0000 0.70795  0.12751  0.12334  Biso   1.000  C
  C120     1.0000 0.67830  0.12534  0.16886  Biso   1.000  C
  H105     1.0000 0.68777  0.13433  0.21033  Biso   1.000  H
  C121     1.0000 0.63502  0.10988  0.15241  Biso   1.000  C
  H106     1.0000 0.61507  0.10853  0.18323  Biso   1.000  H
  C122     1.0000 0.62021  0.09655  0.09314  Biso   1.000  C
  C123     1.0000 0.64983  0.09894  0.04725  Biso   1.000  C
  H107     1.0000 0.64037  0.09023  0.00563  Biso   1.000  H
  C124     1.0000 0.69374  0.11454  0.06432  Biso   1.000  C
  H108     1.0000 0.71397  0.11603  0.03373  Biso   1.000  H
  C125     1.0000 0.57317  0.07711  0.07532  Biso   1.000  C
  C126     1.0000 0.55353  0.03995  0.03884  Biso   1.000  C
  H109     1.0000 0.57067  0.02733  0.02633  Biso   1.000  H
  H110     1.0000 0.56507  0.17563  0.06603  Biso   1.000  H
  H111     1.0000 0.62767  0.21043  0.16403  Biso   1.000  H
  H112     1.0000 0.62857  0.21113  0.16283  Biso   1.000  H
  O29      1.0000 0.44570  0.47586  0.43078  Biso   1.000  O
  O30      1.0000 0.43299  0.48849  0.52886  Biso   1.000  O
  C127     1.0000 0.42161  0.47649  0.47445  Biso   1.000  C
  C128     1.0000 0.37461  0.46085  0.45668  Biso   1.000  C
  C129     1.0000 0.34496  0.45868  0.50220  Biso   1.000  C
  H113     1.0000 0.35443  0.46767  0.54367  Biso   1.000  H
  C130     1.0000 0.30168  0.44322  0.48575  Biso   1.000  C
  H114     1.0000 0.28173  0.44187  0.51657  Biso   1.000  H
  C131     1.0000 0.28687  0.42989  0.42648  Biso   1.000  C
  C132     1.0000 0.31649  0.43228  0.38059  Biso   1.000  C
  H115     1.0000 0.30703  0.42357  0.33897  Biso   1.000  H
  C133     1.0000 0.36040  0.44788  0.39766  Biso   1.000  C
  H116     1.0000 0.38063  0.44937  0.36707  Biso   1.000  H
  C134     1.0000 0.23983  0.41045  0.40866  Biso   1.000  C
  C135     1.0000 0.22019  0.37329  0.37218  Biso   1.000  C
  H117     1.0000 0.23733  0.36067  0.35967  Biso   1.000  H
  H118     1.0000 0.23173  0.50897  0.39937  Biso   1.000  H
  H119     1.0000 0.29433  0.54377  0.49737  Biso   1.000  H
  H120     1.0000 0.29523  0.54447  0.49617  Biso   1.000  H
  O31      1.0000 0.69682  0.88763  0.76411  Biso   1.000  O
  O32      1.0000 0.72216  0.90034  0.86219  Biso   1.000  O
  C136     1.0000 0.72154  0.91172  0.80778  Biso   1.000  C
  C137     1.0000 0.75290  0.95872  0.79001  Biso   1.000  C
  C138     1.0000 0.78038  0.98837  0.83553  Biso   1.000  C
  H121     1.0000 0.77990  0.97890  0.87700  Biso   1.000  H
  C139     1.0000 0.80820  0.03165  0.81908  Biso   1.000  C
  H122     1.0000 0.82680  0.05160  0.84990  Biso   1.000  H
  C140     1.0000 0.80968  0.04646  0.75981  Biso   1.000  C
  C141     1.0000 0.78245  0.01684  0.71392  Biso   1.000  C
  H123     1.0000 0.78320  0.02630  0.67230  Biso   1.000  H
  C142     1.0000 0.75414  0.97293  0.73099  Biso   1.000  C
  H124     1.0000 0.73540  0.95270  0.70040  Biso   1.000  H
  C143     1.0000 0.83728  0.09350  0.74199  Biso   1.000  C
  C144     1.0000 0.81976  0.11314  0.70551  Biso   1.000  C
  H125     1.0000 0.79000  0.09600  0.69300  Biso   1.000  H
  H126     1.0000 0.94390  0.10160  0.73270  Biso   1.000  H
  H127     1.0000 0.91610  0.03900  0.83070  Biso   1.000  H
  H128     1.0000 0.91590  0.03810  0.82950  Biso   1.000  H
  O33      1.0000 0.36349  0.22096  0.09744  Biso   1.000  O
  O34      1.0000 0.38883  0.23367  0.19552  Biso   1.000  O
  C145     1.0000 0.38821  0.24505  0.14111  Biso   1.000  C
  C146     1.0000 0.41957  0.29205  0.12334  Biso   1.000  C
  C147     1.0000 0.44705  0.32170  0.16886  Biso   1.000  C
  H129     1.0000 0.44657  0.31223  0.21033  Biso   1.000  H
  C148     1.0000 0.47487  0.36498  0.15241  Biso   1.000  C
  H130     1.0000 0.49347  0.38493  0.18323  Biso   1.000  H
  C149     1.0000 0.47635  0.37979  0.09314  Biso   1.000  C
  C150     1.0000 0.44912  0.35017  0.04725  Biso   1.000  C
  H131     1.0000 0.44987  0.35963  0.00563  Biso   1.000  H
  C151     1.0000 0.42081  0.30626  0.06432  Biso   1.000  C
  H132     1.0000 0.40207  0.28603  0.03373  Biso   1.000  H
  C152     1.0000 0.50395  0.42683  0.07532  Biso   1.000  C
  C153     1.0000 0.48643  0.44647  0.03884  Biso   1.000  C
  H133     1.0000 0.45667  0.42933  0.02633  Biso   1.000  H
  H134     1.0000 0.61057  0.43493  0.06603  Biso   1.000  H
  H135     1.0000 0.58277  0.37233  0.16403  Biso   1.000  H
  H136     1.0000 0.58257  0.37143  0.16283  Biso   1.000  H
  O35      1.0000 0.03015  0.55430  0.43078  Biso   1.000  O
  O36      1.0000 0.05549  0.56701  0.52886  Biso   1.000  O
  C154     1.0000 0.05487  0.57839  0.47445  Biso   1.000  C
  C155     1.0000 0.08623  0.62539  0.45668  Biso   1.000  C
  C156     1.0000 0.11371  0.65504  0.50220  Biso   1.000  C
  H137     1.0000 0.11323  0.64557  0.54367  Biso   1.000  H
  C157     1.0000 0.14153  0.69832  0.48575  Biso   1.000  C
  H138     1.0000 0.16013  0.71827  0.51657  Biso   1.000  H
  C158     1.0000 0.14301  0.71313  0.42648  Biso   1.000  C
  C159     1.0000 0.11578  0.68351  0.38059  Biso   1.000  C
  H139     1.0000 0.11653  0.69297  0.33897  Biso   1.000  H
  C160     1.0000 0.08747  0.63960  0.39766  Biso   1.000  C
  H140     1.0000 0.06873  0.61937  0.36707  Biso   1.000  H
  C161     1.0000 0.17061  0.76017  0.40866  Biso   1.000  C
  C162     1.0000 0.15309  0.77981  0.37218  Biso   1.000  C
  H141     1.0000 0.12333  0.76267  0.35967  Biso   1.000  H
  H142     1.0000 0.27723  0.76827  0.39937  Biso   1.000  H
  H143     1.0000 0.24943  0.70567  0.49737  Biso   1.000  H
  H144     1.0000 0.24923  0.70477  0.49617  Biso   1.000  H
  O37      1.0000 0.69682  0.80919  0.76411  Biso   1.000  O
  O38      1.0000 0.72216  0.82182  0.86219  Biso   1.000  O
  C163     1.0000 0.72154  0.80982  0.80778  Biso   1.000  C
  C164     1.0000 0.75290  0.79418  0.79001  Biso   1.000  C
  C165     1.0000 0.78038  0.79201  0.83553  Biso   1.000  C
  H145     1.0000 0.77990  0.80100  0.87700  Biso   1.000  H
  C166     1.0000 0.80820  0.77655  0.81908  Biso   1.000  C
  H146     1.0000 0.82680  0.77520  0.84990  Biso   1.000  H
  C167     1.0000 0.80968  0.76322  0.75981  Biso   1.000  C
  C168     1.0000 0.78245  0.76561  0.71392  Biso   1.000  C
  H147     1.0000 0.78320  0.75690  0.67230  Biso   1.000  H
  C169     1.0000 0.75414  0.78121  0.73099  Biso   1.000  C
  H148     1.0000 0.73540  0.78270  0.70040  Biso   1.000  H
  C170     1.0000 0.83728  0.74378  0.74199  Biso   1.000  C
  C171     1.0000 0.81976  0.70662  0.70551  Biso   1.000  C
  H149     1.0000 0.79000  0.69400  0.69300  Biso   1.000  H
  H150     1.0000 0.94390  0.84230  0.73270  Biso   1.000  H
  H151     1.0000 0.91610  0.87710  0.83070  Biso   1.000  H
  H152     1.0000 0.91590  0.87780  0.82950  Biso   1.000  H
  O39      1.0000 0.36349  0.14252  0.09744  Biso   1.000  O
  O40      1.0000 0.38883  0.15515  0.19552  Biso   1.000  O
  C172     1.0000 0.38821  0.14315  0.14111  Biso   1.000  C
  C173     1.0000 0.41957  0.12751  0.12334  Biso   1.000  C
  C174     1.0000 0.44705  0.12534  0.16886  Biso   1.000  C
  H153     1.0000 0.44657  0.13433  0.21033  Biso   1.000  H
  C175     1.0000 0.47487  0.10988  0.15241  Biso   1.000  C
  H154     1.0000 0.49347  0.10853  0.18323  Biso   1.000  H
  C176     1.0000 0.47635  0.09655  0.09314  Biso   1.000  C
  C177     1.0000 0.44912  0.09894  0.04725  Biso   1.000  C
  H155     1.0000 0.44987  0.09023  0.00563  Biso   1.000  H
  C178     1.0000 0.42081  0.11454  0.06432  Biso   1.000  C
  H156     1.0000 0.40207  0.11603  0.03373  Biso   1.000  H
  C179     1.0000 0.50395  0.07711  0.07532  Biso   1.000  C
  C180     1.0000 0.48643  0.03995  0.03884  Biso   1.000  C
  H157     1.0000 0.45667  0.02733  0.02633  Biso   1.000  H
  H158     1.0000 0.61057  0.17563  0.06603  Biso   1.000  H
  H159     1.0000 0.58277  0.21043  0.16403  Biso   1.000  H
  H160     1.0000 0.58257  0.21113  0.16283  Biso   1.000  H
  O41      1.0000 0.03015  0.47586  0.43078  Biso   1.000  O
  O42      1.0000 0.05549  0.48849  0.52886  Biso   1.000  O
  C181     1.0000 0.05487  0.47649  0.47445  Biso   1.000  C
  C182     1.0000 0.08623  0.46085  0.45668  Biso   1.000  C
  C183     1.0000 0.11371  0.45868  0.50220  Biso   1.000  C
  H161     1.0000 0.11323  0.46767  0.54367  Biso   1.000  H
  C184     1.0000 0.14153  0.44322  0.48575  Biso   1.000  C
  H162     1.0000 0.16013  0.44187  0.51657  Biso   1.000  H
  C185     1.0000 0.14301  0.42989  0.42648  Biso   1.000  C
  C186     1.0000 0.11578  0.43228  0.38059  Biso   1.000  C
  H163     1.0000 0.11653  0.42357  0.33897  Biso   1.000  H
  C187     1.0000 0.08747  0.44788  0.39766  Biso   1.000  C
  H164     1.0000 0.06873  0.44937  0.36707  Biso   1.000  H
  C188     1.0000 0.17061  0.41045  0.40866  Biso   1.000  C
  C189     1.0000 0.15309  0.37329  0.37218  Biso   1.000  C
  H165     1.0000 0.12333  0.36067  0.35967  Biso   1.000  H
  H166     1.0000 0.27723  0.50897  0.39937  Biso   1.000  H
  H167     1.0000 0.24943  0.54377  0.49737  Biso   1.000  H
  H168     1.0000 0.24923  0.54447  0.49617  Biso   1.000  H
  O43      1.0000 0.19081  0.88763  0.76411  Biso   1.000  O
  O44      1.0000 0.17818  0.90034  0.86219  Biso   1.000  O
  C190     1.0000 0.19018  0.91172  0.80778  Biso   1.000  C
  C191     1.0000 0.20582  0.95872  0.79001  Biso   1.000  C
  C192     1.0000 0.20799  0.98837  0.83553  Biso   1.000  C
  H169     1.0000 0.19900  0.97890  0.87700  Biso   1.000  H
  C193     1.0000 0.22345  0.03165  0.81908  Biso   1.000  C
  H170     1.0000 0.22480  0.05160  0.84990  Biso   1.000  H
  C194     1.0000 0.23678  0.04646  0.75981  Biso   1.000  C
  C195     1.0000 0.23439  0.01684  0.71392  Biso   1.000  C
  H171     1.0000 0.24310  0.02630  0.67230  Biso   1.000  H
  C196     1.0000 0.21879  0.97293  0.73099  Biso   1.000  C
  H172     1.0000 0.21730  0.95270  0.70040  Biso   1.000  H
  C197     1.0000 0.25622  0.09350  0.74199  Biso   1.000  C
  C198     1.0000 0.29338  0.11314  0.70551  Biso   1.000  C
  H173     1.0000 0.30600  0.09600  0.69300  Biso   1.000  H
  H174     1.0000 0.15770  0.10160  0.73270  Biso   1.000  H
  H175     1.0000 0.12290  0.03900  0.83070  Biso   1.000  H
  H176     1.0000 0.12220  0.03810  0.82950  Biso   1.000  H
  O45      1.0000 0.85748  0.22096  0.09744  Biso   1.000  O
  O46      1.0000 0.84485  0.23367  0.19552  Biso   1.000  O
  C199     1.0000 0.85685  0.24505  0.14111  Biso   1.000  C
  C200     1.0000 0.87249  0.29205  0.12334  Biso   1.000  C
  C201     1.0000 0.87466  0.32170  0.16886  Biso   1.000  C
  H177     1.0000 0.86567  0.31223  0.21033  Biso   1.000  H
  C202     1.0000 0.89012  0.36498  0.15241  Biso   1.000  C
  H178     1.0000 0.89147  0.38493  0.18323  Biso   1.000  H
  C203     1.0000 0.90345  0.37979  0.09314  Biso   1.000  C
  C204     1.0000 0.90106  0.35017  0.04725  Biso   1.000  C
  H179     1.0000 0.90977  0.35963  0.00563  Biso   1.000  H
  C205     1.0000 0.88546  0.30626  0.06432  Biso   1.000  C
  H180     1.0000 0.88397  0.28603  0.03373  Biso   1.000  H
  C206     1.0000 0.92289  0.42683  0.07532  Biso   1.000  C
  C207     1.0000 0.96005  0.44647  0.03884  Biso   1.000  C
  H181     1.0000 0.97267  0.42933  0.02633  Biso   1.000  H
  H182     1.0000 0.82437  0.43493  0.06603  Biso   1.000  H
  H183     1.0000 0.78957  0.37233  0.16403  Biso   1.000  H
  H184     1.0000 0.78887  0.37143  0.16283  Biso   1.000  H
  O47      1.0000 0.52414  0.55430  0.43078  Biso   1.000  O
  O48      1.0000 0.51151  0.56701  0.52886  Biso   1.000  O
  C208     1.0000 0.52351  0.57839  0.47445  Biso   1.000  C
  C209     1.0000 0.53915  0.62539  0.45668  Biso   1.000  C
  C210     1.0000 0.54132  0.65504  0.50220  Biso   1.000  C
  H185     1.0000 0.53233  0.64557  0.54367  Biso   1.000  H
  C211     1.0000 0.55678  0.69832  0.48575  Biso   1.000  C
  H186     1.0000 0.55813  0.71827  0.51657  Biso   1.000  H
  C212     1.0000 0.57011  0.71313  0.42648  Biso   1.000  C
  C213     1.0000 0.56772  0.68351  0.38059  Biso   1.000  C
  H187     1.0000 0.57643  0.69297  0.33897  Biso   1.000  H
  C214     1.0000 0.55212  0.63960  0.39766  Biso   1.000  C
  H188     1.0000 0.55063  0.61937  0.36707  Biso   1.000  H
  C215     1.0000 0.58955  0.76017  0.40866  Biso   1.000  C
  C216     1.0000 0.62671  0.77981  0.37218  Biso   1.000  C
  H189     1.0000 0.63933  0.76267  0.35967  Biso   1.000  H
  H190     1.0000 0.49103  0.76827  0.39937  Biso   1.000  H
  H191     1.0000 0.45623  0.70567  0.49737  Biso   1.000  H
  H192     1.0000 0.45553  0.70477  0.49617  Biso   1.000  H
  O49      1.0000 0.11237  0.30318  0.76411  Biso   1.000  O
  O50      1.0000 0.09966  0.27784  0.86219  Biso   1.000  O
  C217     1.0000 0.08828  0.27846  0.80778  Biso   1.000  C
  C218     1.0000 0.04128  0.24710  0.79001  Biso   1.000  C
  C219     1.0000 0.01163  0.21962  0.83553  Biso   1.000  C
  H193     1.0000 0.02110  0.22010  0.87700  Biso   1.000  H
  C220     1.0000 0.96835  0.19180  0.81908  Biso   1.000  C
  H194     1.0000 0.94840  0.17320  0.84990  Biso   1.000  H
  C221     1.0000 0.95354  0.19032  0.75981  Biso   1.000  C
  C222     1.0000 0.98316  0.21755  0.71392  Biso   1.000  C
  H195     1.0000 0.97370  0.21680  0.67230  Biso   1.000  H
  C223     1.0000 0.02707  0.24586  0.73099  Biso   1.000  C
  H196     1.0000 0.04730  0.26460  0.70040  Biso   1.000  H
  C224     1.0000 0.90650  0.16272  0.74199  Biso   1.000  C
  C225     1.0000 0.88686  0.18024  0.70551  Biso   1.000  C
  H197     1.0000 0.90400  0.21000  0.69300  Biso   1.000  H
  H198     1.0000 0.89840  0.05610  0.73270  Biso   1.000  H
  H199     1.0000 0.96100  0.08390  0.83070  Biso   1.000  H
  H200     1.0000 0.96190  0.08410  0.82950  Biso   1.000  H
  O51      1.0000 0.77904  0.63651  0.09744  Biso   1.000  O
  O52      1.0000 0.76633  0.61117  0.19552  Biso   1.000  O
  C226     1.0000 0.75495  0.61179  0.14111  Biso   1.000  C
  C227     1.0000 0.70795  0.58043  0.12334  Biso   1.000  C
  C228     1.0000 0.67830  0.55295  0.16886  Biso   1.000  C
  H201     1.0000 0.68777  0.55343  0.21033  Biso   1.000  H
  C229     1.0000 0.63502  0.52513  0.15241  Biso   1.000  C
  H202     1.0000 0.61507  0.50653  0.18323  Biso   1.000  H
  C230     1.0000 0.62021  0.52365  0.09314  Biso   1.000  C
  C231     1.0000 0.64983  0.55088  0.04725  Biso   1.000  C
  H203     1.0000 0.64037  0.55013  0.00563  Biso   1.000  H
  C232     1.0000 0.69374  0.57919  0.06432  Biso   1.000  C
  H204     1.0000 0.71397  0.59793  0.03373  Biso   1.000  H
  C233     1.0000 0.57317  0.49605  0.07532  Biso   1.000  C
  C234     1.0000 0.55353  0.51357  0.03884  Biso   1.000  C
  H205     1.0000 0.57067  0.54333  0.02633  Biso   1.000  H
  H206     1.0000 0.56507  0.38943  0.06603  Biso   1.000  H
  H207     1.0000 0.62767  0.41723  0.16403  Biso   1.000  H
  H208     1.0000 0.62857  0.41743  0.16283  Biso   1.000  H
  O53      1.0000 0.44570  0.96985  0.43078  Biso   1.000  O
  O54      1.0000 0.43299  0.94451  0.52886  Biso   1.000  O
  C235     1.0000 0.42161  0.94513  0.47445  Biso   1.000  C
  C236     1.0000 0.37461  0.91377  0.45668  Biso   1.000  C
  C237     1.0000 0.34496  0.88629  0.50220  Biso   1.000  C
  H209     1.0000 0.35443  0.88677  0.54367  Biso   1.000  H
  C238     1.0000 0.30168  0.85847  0.48575  Biso   1.000  C
  H210     1.0000 0.28173  0.83987  0.51657  Biso   1.000  H
  C239     1.0000 0.28687  0.85699  0.42648  Biso   1.000  C
  C240     1.0000 0.31649  0.88422  0.38059  Biso   1.000  C
  H211     1.0000 0.30703  0.88347  0.33897  Biso   1.000  H
  C241     1.0000 0.36040  0.91253  0.39766  Biso   1.000  C
  H212     1.0000 0.38063  0.93127  0.36707  Biso   1.000  H
  C242     1.0000 0.23983  0.82939  0.40866  Biso   1.000  C
  C243     1.0000 0.22019  0.84691  0.37218  Biso   1.000  C
  H213     1.0000 0.23733  0.87667  0.35967  Biso   1.000  H
  H214     1.0000 0.23173  0.72277  0.39937  Biso   1.000  H
  H215     1.0000 0.29433  0.75057  0.49737  Biso   1.000  H
  H216     1.0000 0.29523  0.75077  0.49617  Biso   1.000  H
  O55      1.0000 0.80919  0.69682  0.23589  Biso   1.000  O
  O56      1.0000 0.82182  0.72216  0.13781  Biso   1.000  O
  C244     1.0000 0.80982  0.72154  0.19222  Biso   1.000  C
  C245     1.0000 0.79418  0.75290  0.20999  Biso   1.000  C
  C246     1.0000 0.79201  0.78038  0.16447  Biso   1.000  C
  H217     1.0000 0.80100  0.77990  0.12300  Biso   1.000  H
  C247     1.0000 0.77655  0.80820  0.18092  Biso   1.000  C
  H218     1.0000 0.77520  0.82680  0.15010  Biso   1.000  H
  C248     1.0000 0.76322  0.80968  0.24019  Biso   1.000  C
  C249     1.0000 0.76561  0.78245  0.28608  Biso   1.000  C
  H219     1.0000 0.75690  0.78320  0.32770  Biso   1.000  H
  C250     1.0000 0.78121  0.75414  0.26901  Biso   1.000  C
  H220     1.0000 0.78270  0.73540  0.29960  Biso   1.000  H
  C251     1.0000 0.74378  0.83728  0.25801  Biso   1.000  C
  C252     1.0000 0.70662  0.81976  0.29449  Biso   1.000  C
  H221     1.0000 0.69400  0.79000  0.30700  Biso   1.000  H
  H222     1.0000 0.84230  0.94390  0.26730  Biso   1.000  H
  H223     1.0000 0.87710  0.91610  0.16930  Biso   1.000  H
  H224     1.0000 0.87780  0.91590  0.17050  Biso   1.000  H
  O57      1.0000 0.47586  0.03015  0.56922  Biso   1.000  O
  O58      1.0000 0.48849  0.05549  0.47114  Biso   1.000  O
  C253     1.0000 0.47649  0.05487  0.52555  Biso   1.000  C
  C254     1.0000 0.46085  0.08623  0.54332  Biso   1.000  C
  C255     1.0000 0.45868  0.11371  0.49780  Biso   1.000  C
  H225     1.0000 0.46767  0.11323  0.45633  Biso   1.000  H
  C256     1.0000 0.44322  0.14153  0.51425  Biso   1.000  C
  H226     1.0000 0.44187  0.16013  0.48343  Biso   1.000  H
  C257     1.0000 0.42989  0.14301  0.57352  Biso   1.000  C
  C258     1.0000 0.43228  0.11578  0.61941  Biso   1.000  C
  H227     1.0000 0.42357  0.11653  0.66103  Biso   1.000  H
  C259     1.0000 0.44788  0.08747  0.60234  Biso   1.000  C
  H228     1.0000 0.44937  0.06873  0.63293  Biso   1.000  H
  C260     1.0000 0.41045  0.17061  0.59134  Biso   1.000  C
  C261     1.0000 0.37329  0.15309  0.62782  Biso   1.000  C
  H229     1.0000 0.36067  0.12333  0.64033  Biso   1.000  H
  H230     1.0000 0.50897  0.27723  0.60063  Biso   1.000  H
  H231     1.0000 0.54377  0.24943  0.50263  Biso   1.000  H
  H232     1.0000 0.54447  0.24923  0.50383  Biso   1.000  H
  O59      1.0000 0.14252  0.36349  0.90256  Biso   1.000  O
  O60      1.0000 0.15515  0.38883  0.80448  Biso   1.000  O
  C262     1.0000 0.14315  0.38821  0.85889  Biso   1.000  C
  C263     1.0000 0.12751  0.41957  0.87666  Biso   1.000  C
  C264     1.0000 0.12534  0.44705  0.83114  Biso   1.000  C
  H233     1.0000 0.13433  0.44657  0.78967  Biso   1.000  H
  C265     1.0000 0.10988  0.47487  0.84759  Biso   1.000  C
  H234     1.0000 0.10853  0.49347  0.81677  Biso   1.000  H
  C266     1.0000 0.09655  0.47635  0.90686  Biso   1.000  C
  C267     1.0000 0.09894  0.44912  0.95275  Biso   1.000  C
  H235     1.0000 0.09023  0.44987  0.99437  Biso   1.000  H
  C268     1.0000 0.11454  0.42081  0.93568  Biso   1.000  C
  H236     1.0000 0.11603  0.40207  0.96627  Biso   1.000  H
  C269     1.0000 0.07711  0.50395  0.92468  Biso   1.000  C
  C270     1.0000 0.03995  0.48643  0.96116  Biso   1.000  C
  H237     1.0000 0.02733  0.45667  0.97367  Biso   1.000  H
  H238     1.0000 0.17563  0.61057  0.93397  Biso   1.000  H
  H239     1.0000 0.21043  0.58277  0.83597  Biso   1.000  H
  H240     1.0000 0.21113  0.58257  0.83717  Biso   1.000  H
  O61      1.0000 0.88763  0.19081  0.23589  Biso   1.000  O
  O62      1.0000 0.90034  0.17818  0.13781  Biso   1.000  O
  C271     1.0000 0.91172  0.19018  0.19222  Biso   1.000  C
  C272     1.0000 0.95872  0.20582  0.20999  Biso   1.000  C
  C273     1.0000 0.98837  0.20799  0.16447  Biso   1.000  C
  H241     1.0000 0.97890  0.19900  0.12300  Biso   1.000  H
  C274     1.0000 0.03165  0.22345  0.18092  Biso   1.000  C
  H242     1.0000 0.05160  0.22480  0.15010  Biso   1.000  H
  C275     1.0000 0.04646  0.23678  0.24019  Biso   1.000  C
  C276     1.0000 0.01684  0.23439  0.28608  Biso   1.000  C
  H243     1.0000 0.02630  0.24310  0.32770  Biso   1.000  H
  C277     1.0000 0.97293  0.21879  0.26901  Biso   1.000  C
  H244     1.0000 0.95270  0.21730  0.29960  Biso   1.000  H
  C278     1.0000 0.09350  0.25622  0.25801  Biso   1.000  C
  C279     1.0000 0.11314  0.29338  0.29449  Biso   1.000  C
  H245     1.0000 0.09600  0.30600  0.30700  Biso   1.000  H
  H246     1.0000 0.10160  0.15770  0.26730  Biso   1.000  H
  H247     1.0000 0.03900  0.12290  0.16930  Biso   1.000  H
  H248     1.0000 0.03810  0.12220  0.17050  Biso   1.000  H
  O63      1.0000 0.55430  0.52414  0.56922  Biso   1.000  O
  O64      1.0000 0.56701  0.51151  0.47114  Biso   1.000  O
  C280     1.0000 0.57839  0.52351  0.52555  Biso   1.000  C
  C281     1.0000 0.62539  0.53915  0.54332  Biso   1.000  C
  C282     1.0000 0.65504  0.54132  0.49780  Biso   1.000  C
  H249     1.0000 0.64557  0.53233  0.45633  Biso   1.000  H
  C283     1.0000 0.69832  0.55678  0.51425  Biso   1.000  C
  H250     1.0000 0.71827  0.55813  0.48343  Biso   1.000  H
  C284     1.0000 0.71313  0.57011  0.57352  Biso   1.000  C
  C285     1.0000 0.68351  0.56772  0.61941  Biso   1.000  C
  H251     1.0000 0.69297  0.57643  0.66103  Biso   1.000  H
  C286     1.0000 0.63960  0.55212  0.60234  Biso   1.000  C
  H252     1.0000 0.61937  0.55063  0.63293  Biso   1.000  H
  C287     1.0000 0.76017  0.58955  0.59134  Biso   1.000  C
  C288     1.0000 0.77981  0.62671  0.62782  Biso   1.000  C
  H253     1.0000 0.76267  0.63933  0.64033  Biso   1.000  H
  H254     1.0000 0.76827  0.49103  0.60063  Biso   1.000  H
  H255     1.0000 0.70567  0.45623  0.50263  Biso   1.000  H
  H256     1.0000 0.70477  0.45553  0.50383  Biso   1.000  H
  O65      1.0000 0.22096  0.85748  0.90256  Biso   1.000  O
  O66      1.0000 0.23367  0.84485  0.80448  Biso   1.000  O
  C289     1.0000 0.24505  0.85685  0.85889  Biso   1.000  C
  C290     1.0000 0.29205  0.87249  0.87666  Biso   1.000  C
  C291     1.0000 0.32170  0.87466  0.83114  Biso   1.000  C
  H257     1.0000 0.31223  0.86567  0.78967  Biso   1.000  H
  C292     1.0000 0.36498  0.89012  0.84759  Biso   1.000  C
  H258     1.0000 0.38493  0.89147  0.81677  Biso   1.000  H
  C293     1.0000 0.37979  0.90345  0.90686  Biso   1.000  C
  C294     1.0000 0.35017  0.90106  0.95275  Biso   1.000  C
  H259     1.0000 0.35963  0.90977  0.99437  Biso   1.000  H
  C295     1.0000 0.30626  0.88546  0.93568  Biso   1.000  C
  H260     1.0000 0.28603  0.88397  0.96627  Biso   1.000  H
  C296     1.0000 0.42683  0.92289  0.92468  Biso   1.000  C
  C297     1.0000 0.44647  0.96005  0.96116  Biso   1.000  C
  H261     1.0000 0.42933  0.97267  0.97367  Biso   1.000  H
  H262     1.0000 0.43493  0.82437  0.93397  Biso   1.000  H
  H263     1.0000 0.37233  0.78957  0.83597  Biso   1.000  H
  H264     1.0000 0.37143  0.78887  0.83717  Biso   1.000  H
  O67      1.0000 0.30318  0.11237  0.23589  Biso   1.000  O
  O68      1.0000 0.27784  0.09966  0.13781  Biso   1.000  O
  C298     1.0000 0.27846  0.08828  0.19222  Biso   1.000  C
  C299     1.0000 0.24710  0.04128  0.20999  Biso   1.000  C
  C300     1.0000 0.21962  0.01163  0.16447  Biso   1.000  C
  H265     1.0000 0.22010  0.02110  0.12300  Biso   1.000  H
  C301     1.0000 0.19180  0.96835  0.18092  Biso   1.000  C
  H266     1.0000 0.17320  0.94840  0.15010  Biso   1.000  H
  C302     1.0000 0.19032  0.95354  0.24019  Biso   1.000  C
  C303     1.0000 0.21755  0.98316  0.28608  Biso   1.000  C
  H267     1.0000 0.21680  0.97370  0.32770  Biso   1.000  H
  C304     1.0000 0.24586  0.02707  0.26901  Biso   1.000  C
  H268     1.0000 0.26460  0.04730  0.29960  Biso   1.000  H
  C305     1.0000 0.16272  0.90650  0.25801  Biso   1.000  C
  C306     1.0000 0.18024  0.88686  0.29449  Biso   1.000  C
  H269     1.0000 0.21000  0.90400  0.30700  Biso   1.000  H
  H270     1.0000 0.05610  0.89840  0.26730  Biso   1.000  H
  H271     1.0000 0.08390  0.96100  0.16930  Biso   1.000  H
  H272     1.0000 0.08410  0.96190  0.17050  Biso   1.000  H
  O69      1.0000 0.96985  0.44570  0.56922  Biso   1.000  O
  O70      1.0000 0.94451  0.43299  0.47114  Biso   1.000  O
  C307     1.0000 0.94513  0.42161  0.52555  Biso   1.000  C
  C308     1.0000 0.91377  0.37461  0.54332  Biso   1.000  C
  C309     1.0000 0.88629  0.34496  0.49780  Biso   1.000  C
  H273     1.0000 0.88677  0.35443  0.45633  Biso   1.000  H
  C310     1.0000 0.85847  0.30168  0.51425  Biso   1.000  C
  H274     1.0000 0.83987  0.28173  0.48343  Biso   1.000  H
  C311     1.0000 0.85699  0.28687  0.57352  Biso   1.000  C
  C312     1.0000 0.88422  0.31649  0.61941  Biso   1.000  C
  H275     1.0000 0.88347  0.30703  0.66103  Biso   1.000  H
  C313     1.0000 0.91253  0.36040  0.60234  Biso   1.000  C
  H276     1.0000 0.93127  0.38063  0.63293  Biso   1.000  H
  C314     1.0000 0.82939  0.23983  0.59134  Biso   1.000  C
  C315     1.0000 0.84691  0.22019  0.62782  Biso   1.000  C
  H277     1.0000 0.87667  0.23733  0.64033  Biso   1.000  H
  H278     1.0000 0.72277  0.23173  0.60063  Biso   1.000  H
  H279     1.0000 0.75057  0.29433  0.50263  Biso   1.000  H
  H280     1.0000 0.75077  0.29523  0.50383  Biso   1.000  H
  O71      1.0000 0.63651  0.77904  0.90256  Biso   1.000  O
  O72      1.0000 0.61117  0.76633  0.80448  Biso   1.000  O
  C316     1.0000 0.61179  0.75495  0.85889  Biso   1.000  C
  C317     1.0000 0.58043  0.70795  0.87666  Biso   1.000  C
  C318     1.0000 0.55295  0.67830  0.83114  Biso   1.000  C
  H281     1.0000 0.55343  0.68777  0.78967  Biso   1.000  H
  C319     1.0000 0.52513  0.63502  0.84759  Biso   1.000  C
  H282     1.0000 0.50653  0.61507  0.81677  Biso   1.000  H
  C320     1.0000 0.52365  0.62021  0.90686  Biso   1.000  C
  C321     1.0000 0.55088  0.64983  0.95275  Biso   1.000  C
  H283     1.0000 0.55013  0.64037  0.99437  Biso   1.000  H
  C322     1.0000 0.57919  0.69374  0.93568  Biso   1.000  C
  H284     1.0000 0.59793  0.71397  0.96627  Biso   1.000  H
  C323     1.0000 0.49605  0.57317  0.92468  Biso   1.000  C
  C324     1.0000 0.51357  0.55353  0.96116  Biso   1.000  C
  H285     1.0000 0.54333  0.57067  0.97367  Biso   1.000  H
  H286     1.0000 0.38943  0.56507  0.93397  Biso   1.000  H
  H287     1.0000 0.41723  0.62767  0.83597  Biso   1.000  H
  H288     1.0000 0.41743  0.62857  0.83717  Biso   1.000  H
  Cu1      1.0000 0.31879  0.15940  0.10893  Biso   1.000  Cu
  Cu2      1.0000 0.98546  0.49273  0.44226  Biso   1.000  Cu
  Cu3      1.0000 0.65212  0.82606  0.77560  Biso   1.000  Cu
  Cu4      1.0000 0.84060  0.15940  0.10893  Biso   1.000  Cu
  Cu5      1.0000 0.50727  0.49273  0.44226  Biso   1.000  Cu
  Cu6      1.0000 0.17394  0.82606  0.77560  Biso   1.000  Cu
  Cu7      1.0000 0.84060  0.68121  0.10893  Biso   1.000  Cu
  Cu8      1.0000 0.50727  0.01454  0.44226  Biso   1.000  Cu
  Cu9      1.0000 0.17394  0.34788  0.77560  Biso   1.000  Cu
  Cu10     1.0000 0.15939  0.31879  0.89107  Biso   1.000  Cu
  Cu11     1.0000 0.82606  0.65212  0.22440  Biso   1.000  Cu
  Cu12     1.0000 0.49273  0.98546  0.55774  Biso   1.000  Cu
  Cu13     1.0000 0.15940  0.84061  0.89107  Biso   1.000  Cu
  Cu14     1.0000 0.82606  0.17394  0.22440  Biso   1.000  Cu
  Cu15     1.0000 0.49273  0.50727  0.55774  Biso   1.000  Cu
  Cu16     1.0000 0.68121  0.84060  0.89107  Biso   1.000  Cu
  Cu17     1.0000 0.34788  0.17394  0.22440  Biso   1.000  Cu
  Cu18     1.0000 0.01454  0.50727  0.55774  Biso   1.000  Cu
  O73      1.0000 0.10007  0.20013  0.20327  Biso   1.000  O
  C325     1.0000 0.15672  0.31345  0.31400  Biso   1.000  C
  C326     1.0000 0.11847  0.23695  0.24010  Biso   1.000  C
  C327     1.0000 0.07946  0.15893  0.24040  Biso   1.000  C
  C328     1.0000 0.06060  0.12120  0.19620  Biso   1.000  C
  H289     1.0000 0.04680  0.09360  0.21960  Biso   1.000  H
  O74      1.0000 0.76673  0.53346  0.53660  Biso   1.000  O
  C329     1.0000 0.82339  0.64678  0.64733  Biso   1.000  C
  C330     1.0000 0.78514  0.57028  0.57343  Biso   1.000  C
  C331     1.0000 0.74613  0.49226  0.57373  Biso   1.000  C
  C332     1.0000 0.72727  0.45453  0.52953  Biso   1.000  C
  H290     1.0000 0.71347  0.42693  0.55293  Biso   1.000  H
  O75      1.0000 0.43340  0.86680  0.86994  Biso   1.000  O
  C333     1.0000 0.49006  0.98012  0.98067  Biso   1.000  C
  C334     1.0000 0.45181  0.90362  0.90677  Biso   1.000  C
  C335     1.0000 0.41280  0.82560  0.90707  Biso   1.000  C
  C336     1.0000 0.39393  0.78787  0.86287  Biso   1.000  C
  H291     1.0000 0.38013  0.76027  0.88627  Biso   1.000  H
  O76      1.0000 0.79987  0.89993  0.20327  Biso   1.000  O
  C337     1.0000 0.68655  0.84328  0.31400  Biso   1.000  C
  C338     1.0000 0.76305  0.88152  0.24010  Biso   1.000  C
  C339     1.0000 0.84107  0.92053  0.24040  Biso   1.000  C
  C340     1.0000 0.87880  0.93940  0.19620  Biso   1.000  C
  H292     1.0000 0.90640  0.95320  0.21960  Biso   1.000  H
  O77      1.0000 0.46654  0.23327  0.53660  Biso   1.000  O
  C341     1.0000 0.35322  0.17661  0.64733  Biso   1.000  C
  C342     1.0000 0.42972  0.21486  0.57343  Biso   1.000  C
  C343     1.0000 0.50774  0.25387  0.57373  Biso   1.000  C
  C344     1.0000 0.54547  0.27273  0.52953  Biso   1.000  C
  H293     1.0000 0.57307  0.28653  0.55293  Biso   1.000  H
  O78      1.0000 0.13320  0.56660  0.86994  Biso   1.000  O
  C345     1.0000 0.01988  0.50994  0.98067  Biso   1.000  C
  C346     1.0000 0.09638  0.54819  0.90677  Biso   1.000  C
  C347     1.0000 0.17440  0.58720  0.90707  Biso   1.000  C
  C348     1.0000 0.21213  0.60607  0.86287  Biso   1.000  C
  H294     1.0000 0.23973  0.61987  0.88627  Biso   1.000  H
  O79      1.0000 0.10007  0.89994  0.20327  Biso   1.000  O
  C349     1.0000 0.15673  0.84328  0.31400  Biso   1.000  C
  C350     1.0000 0.11848  0.88153  0.24010  Biso   1.000  C
  C351     1.0000 0.07947  0.92054  0.24040  Biso   1.000  C
  C352     1.0000 0.06060  0.93940  0.19620  Biso   1.000  C
  H295     1.0000 0.04680  0.95320  0.21960  Biso   1.000  H
  O80      1.0000 0.76673  0.23327  0.53660  Biso   1.000  O
  C353     1.0000 0.82339  0.17661  0.64733  Biso   1.000  C
  C354     1.0000 0.78514  0.21486  0.57343  Biso   1.000  C
  C355     1.0000 0.74613  0.25387  0.57373  Biso   1.000  C
  C356     1.0000 0.72727  0.27273  0.52953  Biso   1.000  C
  H296     1.0000 0.71347  0.28653  0.55293  Biso   1.000  H
  O81      1.0000 0.43340  0.56660  0.86994  Biso   1.000  O
  C357     1.0000 0.49006  0.50994  0.98067  Biso   1.000  C
  C358     1.0000 0.45181  0.54819  0.90677  Biso   1.000  C
  C359     1.0000 0.41280  0.58720  0.90707  Biso   1.000  C
  C360     1.0000 0.39393  0.60607  0.86287  Biso   1.000  C
  H297     1.0000 0.38013  0.61987  0.88627  Biso   1.000  H
  O82      1.0000 0.20013  0.10007  0.79673  Biso   1.000  O
  C361     1.0000 0.31345  0.15672  0.68600  Biso   1.000  C
  C362     1.0000 0.23695  0.11847  0.75990  Biso   1.000  C
  C363     1.0000 0.15893  0.07947  0.75960  Biso   1.000  C
  C364     1.0000 0.12120  0.06060  0.80380  Biso   1.000  C
  H298     1.0000 0.09360  0.04680  0.78040  Biso   1.000  H
  O83      1.0000 0.86680  0.43340  0.13006  Biso   1.000  O
  C365     1.0000 0.98012  0.49006  0.01933  Biso   1.000  C
  C366     1.0000 0.90362  0.45181  0.09323  Biso   1.000  C
  C367     1.0000 0.82560  0.41280  0.09293  Biso   1.000  C
  C368     1.0000 0.78787  0.39393  0.13713  Biso   1.000  C
  H299     1.0000 0.76027  0.38013  0.11373  Biso   1.000  H
  O84      1.0000 0.53346  0.76673  0.46340  Biso   1.000  O
  C369     1.0000 0.64678  0.82339  0.35267  Biso   1.000  C
  C370     1.0000 0.57028  0.78514  0.42657  Biso   1.000  C
  C371     1.0000 0.49226  0.74613  0.42627  Biso   1.000  C
  C372     1.0000 0.45453  0.72727  0.47047  Biso   1.000  C
  H300     1.0000 0.42693  0.71347  0.44707  Biso   1.000  H
  O85      1.0000 0.89993  0.79987  0.79673  Biso   1.000  O
  C373     1.0000 0.84327  0.68655  0.68600  Biso   1.000  C
  C374     1.0000 0.88152  0.76305  0.75990  Biso   1.000  C
  C375     1.0000 0.92053  0.84107  0.75960  Biso   1.000  C
  C376     1.0000 0.93940  0.87880  0.80380  Biso   1.000  C
  H301     1.0000 0.95320  0.90640  0.78040  Biso   1.000  H
  O86      1.0000 0.56660  0.13320  0.13006  Biso   1.000  O
  C377     1.0000 0.50994  0.01988  0.01933  Biso   1.000  C
  C378     1.0000 0.54819  0.09638  0.09323  Biso   1.000  C
  C379     1.0000 0.58720  0.17440  0.09293  Biso   1.000  C
  C380     1.0000 0.60607  0.21213  0.13713  Biso   1.000  C
  H302     1.0000 0.61987  0.23973  0.11373  Biso   1.000  H
  O87      1.0000 0.23327  0.46654  0.46340  Biso   1.000  O
  C381     1.0000 0.17661  0.35322  0.35267  Biso   1.000  C
  C382     1.0000 0.21486  0.42972  0.42657  Biso   1.000  C
  C383     1.0000 0.25387  0.50774  0.42627  Biso   1.000  C
  C384     1.0000 0.27273  0.54547  0.47047  Biso   1.000  C
  H303     1.0000 0.28653  0.57307  0.44707  Biso   1.000  H
  O88      1.0000 0.89993  0.10007  0.79673  Biso   1.000  O
  C385     1.0000 0.84327  0.15673  0.68600  Biso   1.000  C
  C386     1.0000 0.88152  0.11848  0.75990  Biso   1.000  C
  C387     1.0000 0.92053  0.07947  0.75960  Biso   1.000  C
  C388     1.0000 0.93940  0.06060  0.80380  Biso   1.000  C
  H304     1.0000 0.95320  0.04680  0.78040  Biso   1.000  H
  O89      1.0000 0.56660  0.43340  0.13006  Biso   1.000  O
  C389     1.0000 0.50994  0.49006  0.01933  Biso   1.000  C
  C390     1.0000 0.54819  0.45181  0.09323  Biso   1.000  C
  C391     1.0000 0.58720  0.41280  0.09293  Biso   1.000  C
  C392     1.0000 0.60607  0.39393  0.13713  Biso   1.000  C
  H305     1.0000 0.61987  0.38013  0.11373  Biso   1.000  H
  O90      1.0000 0.23327  0.76673  0.46340  Biso   1.000  O
  C393     1.0000 0.17661  0.82339  0.35267  Biso   1.000  C
  C394     1.0000 0.21486  0.78514  0.42657  Biso   1.000  C
  C395     1.0000 0.25387  0.74613  0.42627  Biso   1.000  C
  C396     1.0000 0.27273  0.72727  0.47047  Biso   1.000  C
  H306     1.0000 0.28653  0.71347  0.44707  Biso   1.000  H
