data_image0
_cell_length_a       35.488
_cell_length_b       35.488
_cell_length_c       19.106
_cell_angle_alpha    90
_cell_angle_beta     90
_cell_angle_gamma    120

_symmetry_space_group_name_H-M    "P 1"
_symmetry_int_tables_number       1

loop_
  _symmetry_equiv_pos_as_xyz
  'x, y, z'

loop_
  _atom_site_label
  _atom_site_occupancy
  _atom_site_fract_x
  _atom_site_fract_y
  _atom_site_fract_z
  _atom_site_thermal_displace_type
  _atom_site_B_iso_or_equiv
  _atom_site_type_symbol
  O1       1.0000 0.30225  0.18972  0.74378  Biso   1.000  O
  O2       1.0000 0.27834  0.17794  0.63272  Biso   1.000  O
  C1       1.0000 0.27794  0.18899  0.69370  Biso   1.000  C
  C2       1.0000 0.24540  0.20258  0.71340  Biso   1.000  C
  C3       1.0000 0.21824  0.20382  0.66220  Biso   1.000  C
  H1       1.0000 0.21960  0.19510  0.61570  Biso   1.000  H
  C4       1.0000 0.18879  0.21804  0.67920  Biso   1.000  C
  H2       1.0000 0.16950  0.21770  0.64450  Biso   1.000  H
  C5       1.0000 0.18767  0.23227  0.74480  Biso   1.000  C
  C6       1.0000 0.21475  0.23065  0.79690  Biso   1.000  C
  H3       1.0000 0.21340  0.23910  0.84360  Biso   1.000  H
  C7       1.0000 0.24393  0.21628  0.77860  Biso   1.000  C
  H4       1.0000 0.26310  0.21620  0.81320  Biso   1.000  H
  C8       1.0000 0.16008  0.25170  0.76350  Biso   1.000  C
  C9       1.0000 0.17868  0.29060  0.79720  Biso   1.000  C
  H5       1.0000 0.20860  0.30390  0.80950  Biso   1.000  H
  O3       1.0000 0.96892  0.52305  0.07711  Biso   1.000  O
  O4       1.0000 0.94501  0.51127  0.96605  Biso   1.000  O
  C10      1.0000 0.94461  0.52232  0.02703  Biso   1.000  C
  C11      1.0000 0.91207  0.53591  0.04673  Biso   1.000  C
  C12      1.0000 0.88491  0.53715  0.99553  Biso   1.000  C
  H6       1.0000 0.88627  0.52843  0.94903  Biso   1.000  H
  C13      1.0000 0.85546  0.55137  0.01253  Biso   1.000  C
  H7       1.0000 0.83617  0.55103  0.97783  Biso   1.000  H
  C14      1.0000 0.85434  0.56560  0.07813  Biso   1.000  C
  C15      1.0000 0.88142  0.56398  0.13023  Biso   1.000  C
  H8       1.0000 0.88007  0.57243  0.17693  Biso   1.000  H
  C16      1.0000 0.91060  0.54961  0.11193  Biso   1.000  C
  H9       1.0000 0.92977  0.54953  0.14653  Biso   1.000  H
  C17      1.0000 0.82675  0.58503  0.09683  Biso   1.000  C
  C18      1.0000 0.84535  0.62393  0.13053  Biso   1.000  C
  H10      1.0000 0.87527  0.63723  0.14283  Biso   1.000  H
  O5       1.0000 0.63558  0.85639  0.41045  Biso   1.000  O
  O6       1.0000 0.61167  0.84461  0.29939  Biso   1.000  O
  C19      1.0000 0.61127  0.85566  0.36037  Biso   1.000  C
  C20      1.0000 0.57873  0.86925  0.38007  Biso   1.000  C
  C21      1.0000 0.55157  0.87049  0.32887  Biso   1.000  C
  H11      1.0000 0.55293  0.86177  0.28237  Biso   1.000  H
  C22      1.0000 0.52212  0.88471  0.34587  Biso   1.000  C
  H12      1.0000 0.50283  0.88437  0.31117  Biso   1.000  H
  C23      1.0000 0.52100  0.89894  0.41147  Biso   1.000  C
  C24      1.0000 0.54808  0.89732  0.46357  Biso   1.000  C
  H13      1.0000 0.54673  0.90577  0.51027  Biso   1.000  H
  C25      1.0000 0.57726  0.88295  0.44527  Biso   1.000  C
  H14      1.0000 0.59643  0.88287  0.47987  Biso   1.000  H
  C26      1.0000 0.49341  0.91837  0.43017  Biso   1.000  C
  C27      1.0000 0.51201  0.95727  0.46387  Biso   1.000  C
  H15      1.0000 0.54193  0.97057  0.47617  Biso   1.000  H
  O7       1.0000 0.81028  0.11253  0.74378  Biso   1.000  O
  O8       1.0000 0.82206  0.10040  0.63272  Biso   1.000  O
  C28      1.0000 0.81101  0.08895  0.69370  Biso   1.000  C
  C29      1.0000 0.79742  0.04282  0.71340  Biso   1.000  C
  C30      1.0000 0.79618  0.01442  0.66220  Biso   1.000  C
  H16      1.0000 0.80490  0.02450  0.61570  Biso   1.000  H
  C31      1.0000 0.78196  0.97075  0.67920  Biso   1.000  C
  H17      1.0000 0.78230  0.95180  0.64450  Biso   1.000  H
  C32      1.0000 0.76773  0.95540  0.74480  Biso   1.000  C
  C33      1.0000 0.76935  0.98410  0.79690  Biso   1.000  C
  H18      1.0000 0.76090  0.97430  0.84360  Biso   1.000  H
  C34      1.0000 0.78372  0.02765  0.77860  Biso   1.000  C
  H19      1.0000 0.78380  0.04690  0.81320  Biso   1.000  H
  C35      1.0000 0.74830  0.90838  0.76350  Biso   1.000  C
  C36      1.0000 0.70940  0.88808  0.79720  Biso   1.000  C
  H20      1.0000 0.69610  0.90470  0.80950  Biso   1.000  H
  O9       1.0000 0.47695  0.44586  0.07711  Biso   1.000  O
  O10      1.0000 0.48873  0.43373  0.96605  Biso   1.000  O
  C37      1.0000 0.47768  0.42228  0.02703  Biso   1.000  C
  C38      1.0000 0.46409  0.37615  0.04673  Biso   1.000  C
  C39      1.0000 0.46285  0.34775  0.99553  Biso   1.000  C
  H21      1.0000 0.47157  0.35783  0.94903  Biso   1.000  H
  C40      1.0000 0.44863  0.30408  0.01253  Biso   1.000  C
  H22      1.0000 0.44897  0.28513  0.97783  Biso   1.000  H
  C41      1.0000 0.43440  0.28873  0.07813  Biso   1.000  C
  C42      1.0000 0.43602  0.31743  0.13023  Biso   1.000  C
  H23      1.0000 0.42757  0.30763  0.17693  Biso   1.000  H
  C43      1.0000 0.45039  0.36098  0.11193  Biso   1.000  C
  H24      1.0000 0.45047  0.38023  0.14653  Biso   1.000  H
  C44      1.0000 0.41497  0.24171  0.09683  Biso   1.000  C
  C45      1.0000 0.37607  0.22141  0.13053  Biso   1.000  C
  H25      1.0000 0.36277  0.23803  0.14283  Biso   1.000  H
  O11      1.0000 0.14361  0.77920  0.41045  Biso   1.000  O
  O12      1.0000 0.15539  0.76707  0.29939  Biso   1.000  O
  C46      1.0000 0.14434  0.75562  0.36037  Biso   1.000  C
  C47      1.0000 0.13075  0.70949  0.38007  Biso   1.000  C
  C48      1.0000 0.12951  0.68109  0.32887  Biso   1.000  C
  H26      1.0000 0.13823  0.69117  0.28237  Biso   1.000  H
  C49      1.0000 0.11529  0.63742  0.34587  Biso   1.000  C
  H27      1.0000 0.11563  0.61847  0.31117  Biso   1.000  H
  C50      1.0000 0.10106  0.62207  0.41147  Biso   1.000  C
  C51      1.0000 0.10268  0.65077  0.46357  Biso   1.000  C
  H28      1.0000 0.09423  0.64097  0.51027  Biso   1.000  H
  C52      1.0000 0.11705  0.69432  0.44527  Biso   1.000  C
  H29      1.0000 0.11713  0.71357  0.47987  Biso   1.000  H
  C53      1.0000 0.08163  0.57505  0.43017  Biso   1.000  C
  C54      1.0000 0.04273  0.55475  0.46387  Biso   1.000  C
  H30      1.0000 0.02943  0.57137  0.47617  Biso   1.000  H
  O13      1.0000 0.88747  0.69775  0.74378  Biso   1.000  O
  O14      1.0000 0.89960  0.72166  0.63272  Biso   1.000  O
  C55      1.0000 0.91105  0.72206  0.69370  Biso   1.000  C
  C56      1.0000 0.95718  0.75460  0.71340  Biso   1.000  C
  C57      1.0000 0.98558  0.78176  0.66220  Biso   1.000  C
  H31      1.0000 0.97550  0.78040  0.61570  Biso   1.000  H
  C58      1.0000 0.02925  0.81121  0.67920  Biso   1.000  C
  H32      1.0000 0.04820  0.83050  0.64450  Biso   1.000  H
  C59      1.0000 0.04460  0.81233  0.74480  Biso   1.000  C
  C60      1.0000 0.01590  0.78525  0.79690  Biso   1.000  C
  H33      1.0000 0.02570  0.78660  0.84360  Biso   1.000  H
  C61      1.0000 0.97235  0.75607  0.77860  Biso   1.000  C
  H34      1.0000 0.95310  0.73690  0.81320  Biso   1.000  H
  C62      1.0000 0.09162  0.83992  0.76350  Biso   1.000  C
  C63      1.0000 0.11192  0.82132  0.79720  Biso   1.000  C
  H35      1.0000 0.09530  0.79140  0.80950  Biso   1.000  H
  O15      1.0000 0.55414  0.03108  0.07711  Biso   1.000  O
  O16      1.0000 0.56627  0.05499  0.96605  Biso   1.000  O
  C64      1.0000 0.57772  0.05539  0.02703  Biso   1.000  C
  C65      1.0000 0.62385  0.08793  0.04673  Biso   1.000  C
  C66      1.0000 0.65225  0.11509  0.99553  Biso   1.000  C
  H36      1.0000 0.64217  0.11373  0.94903  Biso   1.000  H
  C67      1.0000 0.69592  0.14454  0.01253  Biso   1.000  C
  H37      1.0000 0.71487  0.16383  0.97783  Biso   1.000  H
  C68      1.0000 0.71127  0.14566  0.07813  Biso   1.000  C
  C69      1.0000 0.68257  0.11858  0.13023  Biso   1.000  C
  H38      1.0000 0.69237  0.11993  0.17693  Biso   1.000  H
  C70      1.0000 0.63902  0.08940  0.11193  Biso   1.000  C
  H39      1.0000 0.61977  0.07023  0.14653  Biso   1.000  H
  C71      1.0000 0.75829  0.17325  0.09683  Biso   1.000  C
  C72      1.0000 0.77859  0.15465  0.13053  Biso   1.000  C
  H40      1.0000 0.76197  0.12473  0.14283  Biso   1.000  H
  O17      1.0000 0.22080  0.36442  0.41045  Biso   1.000  O
  O18      1.0000 0.23293  0.38833  0.29939  Biso   1.000  O
  C73      1.0000 0.24438  0.38873  0.36037  Biso   1.000  C
  C74      1.0000 0.29051  0.42127  0.38007  Biso   1.000  C
  C75      1.0000 0.31891  0.44843  0.32887  Biso   1.000  C
  H41      1.0000 0.30883  0.44707  0.28237  Biso   1.000  H
  C76      1.0000 0.36258  0.47788  0.34587  Biso   1.000  C
  H42      1.0000 0.38153  0.49717  0.31117  Biso   1.000  H
  C77      1.0000 0.37793  0.47900  0.41147  Biso   1.000  C
  C78      1.0000 0.34923  0.45192  0.46357  Biso   1.000  C
  H43      1.0000 0.35903  0.45327  0.51027  Biso   1.000  H
  C79      1.0000 0.30568  0.42274  0.44527  Biso   1.000  C
  H44      1.0000 0.28643  0.40357  0.47987  Biso   1.000  H
  C80      1.0000 0.42495  0.50659  0.43017  Biso   1.000  C
  C81      1.0000 0.44525  0.48799  0.46387  Biso   1.000  C
  H45      1.0000 0.42863  0.45807  0.47617  Biso   1.000  H
  O19      1.0000 0.18972  0.30225  0.25622  Biso   1.000  O
  O20      1.0000 0.17794  0.27834  0.36728  Biso   1.000  O
  C82      1.0000 0.18899  0.27794  0.30630  Biso   1.000  C
  C83      1.0000 0.20258  0.24540  0.28660  Biso   1.000  C
  C84      1.0000 0.20382  0.21824  0.33780  Biso   1.000  C
  H46      1.0000 0.19510  0.21960  0.38430  Biso   1.000  H
  C85      1.0000 0.21804  0.18879  0.32080  Biso   1.000  C
  H47      1.0000 0.21770  0.16950  0.35550  Biso   1.000  H
  C86      1.0000 0.23227  0.18767  0.25520  Biso   1.000  C
  C87      1.0000 0.23065  0.21475  0.20310  Biso   1.000  C
  H48      1.0000 0.23910  0.21340  0.15640  Biso   1.000  H
  C88      1.0000 0.21628  0.24393  0.22140  Biso   1.000  C
  H49      1.0000 0.21620  0.26310  0.18680  Biso   1.000  H
  C89      1.0000 0.25170  0.16008  0.23650  Biso   1.000  C
  C90      1.0000 0.29060  0.17868  0.20280  Biso   1.000  C
  H50      1.0000 0.30390  0.20860  0.19050  Biso   1.000  H
  O21      1.0000 0.85639  0.63558  0.58955  Biso   1.000  O
  O22      1.0000 0.84461  0.61167  0.70061  Biso   1.000  O
  C91      1.0000 0.85566  0.61127  0.63963  Biso   1.000  C
  C92      1.0000 0.86925  0.57873  0.61993  Biso   1.000  C
  C93      1.0000 0.87049  0.55157  0.67113  Biso   1.000  C
  H51      1.0000 0.86177  0.55293  0.71763  Biso   1.000  H
  C94      1.0000 0.88471  0.52212  0.65413  Biso   1.000  C
  H52      1.0000 0.88437  0.50283  0.68883  Biso   1.000  H
  C95      1.0000 0.89894  0.52100  0.58853  Biso   1.000  C
  C96      1.0000 0.89732  0.54808  0.53643  Biso   1.000  C
  H53      1.0000 0.90577  0.54673  0.48973  Biso   1.000  H
  C97      1.0000 0.88295  0.57726  0.55473  Biso   1.000  C
  H54      1.0000 0.88287  0.59643  0.52013  Biso   1.000  H
  C98      1.0000 0.91837  0.49341  0.56983  Biso   1.000  C
  C99      1.0000 0.95727  0.51201  0.53613  Biso   1.000  C
  H55      1.0000 0.97057  0.54193  0.52383  Biso   1.000  H
  O23      1.0000 0.52305  0.96892  0.92289  Biso   1.000  O
  O24      1.0000 0.51127  0.94501  0.03395  Biso   1.000  O
  C100     1.0000 0.52232  0.94461  0.97297  Biso   1.000  C
  C101     1.0000 0.53591  0.91207  0.95327  Biso   1.000  C
  C102     1.0000 0.53715  0.88491  0.00447  Biso   1.000  C
  H56      1.0000 0.52843  0.88627  0.05097  Biso   1.000  H
  C103     1.0000 0.55137  0.85546  0.98747  Biso   1.000  C
  H57      1.0000 0.55103  0.83617  0.02217  Biso   1.000  H
  C104     1.0000 0.56560  0.85434  0.92187  Biso   1.000  C
  C105     1.0000 0.56398  0.88142  0.86977  Biso   1.000  C
  H58      1.0000 0.57243  0.88007  0.82307  Biso   1.000  H
  C106     1.0000 0.54961  0.91060  0.88807  Biso   1.000  C
  H59      1.0000 0.54953  0.92977  0.85347  Biso   1.000  H
  C107     1.0000 0.58503  0.82675  0.90317  Biso   1.000  C
  C108     1.0000 0.62393  0.84535  0.86947  Biso   1.000  C
  H60      1.0000 0.63723  0.87527  0.85717  Biso   1.000  H
  O25      1.0000 0.11253  0.81028  0.25622  Biso   1.000  O
  O26      1.0000 0.10040  0.82206  0.36728  Biso   1.000  O
  C109     1.0000 0.08895  0.81101  0.30630  Biso   1.000  C
  C110     1.0000 0.04282  0.79742  0.28660  Biso   1.000  C
  C111     1.0000 0.01442  0.79618  0.33780  Biso   1.000  C
  H61      1.0000 0.02450  0.80490  0.38430  Biso   1.000  H
  C112     1.0000 0.97075  0.78196  0.32080  Biso   1.000  C
  H62      1.0000 0.95180  0.78230  0.35550  Biso   1.000  H
  C113     1.0000 0.95540  0.76773  0.25520  Biso   1.000  C
  C114     1.0000 0.98410  0.76935  0.20310  Biso   1.000  C
  H63      1.0000 0.97430  0.76090  0.15640  Biso   1.000  H
  C115     1.0000 0.02765  0.78372  0.22140  Biso   1.000  C
  H64      1.0000 0.04690  0.78380  0.18680  Biso   1.000  H
  C116     1.0000 0.90838  0.74830  0.23650  Biso   1.000  C
  C117     1.0000 0.88808  0.70940  0.20280  Biso   1.000  C
  H65      1.0000 0.90470  0.69610  0.19050  Biso   1.000  H
  O27      1.0000 0.77920  0.14361  0.58955  Biso   1.000  O
  O28      1.0000 0.76707  0.15539  0.70061  Biso   1.000  O
  C118     1.0000 0.75562  0.14434  0.63963  Biso   1.000  C
  C119     1.0000 0.70949  0.13075  0.61993  Biso   1.000  C
  C120     1.0000 0.68109  0.12951  0.67113  Biso   1.000  C
  H66      1.0000 0.69117  0.13823  0.71763  Biso   1.000  H
  C121     1.0000 0.63742  0.11529  0.65413  Biso   1.000  C
  H67      1.0000 0.61847  0.11563  0.68883  Biso   1.000  H
  C122     1.0000 0.62207  0.10106  0.58853  Biso   1.000  C
  C123     1.0000 0.65077  0.10268  0.53643  Biso   1.000  C
  H68      1.0000 0.64097  0.09423  0.48973  Biso   1.000  H
  C124     1.0000 0.69432  0.11705  0.55473  Biso   1.000  C
  H69      1.0000 0.71357  0.11713  0.52013  Biso   1.000  H
  C125     1.0000 0.57505  0.08163  0.56983  Biso   1.000  C
  C126     1.0000 0.55475  0.04273  0.53613  Biso   1.000  C
  H70      1.0000 0.57137  0.02943  0.52383  Biso   1.000  H
  O29      1.0000 0.44586  0.47695  0.92289  Biso   1.000  O
  O30      1.0000 0.43373  0.48873  0.03395  Biso   1.000  O
  C127     1.0000 0.42228  0.47768  0.97297  Biso   1.000  C
  C128     1.0000 0.37615  0.46409  0.95327  Biso   1.000  C
  C129     1.0000 0.34775  0.46285  0.00447  Biso   1.000  C
  H71      1.0000 0.35783  0.47157  0.05097  Biso   1.000  H
  C130     1.0000 0.30408  0.44863  0.98747  Biso   1.000  C
  H72      1.0000 0.28513  0.44897  0.02217  Biso   1.000  H
  C131     1.0000 0.28873  0.43440  0.92187  Biso   1.000  C
  C132     1.0000 0.31743  0.43602  0.86977  Biso   1.000  C
  H73      1.0000 0.30763  0.42757  0.82307  Biso   1.000  H
  C133     1.0000 0.36098  0.45039  0.88807  Biso   1.000  C
  H74      1.0000 0.38023  0.45047  0.85347  Biso   1.000  H
  C134     1.0000 0.24171  0.41497  0.90317  Biso   1.000  C
  C135     1.0000 0.22141  0.37607  0.86947  Biso   1.000  C
  H75      1.0000 0.23803  0.36277  0.85717  Biso   1.000  H
  O31      1.0000 0.69775  0.88747  0.25622  Biso   1.000  O
  O32      1.0000 0.72166  0.89960  0.36728  Biso   1.000  O
  C136     1.0000 0.72206  0.91105  0.30630  Biso   1.000  C
  C137     1.0000 0.75460  0.95718  0.28660  Biso   1.000  C
  C138     1.0000 0.78176  0.98558  0.33780  Biso   1.000  C
  H76      1.0000 0.78040  0.97550  0.38430  Biso   1.000  H
  C139     1.0000 0.81121  0.02925  0.32080  Biso   1.000  C
  H77      1.0000 0.83050  0.04820  0.35550  Biso   1.000  H
  C140     1.0000 0.81233  0.04460  0.25520  Biso   1.000  C
  C141     1.0000 0.78525  0.01590  0.20310  Biso   1.000  C
  H78      1.0000 0.78660  0.02570  0.15640  Biso   1.000  H
  C142     1.0000 0.75607  0.97235  0.22140  Biso   1.000  C
  H79      1.0000 0.73690  0.95310  0.18680  Biso   1.000  H
  C143     1.0000 0.83992  0.09162  0.23650  Biso   1.000  C
  C144     1.0000 0.82132  0.11192  0.20280  Biso   1.000  C
  H80      1.0000 0.79140  0.09530  0.19050  Biso   1.000  H
  O33      1.0000 0.36442  0.22080  0.58955  Biso   1.000  O
  O34      1.0000 0.38833  0.23293  0.70061  Biso   1.000  O
  C145     1.0000 0.38873  0.24438  0.63963  Biso   1.000  C
  C146     1.0000 0.42127  0.29051  0.61993  Biso   1.000  C
  C147     1.0000 0.44843  0.31891  0.67113  Biso   1.000  C
  H81      1.0000 0.44707  0.30883  0.71763  Biso   1.000  H
  C148     1.0000 0.47788  0.36258  0.65413  Biso   1.000  C
  H82      1.0000 0.49717  0.38153  0.68883  Biso   1.000  H
  C149     1.0000 0.47900  0.37793  0.58853  Biso   1.000  C
  C150     1.0000 0.45192  0.34923  0.53643  Biso   1.000  C
  H83      1.0000 0.45327  0.35903  0.48973  Biso   1.000  H
  C151     1.0000 0.42274  0.30568  0.55473  Biso   1.000  C
  H84      1.0000 0.40357  0.28643  0.52013  Biso   1.000  H
  C152     1.0000 0.50659  0.42495  0.56983  Biso   1.000  C
  C153     1.0000 0.48799  0.44525  0.53613  Biso   1.000  C
  H85      1.0000 0.45807  0.42863  0.52383  Biso   1.000  H
  O35      1.0000 0.03108  0.55414  0.92289  Biso   1.000  O
  O36      1.0000 0.05499  0.56627  0.03395  Biso   1.000  O
  C154     1.0000 0.05539  0.57772  0.97297  Biso   1.000  C
  C155     1.0000 0.08793  0.62385  0.95327  Biso   1.000  C
  C156     1.0000 0.11509  0.65225  0.00447  Biso   1.000  C
  H86      1.0000 0.11373  0.64217  0.05097  Biso   1.000  H
  C157     1.0000 0.14454  0.69592  0.98747  Biso   1.000  C
  H87      1.0000 0.16383  0.71487  0.02217  Biso   1.000  H
  C158     1.0000 0.14566  0.71127  0.92187  Biso   1.000  C
  C159     1.0000 0.11858  0.68257  0.86977  Biso   1.000  C
  H88      1.0000 0.11993  0.69237  0.82307  Biso   1.000  H
  C160     1.0000 0.08940  0.63902  0.88807  Biso   1.000  C
  H89      1.0000 0.07023  0.61977  0.85347  Biso   1.000  H
  C161     1.0000 0.17325  0.75829  0.90317  Biso   1.000  C
  C162     1.0000 0.15465  0.77859  0.86947  Biso   1.000  C
  H90      1.0000 0.12473  0.76197  0.85717  Biso   1.000  H
  O37      1.0000 0.69775  0.81028  0.25622  Biso   1.000  O
  O38      1.0000 0.72166  0.82206  0.36728  Biso   1.000  O
  C163     1.0000 0.72206  0.81101  0.30630  Biso   1.000  C
  C164     1.0000 0.75460  0.79742  0.28660  Biso   1.000  C
  C165     1.0000 0.78176  0.79618  0.33780  Biso   1.000  C
  H91      1.0000 0.78040  0.80490  0.38430  Biso   1.000  H
  C166     1.0000 0.81121  0.78196  0.32080  Biso   1.000  C
  H92      1.0000 0.83050  0.78230  0.35550  Biso   1.000  H
  C167     1.0000 0.81233  0.76773  0.25520  Biso   1.000  C
  C168     1.0000 0.78525  0.76935  0.20310  Biso   1.000  C
  H93      1.0000 0.78660  0.76090  0.15640  Biso   1.000  H
  C169     1.0000 0.75607  0.78372  0.22140  Biso   1.000  C
  H94      1.0000 0.73690  0.78380  0.18680  Biso   1.000  H
  C170     1.0000 0.83992  0.74830  0.23650  Biso   1.000  C
  C171     1.0000 0.82132  0.70940  0.20280  Biso   1.000  C
  H95      1.0000 0.79140  0.69610  0.19050  Biso   1.000  H
  O39      1.0000 0.36442  0.14361  0.58955  Biso   1.000  O
  O40      1.0000 0.38833  0.15539  0.70061  Biso   1.000  O
  C172     1.0000 0.38873  0.14434  0.63963  Biso   1.000  C
  C173     1.0000 0.42127  0.13075  0.61993  Biso   1.000  C
  C174     1.0000 0.44843  0.12951  0.67113  Biso   1.000  C
  H96      1.0000 0.44707  0.13823  0.71763  Biso   1.000  H
  C175     1.0000 0.47788  0.11529  0.65413  Biso   1.000  C
  H97      1.0000 0.49717  0.11563  0.68883  Biso   1.000  H
  C176     1.0000 0.47900  0.10106  0.58853  Biso   1.000  C
  C177     1.0000 0.45192  0.10268  0.53643  Biso   1.000  C
  H98      1.0000 0.45327  0.09423  0.48973  Biso   1.000  H
  C178     1.0000 0.42274  0.11705  0.55473  Biso   1.000  C
  H99      1.0000 0.40357  0.11713  0.52013  Biso   1.000  H
  C179     1.0000 0.50659  0.08163  0.56983  Biso   1.000  C
  C180     1.0000 0.48799  0.04273  0.53613  Biso   1.000  C
  H100     1.0000 0.45807  0.02943  0.52383  Biso   1.000  H
  O41      1.0000 0.03108  0.47695  0.92289  Biso   1.000  O
  O42      1.0000 0.05499  0.48873  0.03395  Biso   1.000  O
  C181     1.0000 0.05539  0.47768  0.97297  Biso   1.000  C
  C182     1.0000 0.08793  0.46409  0.95327  Biso   1.000  C
  C183     1.0000 0.11509  0.46285  0.00447  Biso   1.000  C
  H101     1.0000 0.11373  0.47157  0.05097  Biso   1.000  H
  C184     1.0000 0.14454  0.44863  0.98747  Biso   1.000  C
  H102     1.0000 0.16383  0.44897  0.02217  Biso   1.000  H
  C185     1.0000 0.14566  0.43440  0.92187  Biso   1.000  C
  C186     1.0000 0.11858  0.43602  0.86977  Biso   1.000  C
  H103     1.0000 0.11993  0.42757  0.82307  Biso   1.000  H
  C187     1.0000 0.08940  0.45039  0.88807  Biso   1.000  C
  H104     1.0000 0.07023  0.45047  0.85347  Biso   1.000  H
  C188     1.0000 0.17325  0.41497  0.90317  Biso   1.000  C
  C189     1.0000 0.15465  0.37607  0.86947  Biso   1.000  C
  H105     1.0000 0.12473  0.36277  0.85717  Biso   1.000  H
  O43      1.0000 0.18972  0.88747  0.25622  Biso   1.000  O
  O44      1.0000 0.17794  0.89960  0.36728  Biso   1.000  O
  C190     1.0000 0.18899  0.91105  0.30630  Biso   1.000  C
  C191     1.0000 0.20258  0.95718  0.28660  Biso   1.000  C
  C192     1.0000 0.20382  0.98558  0.33780  Biso   1.000  C
  H106     1.0000 0.19510  0.97550  0.38430  Biso   1.000  H
  C193     1.0000 0.21804  0.02925  0.32080  Biso   1.000  C
  H107     1.0000 0.21770  0.04820  0.35550  Biso   1.000  H
  C194     1.0000 0.23227  0.04460  0.25520  Biso   1.000  C
  C195     1.0000 0.23065  0.01590  0.20310  Biso   1.000  C
  H108     1.0000 0.23910  0.02570  0.15640  Biso   1.000  H
  C196     1.0000 0.21628  0.97235  0.22140  Biso   1.000  C
  H109     1.0000 0.21620  0.95310  0.18680  Biso   1.000  H
  C197     1.0000 0.25170  0.09162  0.23650  Biso   1.000  C
  C198     1.0000 0.29060  0.11192  0.20280  Biso   1.000  C
  H110     1.0000 0.30390  0.09530  0.19050  Biso   1.000  H
  O45      1.0000 0.85639  0.22080  0.58955  Biso   1.000  O
  O46      1.0000 0.84461  0.23293  0.70061  Biso   1.000  O
  C199     1.0000 0.85566  0.24438  0.63963  Biso   1.000  C
  C200     1.0000 0.86925  0.29051  0.61993  Biso   1.000  C
  C201     1.0000 0.87049  0.31891  0.67113  Biso   1.000  C
  H111     1.0000 0.86177  0.30883  0.71763  Biso   1.000  H
  C202     1.0000 0.88471  0.36258  0.65413  Biso   1.000  C
  H112     1.0000 0.88437  0.38153  0.68883  Biso   1.000  H
  C203     1.0000 0.89894  0.37793  0.58853  Biso   1.000  C
  C204     1.0000 0.89732  0.34923  0.53643  Biso   1.000  C
  H113     1.0000 0.90577  0.35903  0.48973  Biso   1.000  H
  C205     1.0000 0.88295  0.30568  0.55473  Biso   1.000  C
  H114     1.0000 0.88287  0.28643  0.52013  Biso   1.000  H
  C206     1.0000 0.91837  0.42495  0.56983  Biso   1.000  C
  C207     1.0000 0.95727  0.44525  0.53613  Biso   1.000  C
  H115     1.0000 0.97057  0.42863  0.52383  Biso   1.000  H
  O47      1.0000 0.52305  0.55414  0.92289  Biso   1.000  O
  O48      1.0000 0.51127  0.56627  0.03395  Biso   1.000  O
  C208     1.0000 0.52232  0.57772  0.97297  Biso   1.000  C
  C209     1.0000 0.53591  0.62385  0.95327  Biso   1.000  C
  C210     1.0000 0.53715  0.65225  0.00447  Biso   1.000  C
  H116     1.0000 0.52843  0.64217  0.05097  Biso   1.000  H
  C211     1.0000 0.55137  0.69592  0.98747  Biso   1.000  C
  H117     1.0000 0.55103  0.71487  0.02217  Biso   1.000  H
  C212     1.0000 0.56560  0.71127  0.92187  Biso   1.000  C
  C213     1.0000 0.56398  0.68257  0.86977  Biso   1.000  C
  H118     1.0000 0.57243  0.69237  0.82307  Biso   1.000  H
  C214     1.0000 0.54961  0.63902  0.88807  Biso   1.000  C
  H119     1.0000 0.54953  0.61977  0.85347  Biso   1.000  H
  C215     1.0000 0.58503  0.75829  0.90317  Biso   1.000  C
  C216     1.0000 0.62393  0.77859  0.86947  Biso   1.000  C
  H120     1.0000 0.63723  0.76197  0.85717  Biso   1.000  H
  O49      1.0000 0.11253  0.30225  0.25622  Biso   1.000  O
  O50      1.0000 0.10040  0.27834  0.36728  Biso   1.000  O
  C217     1.0000 0.08895  0.27794  0.30630  Biso   1.000  C
  C218     1.0000 0.04282  0.24540  0.28660  Biso   1.000  C
  C219     1.0000 0.01442  0.21824  0.33780  Biso   1.000  C
  H121     1.0000 0.02450  0.21960  0.38430  Biso   1.000  H
  C220     1.0000 0.97075  0.18879  0.32080  Biso   1.000  C
  H122     1.0000 0.95180  0.16950  0.35550  Biso   1.000  H
  C221     1.0000 0.95540  0.18767  0.25520  Biso   1.000  C
  C222     1.0000 0.98410  0.21475  0.20310  Biso   1.000  C
  H123     1.0000 0.97430  0.21340  0.15640  Biso   1.000  H
  C223     1.0000 0.02765  0.24393  0.22140  Biso   1.000  C
  H124     1.0000 0.04690  0.26310  0.18680  Biso   1.000  H
  C224     1.0000 0.90838  0.16008  0.23650  Biso   1.000  C
  C225     1.0000 0.88808  0.17868  0.20280  Biso   1.000  C
  H125     1.0000 0.90470  0.20860  0.19050  Biso   1.000  H
  O51      1.0000 0.77920  0.63558  0.58955  Biso   1.000  O
  O52      1.0000 0.76707  0.61167  0.70061  Biso   1.000  O
  C226     1.0000 0.75562  0.61127  0.63963  Biso   1.000  C
  C227     1.0000 0.70949  0.57873  0.61993  Biso   1.000  C
  C228     1.0000 0.68109  0.55157  0.67113  Biso   1.000  C
  H126     1.0000 0.69117  0.55293  0.71763  Biso   1.000  H
  C229     1.0000 0.63742  0.52212  0.65413  Biso   1.000  C
  H127     1.0000 0.61847  0.50283  0.68883  Biso   1.000  H
  C230     1.0000 0.62207  0.52100  0.58853  Biso   1.000  C
  C231     1.0000 0.65077  0.54808  0.53643  Biso   1.000  C
  H128     1.0000 0.64097  0.54673  0.48973  Biso   1.000  H
  C232     1.0000 0.69432  0.57726  0.55473  Biso   1.000  C
  H129     1.0000 0.71357  0.59643  0.52013  Biso   1.000  H
  C233     1.0000 0.57505  0.49341  0.56983  Biso   1.000  C
  C234     1.0000 0.55475  0.51201  0.53613  Biso   1.000  C
  H130     1.0000 0.57137  0.54193  0.52383  Biso   1.000  H
  O53      1.0000 0.44586  0.96892  0.92289  Biso   1.000  O
  O54      1.0000 0.43373  0.94501  0.03395  Biso   1.000  O
  C235     1.0000 0.42228  0.94461  0.97297  Biso   1.000  C
  C236     1.0000 0.37615  0.91207  0.95327  Biso   1.000  C
  C237     1.0000 0.34775  0.88491  0.00447  Biso   1.000  C
  H131     1.0000 0.35783  0.88627  0.05097  Biso   1.000  H
  C238     1.0000 0.30408  0.85546  0.98747  Biso   1.000  C
  H132     1.0000 0.28513  0.83617  0.02217  Biso   1.000  H
  C239     1.0000 0.28873  0.85434  0.92187  Biso   1.000  C
  C240     1.0000 0.31743  0.88142  0.86977  Biso   1.000  C
  H133     1.0000 0.30763  0.88007  0.82307  Biso   1.000  H
  C241     1.0000 0.36098  0.91060  0.88807  Biso   1.000  C
  H134     1.0000 0.38023  0.92977  0.85347  Biso   1.000  H
  C242     1.0000 0.24171  0.82675  0.90317  Biso   1.000  C
  C243     1.0000 0.22141  0.84535  0.86947  Biso   1.000  C
  H135     1.0000 0.23803  0.87527  0.85717  Biso   1.000  H
  O55      1.0000 0.81028  0.69775  0.74378  Biso   1.000  O
  O56      1.0000 0.82206  0.72166  0.63272  Biso   1.000  O
  C244     1.0000 0.81101  0.72206  0.69370  Biso   1.000  C
  C245     1.0000 0.79742  0.75460  0.71340  Biso   1.000  C
  C246     1.0000 0.79618  0.78176  0.66220  Biso   1.000  C
  H136     1.0000 0.80490  0.78040  0.61570  Biso   1.000  H
  C247     1.0000 0.78196  0.81121  0.67920  Biso   1.000  C
  H137     1.0000 0.78230  0.83050  0.64450  Biso   1.000  H
  C248     1.0000 0.76773  0.81233  0.74480  Biso   1.000  C
  C249     1.0000 0.76935  0.78525  0.79690  Biso   1.000  C
  H138     1.0000 0.76090  0.78660  0.84360  Biso   1.000  H
  C250     1.0000 0.78372  0.75607  0.77860  Biso   1.000  C
  H139     1.0000 0.78380  0.73690  0.81320  Biso   1.000  H
  C251     1.0000 0.74830  0.83992  0.76350  Biso   1.000  C
  C252     1.0000 0.70940  0.82132  0.79720  Biso   1.000  C
  H140     1.0000 0.69610  0.79140  0.80950  Biso   1.000  H
  O57      1.0000 0.47695  0.03108  0.07711  Biso   1.000  O
  O58      1.0000 0.48873  0.05499  0.96605  Biso   1.000  O
  C253     1.0000 0.47768  0.05539  0.02703  Biso   1.000  C
  C254     1.0000 0.46409  0.08793  0.04673  Biso   1.000  C
  C255     1.0000 0.46285  0.11509  0.99553  Biso   1.000  C
  H141     1.0000 0.47157  0.11373  0.94903  Biso   1.000  H
  C256     1.0000 0.44863  0.14454  0.01253  Biso   1.000  C
  H142     1.0000 0.44897  0.16383  0.97783  Biso   1.000  H
  C257     1.0000 0.43440  0.14566  0.07813  Biso   1.000  C
  C258     1.0000 0.43602  0.11858  0.13023  Biso   1.000  C
  H143     1.0000 0.42757  0.11993  0.17693  Biso   1.000  H
  C259     1.0000 0.45039  0.08940  0.11193  Biso   1.000  C
  H144     1.0000 0.45047  0.07023  0.14653  Biso   1.000  H
  C260     1.0000 0.41497  0.17325  0.09683  Biso   1.000  C
  C261     1.0000 0.37607  0.15465  0.13053  Biso   1.000  C
  H145     1.0000 0.36277  0.12473  0.14283  Biso   1.000  H
  O59      1.0000 0.14361  0.36442  0.41045  Biso   1.000  O
  O60      1.0000 0.15539  0.38833  0.29939  Biso   1.000  O
  C262     1.0000 0.14434  0.38873  0.36037  Biso   1.000  C
  C263     1.0000 0.13075  0.42127  0.38007  Biso   1.000  C
  C264     1.0000 0.12951  0.44843  0.32887  Biso   1.000  C
  H146     1.0000 0.13823  0.44707  0.28237  Biso   1.000  H
  C265     1.0000 0.11529  0.47788  0.34587  Biso   1.000  C
  H147     1.0000 0.11563  0.49717  0.31117  Biso   1.000  H
  C266     1.0000 0.10106  0.47900  0.41147  Biso   1.000  C
  C267     1.0000 0.10268  0.45192  0.46357  Biso   1.000  C
  H148     1.0000 0.09423  0.45327  0.51027  Biso   1.000  H
  C268     1.0000 0.11705  0.42274  0.44527  Biso   1.000  C
  H149     1.0000 0.11713  0.40357  0.47987  Biso   1.000  H
  C269     1.0000 0.08163  0.50659  0.43017  Biso   1.000  C
  C270     1.0000 0.04273  0.48799  0.46387  Biso   1.000  C
  H150     1.0000 0.02943  0.45807  0.47617  Biso   1.000  H
  O61      1.0000 0.88747  0.18972  0.74378  Biso   1.000  O
  O62      1.0000 0.89960  0.17794  0.63272  Biso   1.000  O
  C271     1.0000 0.91105  0.18899  0.69370  Biso   1.000  C
  C272     1.0000 0.95718  0.20258  0.71340  Biso   1.000  C
  C273     1.0000 0.98558  0.20382  0.66220  Biso   1.000  C
  H151     1.0000 0.97550  0.19510  0.61570  Biso   1.000  H
  C274     1.0000 0.02925  0.21804  0.67920  Biso   1.000  C
  H152     1.0000 0.04820  0.21770  0.64450  Biso   1.000  H
  C275     1.0000 0.04460  0.23227  0.74480  Biso   1.000  C
  C276     1.0000 0.01590  0.23065  0.79690  Biso   1.000  C
  H153     1.0000 0.02570  0.23910  0.84360  Biso   1.000  H
  C277     1.0000 0.97235  0.21628  0.77860  Biso   1.000  C
  H154     1.0000 0.95310  0.21620  0.81320  Biso   1.000  H
  C278     1.0000 0.09162  0.25170  0.76350  Biso   1.000  C
  C279     1.0000 0.11192  0.29060  0.79720  Biso   1.000  C
  H155     1.0000 0.09530  0.30390  0.80950  Biso   1.000  H
  O63      1.0000 0.55414  0.52305  0.07711  Biso   1.000  O
  O64      1.0000 0.56627  0.51127  0.96605  Biso   1.000  O
  C280     1.0000 0.57772  0.52232  0.02703  Biso   1.000  C
  C281     1.0000 0.62385  0.53591  0.04673  Biso   1.000  C
  C282     1.0000 0.65225  0.53715  0.99553  Biso   1.000  C
  H156     1.0000 0.64217  0.52843  0.94903  Biso   1.000  H
  C283     1.0000 0.69592  0.55137  0.01253  Biso   1.000  C
  H157     1.0000 0.71487  0.55103  0.97783  Biso   1.000  H
  C284     1.0000 0.71127  0.56560  0.07813  Biso   1.000  C
  C285     1.0000 0.68257  0.56398  0.13023  Biso   1.000  C
  H158     1.0000 0.69237  0.57243  0.17693  Biso   1.000  H
  C286     1.0000 0.63902  0.54961  0.11193  Biso   1.000  C
  H159     1.0000 0.61977  0.54953  0.14653  Biso   1.000  H
  C287     1.0000 0.75829  0.58503  0.09683  Biso   1.000  C
  C288     1.0000 0.77859  0.62393  0.13053  Biso   1.000  C
  H160     1.0000 0.76197  0.63723  0.14283  Biso   1.000  H
  O65      1.0000 0.22080  0.85639  0.41045  Biso   1.000  O
  O66      1.0000 0.23293  0.84461  0.29939  Biso   1.000  O
  C289     1.0000 0.24438  0.85566  0.36037  Biso   1.000  C
  C290     1.0000 0.29051  0.86925  0.38007  Biso   1.000  C
  C291     1.0000 0.31891  0.87049  0.32887  Biso   1.000  C
  H161     1.0000 0.30883  0.86177  0.28237  Biso   1.000  H
  C292     1.0000 0.36258  0.88471  0.34587  Biso   1.000  C
  H162     1.0000 0.38153  0.88437  0.31117  Biso   1.000  H
  C293     1.0000 0.37793  0.89894  0.41147  Biso   1.000  C
  C294     1.0000 0.34923  0.89732  0.46357  Biso   1.000  C
  H163     1.0000 0.35903  0.90577  0.51027  Biso   1.000  H
  C295     1.0000 0.30568  0.88295  0.44527  Biso   1.000  C
  H164     1.0000 0.28643  0.88287  0.47987  Biso   1.000  H
  C296     1.0000 0.42495  0.91837  0.43017  Biso   1.000  C
  C297     1.0000 0.44525  0.95727  0.46387  Biso   1.000  C
  H165     1.0000 0.42863  0.97057  0.47617  Biso   1.000  H
  O67      1.0000 0.30225  0.11253  0.74378  Biso   1.000  O
  O68      1.0000 0.27834  0.10040  0.63272  Biso   1.000  O
  C298     1.0000 0.27794  0.08895  0.69370  Biso   1.000  C
  C299     1.0000 0.24540  0.04282  0.71340  Biso   1.000  C
  C300     1.0000 0.21824  0.01442  0.66220  Biso   1.000  C
  H166     1.0000 0.21960  0.02450  0.61570  Biso   1.000  H
  C301     1.0000 0.18879  0.97075  0.67920  Biso   1.000  C
  H167     1.0000 0.16950  0.95180  0.64450  Biso   1.000  H
  C302     1.0000 0.18767  0.95540  0.74480  Biso   1.000  C
  C303     1.0000 0.21475  0.98410  0.79690  Biso   1.000  C
  H168     1.0000 0.21340  0.97430  0.84360  Biso   1.000  H
  C304     1.0000 0.24393  0.02765  0.77860  Biso   1.000  C
  H169     1.0000 0.26310  0.04690  0.81320  Biso   1.000  H
  C305     1.0000 0.16008  0.90838  0.76350  Biso   1.000  C
  C306     1.0000 0.17868  0.88808  0.79720  Biso   1.000  C
  H170     1.0000 0.20860  0.90470  0.80950  Biso   1.000  H
  O69      1.0000 0.96892  0.44586  0.07711  Biso   1.000  O
  O70      1.0000 0.94501  0.43373  0.96605  Biso   1.000  O
  C307     1.0000 0.94461  0.42228  0.02703  Biso   1.000  C
  C308     1.0000 0.91207  0.37615  0.04673  Biso   1.000  C
  C309     1.0000 0.88491  0.34775  0.99553  Biso   1.000  C
  H171     1.0000 0.88627  0.35783  0.94903  Biso   1.000  H
  C310     1.0000 0.85546  0.30408  0.01253  Biso   1.000  C
  H172     1.0000 0.83617  0.28513  0.97783  Biso   1.000  H
  C311     1.0000 0.85434  0.28873  0.07813  Biso   1.000  C
  C312     1.0000 0.88142  0.31743  0.13023  Biso   1.000  C
  H173     1.0000 0.88007  0.30763  0.17693  Biso   1.000  H
  C313     1.0000 0.91060  0.36098  0.11193  Biso   1.000  C
  H174     1.0000 0.92977  0.38023  0.14653  Biso   1.000  H
  C314     1.0000 0.82675  0.24171  0.09683  Biso   1.000  C
  C315     1.0000 0.84535  0.22141  0.13053  Biso   1.000  C
  H175     1.0000 0.87527  0.23803  0.14283  Biso   1.000  H
  O71      1.0000 0.63558  0.77920  0.41045  Biso   1.000  O
  O72      1.0000 0.61167  0.76707  0.29939  Biso   1.000  O
  C316     1.0000 0.61127  0.75562  0.36037  Biso   1.000  C
  C317     1.0000 0.57873  0.70949  0.38007  Biso   1.000  C
  C318     1.0000 0.55157  0.68109  0.32887  Biso   1.000  C
  H176     1.0000 0.55293  0.69117  0.28237  Biso   1.000  H
  C319     1.0000 0.52212  0.63742  0.34587  Biso   1.000  C
  H177     1.0000 0.50283  0.61847  0.31117  Biso   1.000  H
  C320     1.0000 0.52100  0.62207  0.41147  Biso   1.000  C
  C321     1.0000 0.54808  0.65077  0.46357  Biso   1.000  C
  H178     1.0000 0.54673  0.64097  0.51027  Biso   1.000  H
  C322     1.0000 0.57726  0.69432  0.44527  Biso   1.000  C
  H179     1.0000 0.59643  0.71357  0.47987  Biso   1.000  H
  C323     1.0000 0.49341  0.57505  0.43017  Biso   1.000  C
  C324     1.0000 0.51201  0.55475  0.46387  Biso   1.000  C
  H180     1.0000 0.54193  0.57137  0.47617  Biso   1.000  H
  Cu1      1.0000 0.31972  0.15986  0.60169  Biso   1.000  Cu
  Cu2      1.0000 0.98639  0.49319  0.93502  Biso   1.000  Cu
  Cu3      1.0000 0.65305  0.82653  0.26836  Biso   1.000  Cu
  Cu4      1.0000 0.84014  0.15986  0.60169  Biso   1.000  Cu
  Cu5      1.0000 0.50681  0.49319  0.93502  Biso   1.000  Cu
  Cu6      1.0000 0.17347  0.82653  0.26836  Biso   1.000  Cu
  Cu7      1.0000 0.84014  0.68028  0.60169  Biso   1.000  Cu
  Cu8      1.0000 0.50681  0.01361  0.93502  Biso   1.000  Cu
  Cu9      1.0000 0.17347  0.34695  0.26836  Biso   1.000  Cu
  Cu10     1.0000 0.15986  0.31972  0.39831  Biso   1.000  Cu
  Cu11     1.0000 0.82653  0.65305  0.73164  Biso   1.000  Cu
  Cu12     1.0000 0.49319  0.98639  0.06498  Biso   1.000  Cu
  Cu13     1.0000 0.15986  0.84014  0.39831  Biso   1.000  Cu
  Cu14     1.0000 0.82653  0.17347  0.73164  Biso   1.000  Cu
  Cu15     1.0000 0.49319  0.50681  0.06498  Biso   1.000  Cu
  Cu16     1.0000 0.68028  0.84014  0.39831  Biso   1.000  Cu
  Cu17     1.0000 0.34695  0.17347  0.73164  Biso   1.000  Cu
  Cu18     1.0000 0.01361  0.50681  0.06498  Biso   1.000  Cu
  O73      1.0000 0.09614  0.19228  0.70820  Biso   1.000  O
  C325     1.0000 0.15589  0.31178  0.81460  Biso   1.000  C
  C326     1.0000 0.11583  0.23166  0.74610  Biso   1.000  C
  C327     1.0000 0.07210  0.14420  0.80130  Biso   1.000  C
  C328     1.0000 0.07780  0.15560  0.75280  Biso   1.000  C
  O74      1.0000 0.76281  0.52561  0.04153  Biso   1.000  O
  C329     1.0000 0.82256  0.64511  0.14793  Biso   1.000  C
  C330     1.0000 0.78250  0.56499  0.07943  Biso   1.000  C
  C331     1.0000 0.73877  0.47753  0.13463  Biso   1.000  C
  C332     1.0000 0.74447  0.48893  0.08613  Biso   1.000  C
  O75      1.0000 0.42947  0.85895  0.37487  Biso   1.000  O
  C333     1.0000 0.48922  0.97845  0.48127  Biso   1.000  C
  C334     1.0000 0.44916  0.89833  0.41277  Biso   1.000  C
  C335     1.0000 0.40543  0.81087  0.46797  Biso   1.000  C
  C336     1.0000 0.41113  0.82227  0.41947  Biso   1.000  C
  O76      1.0000 0.80772  0.90386  0.70820  Biso   1.000  O
  C337     1.0000 0.68822  0.84411  0.81460  Biso   1.000  C
  C338     1.0000 0.76834  0.88417  0.74610  Biso   1.000  C
  C339     1.0000 0.85580  0.92790  0.80130  Biso   1.000  C
  C340     1.0000 0.84440  0.92220  0.75280  Biso   1.000  C
  O77      1.0000 0.47439  0.23719  0.04153  Biso   1.000  O
  C341     1.0000 0.35489  0.17744  0.14793  Biso   1.000  C
  C342     1.0000 0.43501  0.21750  0.07943  Biso   1.000  C
  C343     1.0000 0.52247  0.26123  0.13463  Biso   1.000  C
  C344     1.0000 0.51107  0.25553  0.08613  Biso   1.000  C
  O78      1.0000 0.14105  0.57053  0.37487  Biso   1.000  O
  C345     1.0000 0.02155  0.51078  0.48127  Biso   1.000  C
  C346     1.0000 0.10167  0.55084  0.41277  Biso   1.000  C
  C347     1.0000 0.18913  0.59457  0.46797  Biso   1.000  C
  C348     1.0000 0.17773  0.58887  0.41947  Biso   1.000  C
  O79      1.0000 0.09614  0.90386  0.70820  Biso   1.000  O
  C349     1.0000 0.15589  0.84411  0.81460  Biso   1.000  C
  C350     1.0000 0.11583  0.88417  0.74610  Biso   1.000  C
  C351     1.0000 0.07210  0.92790  0.80130  Biso   1.000  C
  C352     1.0000 0.07780  0.92220  0.75280  Biso   1.000  C
  O80      1.0000 0.76281  0.23719  0.04153  Biso   1.000  O
  C353     1.0000 0.82256  0.17744  0.14793  Biso   1.000  C
  C354     1.0000 0.78250  0.21750  0.07943  Biso   1.000  C
  C355     1.0000 0.73877  0.26123  0.13463  Biso   1.000  C
  C356     1.0000 0.74447  0.25553  0.08613  Biso   1.000  C
  O81      1.0000 0.42947  0.57053  0.37487  Biso   1.000  O
  C357     1.0000 0.48922  0.51078  0.48127  Biso   1.000  C
  C358     1.0000 0.44916  0.55084  0.41277  Biso   1.000  C
  C359     1.0000 0.40543  0.59457  0.46797  Biso   1.000  C
  C360     1.0000 0.41113  0.58887  0.41947  Biso   1.000  C
  O82      1.0000 0.19228  0.09614  0.29180  Biso   1.000  O
  C361     1.0000 0.31178  0.15589  0.18540  Biso   1.000  C
  C362     1.0000 0.23166  0.11583  0.25390  Biso   1.000  C
  C363     1.0000 0.14420  0.07210  0.19870  Biso   1.000  C
  C364     1.0000 0.15560  0.07780  0.24720  Biso   1.000  C
  O83      1.0000 0.85895  0.42947  0.62513  Biso   1.000  O
  C365     1.0000 0.97845  0.48922  0.51873  Biso   1.000  C
  C366     1.0000 0.89833  0.44916  0.58723  Biso   1.000  C
  C367     1.0000 0.81087  0.40543  0.53203  Biso   1.000  C
  C368     1.0000 0.82227  0.41113  0.58053  Biso   1.000  C
  O84      1.0000 0.52561  0.76281  0.95847  Biso   1.000  O
  C369     1.0000 0.64511  0.82256  0.85207  Biso   1.000  C
  C370     1.0000 0.56499  0.78250  0.92057  Biso   1.000  C
  C371     1.0000 0.47753  0.73877  0.86537  Biso   1.000  C
  C372     1.0000 0.48893  0.74447  0.91387  Biso   1.000  C
  O85      1.0000 0.90386  0.80772  0.29180  Biso   1.000  O
  C373     1.0000 0.84411  0.68822  0.18540  Biso   1.000  C
  C374     1.0000 0.88417  0.76834  0.25390  Biso   1.000  C
  C375     1.0000 0.92790  0.85580  0.19870  Biso   1.000  C
  C376     1.0000 0.92220  0.84440  0.24720  Biso   1.000  C
  O86      1.0000 0.57053  0.14105  0.62513  Biso   1.000  O
  C377     1.0000 0.51078  0.02155  0.51873  Biso   1.000  C
  C378     1.0000 0.55084  0.10167  0.58723  Biso   1.000  C
  C379     1.0000 0.59457  0.18913  0.53203  Biso   1.000  C
  C380     1.0000 0.58887  0.17773  0.58053  Biso   1.000  C
  O87      1.0000 0.23719  0.47439  0.95847  Biso   1.000  O
  C381     1.0000 0.17744  0.35489  0.85207  Biso   1.000  C
  C382     1.0000 0.21750  0.43501  0.92057  Biso   1.000  C
  C383     1.0000 0.26123  0.52247  0.86537  Biso   1.000  C
  C384     1.0000 0.25553  0.51107  0.91387  Biso   1.000  C
  O88      1.0000 0.90386  0.09614  0.29180  Biso   1.000  O
  C385     1.0000 0.84411  0.15589  0.18540  Biso   1.000  C
  C386     1.0000 0.88417  0.11583  0.25390  Biso   1.000  C
  C387     1.0000 0.92790  0.07210  0.19870  Biso   1.000  C
  C388     1.0000 0.92220  0.07780  0.24720  Biso   1.000  C
  O89      1.0000 0.57053  0.42947  0.62513  Biso   1.000  O
  C389     1.0000 0.51078  0.48922  0.51873  Biso   1.000  C
  C390     1.0000 0.55084  0.44916  0.58723  Biso   1.000  C
  C391     1.0000 0.59457  0.40543  0.53203  Biso   1.000  C
  C392     1.0000 0.58887  0.41113  0.58053  Biso   1.000  C
  O90      1.0000 0.23719  0.76281  0.95847  Biso   1.000  O
  C393     1.0000 0.17744  0.82256  0.85207  Biso   1.000  C
  C394     1.0000 0.21750  0.78250  0.92057  Biso   1.000  C
  C395     1.0000 0.26123  0.73877  0.86537  Biso   1.000  C
  C396     1.0000 0.25553  0.74447  0.91387  Biso   1.000  C
