data_image0
_cell_length_a       35.743
_cell_length_b       35.743
_cell_length_c       15.129
_cell_angle_alpha    90
_cell_angle_beta     90
_cell_angle_gamma    120

_symmetry_space_group_name_H-M    "P 1"
_symmetry_int_tables_number       1

loop_
  _symmetry_equiv_pos_as_xyz
  'x, y, z'

loop_
  _atom_site_label
  _atom_site_occupancy
  _atom_site_fract_x
  _atom_site_fract_y
  _atom_site_fract_z
  _atom_site_thermal_displace_type
  _atom_site_B_iso_or_equiv
  _atom_site_type_symbol
  O1       1.0000 0.22364  0.37064  0.41550  Biso   1.000  O
  O2       1.0000 0.23116  0.38519  0.27170  Biso   1.000  O
  C1       1.0000 0.24550  0.39020  0.34980  Biso   1.000  C
  C2       1.0000 0.29116  0.42202  0.36290  Biso   1.000  C
  C3       1.0000 0.31700  0.44890  0.29590  Biso   1.000  C
  H1       1.0000 0.30490  0.44860  0.24130  Biso   1.000  H
  C4       1.0000 0.36040  0.47610  0.30980  Biso   1.000  C
  H2       1.0000 0.37860  0.49250  0.26390  Biso   1.000  H
  C5       1.0000 0.37660  0.47839  0.39650  Biso   1.000  C
  C6       1.0000 0.35010  0.45480  0.46600  Biso   1.000  C
  H3       1.0000 0.36130  0.45810  0.52280  Biso   1.000  H
  C7       1.0000 0.30760  0.42690  0.45060  Biso   1.000  C
  H4       1.0000 0.28940  0.41110  0.49680  Biso   1.000  H
  C8       1.0000 0.42580  0.50750  0.40930  Biso   1.000  C
  C9       1.0000 0.44622  0.48814  0.45640  Biso   1.000  C
  H5       1.0000 0.43020  0.45920  0.47280  Biso   1.000  H
  C10      1.0000 0.40510  0.58480  0.38610  Biso   1.000  C
  C11      1.0000 0.37400  0.58780  0.31900  Biso   1.000  C
  O3       1.0000 0.89031  0.70397  0.74883  Biso   1.000  O
  O4       1.0000 0.89783  0.71852  0.60503  Biso   1.000  O
  C12      1.0000 0.91217  0.72353  0.68313  Biso   1.000  C
  C13      1.0000 0.95783  0.75535  0.69623  Biso   1.000  C
  C14      1.0000 0.98367  0.78223  0.62923  Biso   1.000  C
  H6       1.0000 0.97157  0.78193  0.57463  Biso   1.000  H
  C15      1.0000 0.02707  0.80943  0.64313  Biso   1.000  C
  H7       1.0000 0.04527  0.82583  0.59723  Biso   1.000  H
  C16      1.0000 0.04327  0.81172  0.72983  Biso   1.000  C
  C17      1.0000 0.01677  0.78813  0.79933  Biso   1.000  C
  H8       1.0000 0.02797  0.79143  0.85613  Biso   1.000  H
  C18      1.0000 0.97427  0.76023  0.78393  Biso   1.000  C
  H9       1.0000 0.95607  0.74443  0.83013  Biso   1.000  H
  C19      1.0000 0.09247  0.84083  0.74263  Biso   1.000  C
  C20      1.0000 0.11289  0.82147  0.78973  Biso   1.000  C
  H10      1.0000 0.09687  0.79253  0.80613  Biso   1.000  H
  C21      1.0000 0.07177  0.91813  0.71943  Biso   1.000  C
  C22      1.0000 0.04067  0.92113  0.65233  Biso   1.000  C
  O5       1.0000 0.55697  0.03731  0.08217  Biso   1.000  O
  O6       1.0000 0.56449  0.05186  0.93837  Biso   1.000  O
  C23      1.0000 0.57883  0.05687  0.01647  Biso   1.000  C
  C24      1.0000 0.62449  0.08869  0.02957  Biso   1.000  C
  C25      1.0000 0.65033  0.11557  0.96257  Biso   1.000  C
  H11      1.0000 0.63823  0.11527  0.90797  Biso   1.000  H
  C26      1.0000 0.69373  0.14277  0.97647  Biso   1.000  C
  H12      1.0000 0.71193  0.15917  0.93057  Biso   1.000  H
  C27      1.0000 0.70993  0.14506  0.06317  Biso   1.000  C
  C28      1.0000 0.68343  0.12147  0.13267  Biso   1.000  C
  H13      1.0000 0.69463  0.12477  0.18947  Biso   1.000  H
  C29      1.0000 0.64093  0.09357  0.11727  Biso   1.000  C
  H14      1.0000 0.62273  0.07777  0.16347  Biso   1.000  H
  C30      1.0000 0.75913  0.17417  0.07597  Biso   1.000  C
  C31      1.0000 0.77955  0.15481  0.12307  Biso   1.000  C
  H15      1.0000 0.76353  0.12587  0.13947  Biso   1.000  H
  C32      1.0000 0.73843  0.25147  0.05277  Biso   1.000  C
  C33      1.0000 0.70733  0.25447  0.98567  Biso   1.000  C
  O7       1.0000 0.62936  0.85300  0.41550  Biso   1.000  O
  O8       1.0000 0.61481  0.84597  0.27170  Biso   1.000  O
  C34      1.0000 0.60980  0.85530  0.34980  Biso   1.000  C
  C35      1.0000 0.57798  0.86914  0.36290  Biso   1.000  C
  C36      1.0000 0.55110  0.86810  0.29590  Biso   1.000  C
  H16      1.0000 0.55140  0.85630  0.24130  Biso   1.000  H
  C37      1.0000 0.52390  0.88430  0.30980  Biso   1.000  C
  H17      1.0000 0.50750  0.88610  0.26390  Biso   1.000  H
  C38      1.0000 0.52161  0.89821  0.39650  Biso   1.000  C
  C39      1.0000 0.54520  0.89530  0.46600  Biso   1.000  C
  H18      1.0000 0.54190  0.90320  0.52280  Biso   1.000  H
  C40      1.0000 0.57310  0.88070  0.45060  Biso   1.000  C
  H19      1.0000 0.58890  0.87830  0.49680  Biso   1.000  H
  C41      1.0000 0.49250  0.91830  0.40930  Biso   1.000  C
  C42      1.0000 0.51186  0.95808  0.45640  Biso   1.000  C
  H20      1.0000 0.54080  0.97100  0.47280  Biso   1.000  H
  C43      1.0000 0.41520  0.82030  0.38610  Biso   1.000  C
  C44      1.0000 0.41220  0.78620  0.31900  Biso   1.000  C
  O9       1.0000 0.29603  0.18633  0.74883  Biso   1.000  O
  O10      1.0000 0.28148  0.17930  0.60503  Biso   1.000  O
  C45      1.0000 0.27647  0.18863  0.68313  Biso   1.000  C
  C46      1.0000 0.24465  0.20247  0.69623  Biso   1.000  C
  C47      1.0000 0.21777  0.20143  0.62923  Biso   1.000  C
  H21      1.0000 0.21807  0.18963  0.57463  Biso   1.000  H
  C48      1.0000 0.19057  0.21763  0.64313  Biso   1.000  C
  H22      1.0000 0.17417  0.21943  0.59723  Biso   1.000  H
  C49      1.0000 0.18828  0.23154  0.72983  Biso   1.000  C
  C50      1.0000 0.21187  0.22863  0.79933  Biso   1.000  C
  H23      1.0000 0.20857  0.23653  0.85613  Biso   1.000  H
  C51      1.0000 0.23977  0.21403  0.78393  Biso   1.000  C
  H24      1.0000 0.25557  0.21163  0.83013  Biso   1.000  H
  C52      1.0000 0.15917  0.25163  0.74263  Biso   1.000  C
  C53      1.0000 0.17853  0.29141  0.78973  Biso   1.000  C
  H25      1.0000 0.20747  0.30433  0.80613  Biso   1.000  H
  C54      1.0000 0.08187  0.15363  0.71943  Biso   1.000  C
  C55      1.0000 0.07887  0.11953  0.65233  Biso   1.000  C
  O11      1.0000 0.96269  0.51967  0.08217  Biso   1.000  O
  O12      1.0000 0.94814  0.51264  0.93837  Biso   1.000  O
  C56      1.0000 0.94313  0.52197  0.01647  Biso   1.000  C
  C57      1.0000 0.91131  0.53581  0.02957  Biso   1.000  C
  C58      1.0000 0.88443  0.53477  0.96257  Biso   1.000  C
  H26      1.0000 0.88473  0.52297  0.90797  Biso   1.000  H
  C59      1.0000 0.85723  0.55097  0.97647  Biso   1.000  C
  H27      1.0000 0.84083  0.55277  0.93057  Biso   1.000  H
  C60      1.0000 0.85494  0.56488  0.06317  Biso   1.000  C
  C61      1.0000 0.87853  0.56197  0.13267  Biso   1.000  C
  H28      1.0000 0.87523  0.56987  0.18947  Biso   1.000  H
  C62      1.0000 0.90643  0.54737  0.11727  Biso   1.000  C
  H29      1.0000 0.92223  0.54497  0.16347  Biso   1.000  H
  C63      1.0000 0.82583  0.58497  0.07597  Biso   1.000  C
  C64      1.0000 0.84519  0.62475  0.12307  Biso   1.000  C
  H30      1.0000 0.87413  0.63767  0.13947  Biso   1.000  H
  C65      1.0000 0.74853  0.48697  0.05277  Biso   1.000  C
  C66      1.0000 0.74553  0.45287  0.98567  Biso   1.000  C
  O13      1.0000 0.14700  0.77636  0.41550  Biso   1.000  O
  O14      1.0000 0.15403  0.76884  0.27170  Biso   1.000  O
  C67      1.0000 0.14470  0.75450  0.34980  Biso   1.000  C
  C68      1.0000 0.13086  0.70884  0.36290  Biso   1.000  C
  C69      1.0000 0.13190  0.68300  0.29590  Biso   1.000  C
  H31      1.0000 0.14370  0.69510  0.24130  Biso   1.000  H
  C70      1.0000 0.11570  0.63960  0.30980  Biso   1.000  C
  H32      1.0000 0.11390  0.62140  0.26390  Biso   1.000  H
  C71      1.0000 0.10179  0.62340  0.39650  Biso   1.000  C
  C72      1.0000 0.10470  0.64990  0.46600  Biso   1.000  C
  H33      1.0000 0.09680  0.63870  0.52280  Biso   1.000  H
  C73      1.0000 0.11930  0.69240  0.45060  Biso   1.000  C
  H34      1.0000 0.12170  0.71060  0.49680  Biso   1.000  H
  C74      1.0000 0.08170  0.57420  0.40930  Biso   1.000  C
  C75      1.0000 0.04192  0.55378  0.45640  Biso   1.000  C
  H35      1.0000 0.02900  0.56980  0.47280  Biso   1.000  H
  C76      1.0000 0.17970  0.59490  0.38610  Biso   1.000  C
  C77      1.0000 0.21380  0.62600  0.31900  Biso   1.000  C
  O15      1.0000 0.81367  0.10969  0.74883  Biso   1.000  O
  O16      1.0000 0.82070  0.10217  0.60503  Biso   1.000  O
  C78      1.0000 0.81137  0.08783  0.68313  Biso   1.000  C
  C79      1.0000 0.79753  0.04217  0.69623  Biso   1.000  C
  C80      1.0000 0.79857  0.01633  0.62923  Biso   1.000  C
  H36      1.0000 0.81037  0.02843  0.57463  Biso   1.000  H
  C81      1.0000 0.78237  0.97293  0.64313  Biso   1.000  C
  H37      1.0000 0.78057  0.95473  0.59723  Biso   1.000  H
  C82      1.0000 0.76846  0.95673  0.72983  Biso   1.000  C
  C83      1.0000 0.77137  0.98323  0.79933  Biso   1.000  C
  H38      1.0000 0.76347  0.97203  0.85613  Biso   1.000  H
  C84      1.0000 0.78597  0.02573  0.78393  Biso   1.000  C
  H39      1.0000 0.78837  0.04393  0.83013  Biso   1.000  H
  C85      1.0000 0.74837  0.90753  0.74263  Biso   1.000  C
  C86      1.0000 0.70859  0.88711  0.78973  Biso   1.000  C
  H40      1.0000 0.69567  0.90313  0.80613  Biso   1.000  H
  C87      1.0000 0.84637  0.92823  0.71943  Biso   1.000  C
  C88      1.0000 0.88047  0.95933  0.65233  Biso   1.000  C
  O17      1.0000 0.48033  0.44303  0.08217  Biso   1.000  O
  O18      1.0000 0.48736  0.43551  0.93837  Biso   1.000  O
  C89      1.0000 0.47803  0.42117  0.01647  Biso   1.000  C
  C90      1.0000 0.46419  0.37551  0.02957  Biso   1.000  C
  C91      1.0000 0.46523  0.34967  0.96257  Biso   1.000  C
  H41      1.0000 0.47703  0.36177  0.90797  Biso   1.000  H
  C92      1.0000 0.44903  0.30627  0.97647  Biso   1.000  C
  H42      1.0000 0.44723  0.28807  0.93057  Biso   1.000  H
  C93      1.0000 0.43512  0.29007  0.06317  Biso   1.000  C
  C94      1.0000 0.43803  0.31657  0.13267  Biso   1.000  C
  H43      1.0000 0.43013  0.30537  0.18947  Biso   1.000  H
  C95      1.0000 0.45263  0.35907  0.11727  Biso   1.000  C
  H44      1.0000 0.45503  0.37727  0.16347  Biso   1.000  H
  C96      1.0000 0.41503  0.24087  0.07597  Biso   1.000  C
  C97      1.0000 0.37525  0.22045  0.12307  Biso   1.000  C
  H45      1.0000 0.36233  0.23647  0.13947  Biso   1.000  H
  C98      1.0000 0.51303  0.26157  0.05277  Biso   1.000  C
  C99      1.0000 0.54713  0.29267  0.98567  Biso   1.000  C
  O19      1.0000 0.37064  0.22364  0.58450  Biso   1.000  O
  O20      1.0000 0.38519  0.23116  0.72830  Biso   1.000  O
  C100     1.0000 0.39020  0.24550  0.65020  Biso   1.000  C
  C101     1.0000 0.42202  0.29116  0.63710  Biso   1.000  C
  C102     1.0000 0.44890  0.31700  0.70410  Biso   1.000  C
  H46      1.0000 0.44860  0.30490  0.75870  Biso   1.000  H
  C103     1.0000 0.47610  0.36040  0.69020  Biso   1.000  C
  H47      1.0000 0.49250  0.37860  0.73610  Biso   1.000  H
  C104     1.0000 0.47839  0.37660  0.60350  Biso   1.000  C
  C105     1.0000 0.45480  0.35010  0.53400  Biso   1.000  C
  H48      1.0000 0.45810  0.36130  0.47720  Biso   1.000  H
  C106     1.0000 0.42690  0.30760  0.54940  Biso   1.000  C
  H49      1.0000 0.41110  0.28940  0.50320  Biso   1.000  H
  C107     1.0000 0.50750  0.42580  0.59070  Biso   1.000  C
  C108     1.0000 0.48814  0.44622  0.54360  Biso   1.000  C
  H50      1.0000 0.45920  0.43020  0.52720  Biso   1.000  H
  C109     1.0000 0.58480  0.40510  0.61390  Biso   1.000  C
  C110     1.0000 0.58780  0.37400  0.68100  Biso   1.000  C
  O21      1.0000 0.03731  0.55697  0.91783  Biso   1.000  O
  O22      1.0000 0.05186  0.56449  0.06163  Biso   1.000  O
  C111     1.0000 0.05687  0.57883  0.98353  Biso   1.000  C
  C112     1.0000 0.08869  0.62449  0.97043  Biso   1.000  C
  C113     1.0000 0.11557  0.65033  0.03743  Biso   1.000  C
  H51      1.0000 0.11527  0.63823  0.09203  Biso   1.000  H
  C114     1.0000 0.14277  0.69373  0.02353  Biso   1.000  C
  H52      1.0000 0.15917  0.71193  0.06943  Biso   1.000  H
  C115     1.0000 0.14506  0.70993  0.93683  Biso   1.000  C
  C116     1.0000 0.12147  0.68343  0.86733  Biso   1.000  C
  H53      1.0000 0.12477  0.69463  0.81053  Biso   1.000  H
  C117     1.0000 0.09357  0.64093  0.88273  Biso   1.000  C
  H54      1.0000 0.07777  0.62273  0.83653  Biso   1.000  H
  C118     1.0000 0.17417  0.75913  0.92403  Biso   1.000  C
  C119     1.0000 0.15481  0.77955  0.87693  Biso   1.000  C
  H55      1.0000 0.12587  0.76353  0.86053  Biso   1.000  H
  C120     1.0000 0.25147  0.73843  0.94723  Biso   1.000  C
  C121     1.0000 0.25447  0.70733  0.01433  Biso   1.000  C
  O23      1.0000 0.70397  0.89031  0.25117  Biso   1.000  O
  O24      1.0000 0.71852  0.89783  0.39497  Biso   1.000  O
  C122     1.0000 0.72353  0.91217  0.31687  Biso   1.000  C
  C123     1.0000 0.75535  0.95783  0.30377  Biso   1.000  C
  C124     1.0000 0.78223  0.98367  0.37077  Biso   1.000  C
  H56      1.0000 0.78193  0.97157  0.42537  Biso   1.000  H
  C125     1.0000 0.80943  0.02707  0.35687  Biso   1.000  C
  H57      1.0000 0.82583  0.04527  0.40277  Biso   1.000  H
  C126     1.0000 0.81172  0.04327  0.27017  Biso   1.000  C
  C127     1.0000 0.78813  0.01677  0.20067  Biso   1.000  C
  H58      1.0000 0.79143  0.02797  0.14387  Biso   1.000  H
  C128     1.0000 0.76023  0.97427  0.21607  Biso   1.000  C
  H59      1.0000 0.74443  0.95607  0.16987  Biso   1.000  H
  C129     1.0000 0.84083  0.09247  0.25737  Biso   1.000  C
  C130     1.0000 0.82147  0.11289  0.21027  Biso   1.000  C
  H60      1.0000 0.79253  0.09687  0.19387  Biso   1.000  H
  C131     1.0000 0.91813  0.07177  0.28057  Biso   1.000  C
  C132     1.0000 0.92113  0.04067  0.34767  Biso   1.000  C
  O25      1.0000 0.85300  0.62936  0.58450  Biso   1.000  O
  O26      1.0000 0.84597  0.61481  0.72830  Biso   1.000  O
  C133     1.0000 0.85530  0.60980  0.65020  Biso   1.000  C
  C134     1.0000 0.86914  0.57798  0.63710  Biso   1.000  C
  C135     1.0000 0.86810  0.55110  0.70410  Biso   1.000  C
  H61      1.0000 0.85630  0.55140  0.75870  Biso   1.000  H
  C136     1.0000 0.88430  0.52390  0.69020  Biso   1.000  C
  H62      1.0000 0.88610  0.50750  0.73610  Biso   1.000  H
  C137     1.0000 0.89821  0.52161  0.60350  Biso   1.000  C
  C138     1.0000 0.89530  0.54520  0.53400  Biso   1.000  C
  H63      1.0000 0.90320  0.54190  0.47720  Biso   1.000  H
  C139     1.0000 0.88070  0.57310  0.54940  Biso   1.000  C
  H64      1.0000 0.87830  0.58890  0.50320  Biso   1.000  H
  C140     1.0000 0.91830  0.49250  0.59070  Biso   1.000  C
  C141     1.0000 0.95808  0.51186  0.54360  Biso   1.000  C
  H65      1.0000 0.97100  0.54080  0.52720  Biso   1.000  H
  C142     1.0000 0.82030  0.41520  0.61390  Biso   1.000  C
  C143     1.0000 0.78620  0.41220  0.68100  Biso   1.000  C
  O27      1.0000 0.51967  0.96269  0.91783  Biso   1.000  O
  O28      1.0000 0.51264  0.94814  0.06163  Biso   1.000  O
  C144     1.0000 0.52197  0.94313  0.98353  Biso   1.000  C
  C145     1.0000 0.53581  0.91131  0.97043  Biso   1.000  C
  C146     1.0000 0.53477  0.88443  0.03743  Biso   1.000  C
  H66      1.0000 0.52297  0.88473  0.09203  Biso   1.000  H
  C147     1.0000 0.55097  0.85723  0.02353  Biso   1.000  C
  H67      1.0000 0.55277  0.84083  0.06943  Biso   1.000  H
  C148     1.0000 0.56488  0.85494  0.93683  Biso   1.000  C
  C149     1.0000 0.56197  0.87853  0.86733  Biso   1.000  C
  H68      1.0000 0.56987  0.87523  0.81053  Biso   1.000  H
  C150     1.0000 0.54737  0.90643  0.88273  Biso   1.000  C
  H69      1.0000 0.54497  0.92223  0.83653  Biso   1.000  H
  C151     1.0000 0.58497  0.82583  0.92403  Biso   1.000  C
  C152     1.0000 0.62475  0.84519  0.87693  Biso   1.000  C
  H70      1.0000 0.63767  0.87413  0.86053  Biso   1.000  H
  C153     1.0000 0.48697  0.74853  0.94723  Biso   1.000  C
  C154     1.0000 0.45287  0.74553  0.01433  Biso   1.000  C
  O29      1.0000 0.18633  0.29603  0.25117  Biso   1.000  O
  O30      1.0000 0.17930  0.28148  0.39497  Biso   1.000  O
  C155     1.0000 0.18863  0.27647  0.31687  Biso   1.000  C
  C156     1.0000 0.20247  0.24465  0.30377  Biso   1.000  C
  C157     1.0000 0.20143  0.21777  0.37077  Biso   1.000  C
  H71      1.0000 0.18963  0.21807  0.42537  Biso   1.000  H
  C158     1.0000 0.21763  0.19057  0.35687  Biso   1.000  C
  H72      1.0000 0.21943  0.17417  0.40277  Biso   1.000  H
  C159     1.0000 0.23154  0.18828  0.27017  Biso   1.000  C
  C160     1.0000 0.22863  0.21187  0.20067  Biso   1.000  C
  H73      1.0000 0.23653  0.20857  0.14387  Biso   1.000  H
  C161     1.0000 0.21403  0.23977  0.21607  Biso   1.000  C
  H74      1.0000 0.21163  0.25557  0.16987  Biso   1.000  H
  C162     1.0000 0.25163  0.15917  0.25737  Biso   1.000  C
  C163     1.0000 0.29141  0.17853  0.21027  Biso   1.000  C
  H75      1.0000 0.30433  0.20747  0.19387  Biso   1.000  H
  C164     1.0000 0.15363  0.08187  0.28057  Biso   1.000  C
  C165     1.0000 0.11953  0.07887  0.34767  Biso   1.000  C
  O31      1.0000 0.77636  0.14700  0.58450  Biso   1.000  O
  O32      1.0000 0.76884  0.15403  0.72830  Biso   1.000  O
  C166     1.0000 0.75450  0.14470  0.65020  Biso   1.000  C
  C167     1.0000 0.70884  0.13086  0.63710  Biso   1.000  C
  C168     1.0000 0.68300  0.13190  0.70410  Biso   1.000  C
  H76      1.0000 0.69510  0.14370  0.75870  Biso   1.000  H
  C169     1.0000 0.63960  0.11570  0.69020  Biso   1.000  C
  H77      1.0000 0.62140  0.11390  0.73610  Biso   1.000  H
  C170     1.0000 0.62340  0.10179  0.60350  Biso   1.000  C
  C171     1.0000 0.64990  0.10470  0.53400  Biso   1.000  C
  H78      1.0000 0.63870  0.09680  0.47720  Biso   1.000  H
  C172     1.0000 0.69240  0.11930  0.54940  Biso   1.000  C
  H79      1.0000 0.71060  0.12170  0.50320  Biso   1.000  H
  C173     1.0000 0.57420  0.08170  0.59070  Biso   1.000  C
  C174     1.0000 0.55378  0.04192  0.54360  Biso   1.000  C
  H80      1.0000 0.56980  0.02900  0.52720  Biso   1.000  H
  C175     1.0000 0.59490  0.17970  0.61390  Biso   1.000  C
  C176     1.0000 0.62600  0.21380  0.68100  Biso   1.000  C
  O33      1.0000 0.44303  0.48033  0.91783  Biso   1.000  O
  O34      1.0000 0.43551  0.48736  0.06163  Biso   1.000  O
  C177     1.0000 0.42117  0.47803  0.98353  Biso   1.000  C
  C178     1.0000 0.37551  0.46419  0.97043  Biso   1.000  C
  C179     1.0000 0.34967  0.46523  0.03743  Biso   1.000  C
  H81      1.0000 0.36177  0.47703  0.09203  Biso   1.000  H
  C180     1.0000 0.30627  0.44903  0.02353  Biso   1.000  C
  H82      1.0000 0.28807  0.44723  0.06943  Biso   1.000  H
  C181     1.0000 0.29007  0.43512  0.93683  Biso   1.000  C
  C182     1.0000 0.31657  0.43803  0.86733  Biso   1.000  C
  H83      1.0000 0.30537  0.43013  0.81053  Biso   1.000  H
  C183     1.0000 0.35907  0.45263  0.88273  Biso   1.000  C
  H84      1.0000 0.37727  0.45503  0.83653  Biso   1.000  H
  C184     1.0000 0.24087  0.41503  0.92403  Biso   1.000  C
  C185     1.0000 0.22045  0.37525  0.87693  Biso   1.000  C
  H85      1.0000 0.23647  0.36233  0.86053  Biso   1.000  H
  C186     1.0000 0.26157  0.51303  0.94723  Biso   1.000  C
  C187     1.0000 0.29267  0.54713  0.01433  Biso   1.000  C
  O35      1.0000 0.10969  0.81367  0.25117  Biso   1.000  O
  O36      1.0000 0.10217  0.82070  0.39497  Biso   1.000  O
  C188     1.0000 0.08783  0.81137  0.31687  Biso   1.000  C
  C189     1.0000 0.04217  0.79753  0.30377  Biso   1.000  C
  C190     1.0000 0.01633  0.79857  0.37077  Biso   1.000  C
  H86      1.0000 0.02843  0.81037  0.42537  Biso   1.000  H
  C191     1.0000 0.97293  0.78237  0.35687  Biso   1.000  C
  H87      1.0000 0.95473  0.78057  0.40277  Biso   1.000  H
  C192     1.0000 0.95673  0.76846  0.27017  Biso   1.000  C
  C193     1.0000 0.98323  0.77137  0.20067  Biso   1.000  C
  H88      1.0000 0.97203  0.76347  0.14387  Biso   1.000  H
  C194     1.0000 0.02573  0.78597  0.21607  Biso   1.000  C
  H89      1.0000 0.04393  0.78837  0.16987  Biso   1.000  H
  C195     1.0000 0.90753  0.74837  0.25737  Biso   1.000  C
  C196     1.0000 0.88711  0.70859  0.21027  Biso   1.000  C
  H90      1.0000 0.90313  0.69567  0.19387  Biso   1.000  H
  C197     1.0000 0.92823  0.84637  0.28057  Biso   1.000  C
  C198     1.0000 0.95933  0.88047  0.34767  Biso   1.000  C
  O37      1.0000 0.77636  0.62936  0.58450  Biso   1.000  O
  O38      1.0000 0.76884  0.61481  0.72830  Biso   1.000  O
  C199     1.0000 0.75450  0.60980  0.65020  Biso   1.000  C
  C200     1.0000 0.70884  0.57798  0.63710  Biso   1.000  C
  C201     1.0000 0.68300  0.55110  0.70410  Biso   1.000  C
  H91      1.0000 0.69510  0.55140  0.75870  Biso   1.000  H
  C202     1.0000 0.63960  0.52390  0.69020  Biso   1.000  C
  H92      1.0000 0.62140  0.50750  0.73610  Biso   1.000  H
  C203     1.0000 0.62340  0.52161  0.60350  Biso   1.000  C
  C204     1.0000 0.64990  0.54520  0.53400  Biso   1.000  C
  H93      1.0000 0.63870  0.54190  0.47720  Biso   1.000  H
  C205     1.0000 0.69240  0.57310  0.54940  Biso   1.000  C
  H94      1.0000 0.71060  0.58890  0.50320  Biso   1.000  H
  C206     1.0000 0.57420  0.49250  0.59070  Biso   1.000  C
  C207     1.0000 0.55378  0.51186  0.54360  Biso   1.000  C
  H95      1.0000 0.56980  0.54080  0.52720  Biso   1.000  H
  C208     1.0000 0.59490  0.41520  0.61390  Biso   1.000  C
  C209     1.0000 0.62600  0.41220  0.68100  Biso   1.000  C
  O39      1.0000 0.44303  0.96269  0.91783  Biso   1.000  O
  O40      1.0000 0.43551  0.94814  0.06163  Biso   1.000  O
  C210     1.0000 0.42117  0.94313  0.98353  Biso   1.000  C
  C211     1.0000 0.37551  0.91131  0.97043  Biso   1.000  C
  C212     1.0000 0.34967  0.88443  0.03743  Biso   1.000  C
  H96      1.0000 0.36177  0.88473  0.09203  Biso   1.000  H
  C213     1.0000 0.30627  0.85723  0.02353  Biso   1.000  C
  H97      1.0000 0.28807  0.84083  0.06943  Biso   1.000  H
  C214     1.0000 0.29007  0.85494  0.93683  Biso   1.000  C
  C215     1.0000 0.31657  0.87853  0.86733  Biso   1.000  C
  H98      1.0000 0.30537  0.87523  0.81053  Biso   1.000  H
  C216     1.0000 0.35907  0.90643  0.88273  Biso   1.000  C
  H99      1.0000 0.37727  0.92223  0.83653  Biso   1.000  H
  C217     1.0000 0.24087  0.82583  0.92403  Biso   1.000  C
  C218     1.0000 0.22045  0.84519  0.87693  Biso   1.000  C
  H100     1.0000 0.23647  0.87413  0.86053  Biso   1.000  H
  C219     1.0000 0.26157  0.74853  0.94723  Biso   1.000  C
  C220     1.0000 0.29267  0.74553  0.01433  Biso   1.000  C
  O41      1.0000 0.10969  0.29603  0.25117  Biso   1.000  O
  O42      1.0000 0.10217  0.28148  0.39497  Biso   1.000  O
  C221     1.0000 0.08783  0.27647  0.31687  Biso   1.000  C
  C222     1.0000 0.04217  0.24465  0.30377  Biso   1.000  C
  C223     1.0000 0.01633  0.21777  0.37077  Biso   1.000  C
  H101     1.0000 0.02843  0.21807  0.42537  Biso   1.000  H
  C224     1.0000 0.97293  0.19057  0.35687  Biso   1.000  C
  H102     1.0000 0.95473  0.17417  0.40277  Biso   1.000  H
  C225     1.0000 0.95673  0.18828  0.27017  Biso   1.000  C
  C226     1.0000 0.98323  0.21187  0.20067  Biso   1.000  C
  H103     1.0000 0.97203  0.20857  0.14387  Biso   1.000  H
  C227     1.0000 0.02573  0.23977  0.21607  Biso   1.000  C
  H104     1.0000 0.04393  0.25557  0.16987  Biso   1.000  H
  C228     1.0000 0.90753  0.15917  0.25737  Biso   1.000  C
  C229     1.0000 0.88711  0.17853  0.21027  Biso   1.000  C
  H105     1.0000 0.90313  0.20747  0.19387  Biso   1.000  H
  C230     1.0000 0.92823  0.08187  0.28057  Biso   1.000  C
  C231     1.0000 0.95933  0.07887  0.34767  Biso   1.000  C
  O43      1.0000 0.37064  0.14700  0.58450  Biso   1.000  O
  O44      1.0000 0.38519  0.15403  0.72830  Biso   1.000  O
  C232     1.0000 0.39020  0.14470  0.65020  Biso   1.000  C
  C233     1.0000 0.42202  0.13086  0.63710  Biso   1.000  C
  C234     1.0000 0.44890  0.13190  0.70410  Biso   1.000  C
  H106     1.0000 0.44860  0.14370  0.75870  Biso   1.000  H
  C235     1.0000 0.47610  0.11570  0.69020  Biso   1.000  C
  H107     1.0000 0.49250  0.11390  0.73610  Biso   1.000  H
  C236     1.0000 0.47839  0.10179  0.60350  Biso   1.000  C
  C237     1.0000 0.45480  0.10470  0.53400  Biso   1.000  C
  H108     1.0000 0.45810  0.09680  0.47720  Biso   1.000  H
  C238     1.0000 0.42690  0.11930  0.54940  Biso   1.000  C
  H109     1.0000 0.41110  0.12170  0.50320  Biso   1.000  H
  C239     1.0000 0.50750  0.08170  0.59070  Biso   1.000  C
  C240     1.0000 0.48814  0.04192  0.54360  Biso   1.000  C
  H110     1.0000 0.45920  0.02900  0.52720  Biso   1.000  H
  C241     1.0000 0.58480  0.17970  0.61390  Biso   1.000  C
  C242     1.0000 0.58780  0.21380  0.68100  Biso   1.000  C
  O45      1.0000 0.03731  0.48033  0.91783  Biso   1.000  O
  O46      1.0000 0.05186  0.48736  0.06163  Biso   1.000  O
  C243     1.0000 0.05687  0.47803  0.98353  Biso   1.000  C
  C244     1.0000 0.08869  0.46419  0.97043  Biso   1.000  C
  C245     1.0000 0.11557  0.46523  0.03743  Biso   1.000  C
  H111     1.0000 0.11527  0.47703  0.09203  Biso   1.000  H
  C246     1.0000 0.14277  0.44903  0.02353  Biso   1.000  C
  H112     1.0000 0.15917  0.44723  0.06943  Biso   1.000  H
  C247     1.0000 0.14506  0.43512  0.93683  Biso   1.000  C
  C248     1.0000 0.12147  0.43803  0.86733  Biso   1.000  C
  H113     1.0000 0.12477  0.43013  0.81053  Biso   1.000  H
  C249     1.0000 0.09357  0.45263  0.88273  Biso   1.000  C
  H114     1.0000 0.07777  0.45503  0.83653  Biso   1.000  H
  C250     1.0000 0.17417  0.41503  0.92403  Biso   1.000  C
  C251     1.0000 0.15481  0.37525  0.87693  Biso   1.000  C
  H115     1.0000 0.12587  0.36233  0.86053  Biso   1.000  H
  C252     1.0000 0.25147  0.51303  0.94723  Biso   1.000  C
  C253     1.0000 0.25447  0.54713  0.01433  Biso   1.000  C
  O47      1.0000 0.70397  0.81367  0.25117  Biso   1.000  O
  O48      1.0000 0.71852  0.82070  0.39497  Biso   1.000  O
  C254     1.0000 0.72353  0.81137  0.31687  Biso   1.000  C
  C255     1.0000 0.75535  0.79753  0.30377  Biso   1.000  C
  C256     1.0000 0.78223  0.79857  0.37077  Biso   1.000  C
  H116     1.0000 0.78193  0.81037  0.42537  Biso   1.000  H
  C257     1.0000 0.80943  0.78237  0.35687  Biso   1.000  C
  H117     1.0000 0.82583  0.78057  0.40277  Biso   1.000  H
  C258     1.0000 0.81172  0.76846  0.27017  Biso   1.000  C
  C259     1.0000 0.78813  0.77137  0.20067  Biso   1.000  C
  H118     1.0000 0.79143  0.76347  0.14387  Biso   1.000  H
  C260     1.0000 0.76023  0.78597  0.21607  Biso   1.000  C
  H119     1.0000 0.74443  0.78837  0.16987  Biso   1.000  H
  C261     1.0000 0.84083  0.74837  0.25737  Biso   1.000  C
  C262     1.0000 0.82147  0.70859  0.21027  Biso   1.000  C
  H120     1.0000 0.79253  0.69567  0.19387  Biso   1.000  H
  C263     1.0000 0.91813  0.84637  0.28057  Biso   1.000  C
  C264     1.0000 0.92113  0.88047  0.34767  Biso   1.000  C
  O49      1.0000 0.85300  0.22364  0.58450  Biso   1.000  O
  O50      1.0000 0.84597  0.23116  0.72830  Biso   1.000  O
  C265     1.0000 0.85530  0.24550  0.65020  Biso   1.000  C
  C266     1.0000 0.86914  0.29116  0.63710  Biso   1.000  C
  C267     1.0000 0.86810  0.31700  0.70410  Biso   1.000  C
  H121     1.0000 0.85630  0.30490  0.75870  Biso   1.000  H
  C268     1.0000 0.88430  0.36040  0.69020  Biso   1.000  C
  H122     1.0000 0.88610  0.37860  0.73610  Biso   1.000  H
  C269     1.0000 0.89821  0.37660  0.60350  Biso   1.000  C
  C270     1.0000 0.89530  0.35010  0.53400  Biso   1.000  C
  H123     1.0000 0.90320  0.36130  0.47720  Biso   1.000  H
  C271     1.0000 0.88070  0.30760  0.54940  Biso   1.000  C
  H124     1.0000 0.87830  0.28940  0.50320  Biso   1.000  H
  C272     1.0000 0.91830  0.42580  0.59070  Biso   1.000  C
  C273     1.0000 0.95808  0.44622  0.54360  Biso   1.000  C
  H125     1.0000 0.97100  0.43020  0.52720  Biso   1.000  H
  C274     1.0000 0.82030  0.40510  0.61390  Biso   1.000  C
  C275     1.0000 0.78620  0.37400  0.68100  Biso   1.000  C
  O51      1.0000 0.51967  0.55697  0.91783  Biso   1.000  O
  O52      1.0000 0.51264  0.56449  0.06163  Biso   1.000  O
  C276     1.0000 0.52197  0.57883  0.98353  Biso   1.000  C
  C277     1.0000 0.53581  0.62449  0.97043  Biso   1.000  C
  C278     1.0000 0.53477  0.65033  0.03743  Biso   1.000  C
  H126     1.0000 0.52297  0.63823  0.09203  Biso   1.000  H
  C279     1.0000 0.55097  0.69373  0.02353  Biso   1.000  C
  H127     1.0000 0.55277  0.71193  0.06943  Biso   1.000  H
  C280     1.0000 0.56488  0.70993  0.93683  Biso   1.000  C
  C281     1.0000 0.56197  0.68343  0.86733  Biso   1.000  C
  H128     1.0000 0.56987  0.69463  0.81053  Biso   1.000  H
  C282     1.0000 0.54737  0.64093  0.88273  Biso   1.000  C
  H129     1.0000 0.54497  0.62273  0.83653  Biso   1.000  H
  C283     1.0000 0.58497  0.75913  0.92403  Biso   1.000  C
  C284     1.0000 0.62475  0.77955  0.87693  Biso   1.000  C
  H130     1.0000 0.63767  0.76353  0.86053  Biso   1.000  H
  C285     1.0000 0.48697  0.73843  0.94723  Biso   1.000  C
  C286     1.0000 0.45287  0.70733  0.01433  Biso   1.000  C
  O53      1.0000 0.18633  0.89031  0.25117  Biso   1.000  O
  O54      1.0000 0.17930  0.89783  0.39497  Biso   1.000  O
  C287     1.0000 0.18863  0.91217  0.31687  Biso   1.000  C
  C288     1.0000 0.20247  0.95783  0.30377  Biso   1.000  C
  C289     1.0000 0.20143  0.98367  0.37077  Biso   1.000  C
  H131     1.0000 0.18963  0.97157  0.42537  Biso   1.000  H
  C290     1.0000 0.21763  0.02707  0.35687  Biso   1.000  C
  H132     1.0000 0.21943  0.04527  0.40277  Biso   1.000  H
  C291     1.0000 0.23154  0.04327  0.27017  Biso   1.000  C
  C292     1.0000 0.22863  0.01677  0.20067  Biso   1.000  C
  H133     1.0000 0.23653  0.02797  0.14387  Biso   1.000  H
  C293     1.0000 0.21403  0.97427  0.21607  Biso   1.000  C
  H134     1.0000 0.21163  0.95607  0.16987  Biso   1.000  H
  C294     1.0000 0.25163  0.09247  0.25737  Biso   1.000  C
  C295     1.0000 0.29141  0.11289  0.21027  Biso   1.000  C
  H135     1.0000 0.30433  0.09687  0.19387  Biso   1.000  H
  C296     1.0000 0.15363  0.07177  0.28057  Biso   1.000  C
  C297     1.0000 0.11953  0.04067  0.34767  Biso   1.000  C
  O55      1.0000 0.62936  0.77636  0.41550  Biso   1.000  O
  O56      1.0000 0.61481  0.76884  0.27170  Biso   1.000  O
  C298     1.0000 0.60980  0.75450  0.34980  Biso   1.000  C
  C299     1.0000 0.57798  0.70884  0.36290  Biso   1.000  C
  C300     1.0000 0.55110  0.68300  0.29590  Biso   1.000  C
  H136     1.0000 0.55140  0.69510  0.24130  Biso   1.000  H
  C301     1.0000 0.52390  0.63960  0.30980  Biso   1.000  C
  H137     1.0000 0.50750  0.62140  0.26390  Biso   1.000  H
  C302     1.0000 0.52161  0.62340  0.39650  Biso   1.000  C
  C303     1.0000 0.54520  0.64990  0.46600  Biso   1.000  C
  H138     1.0000 0.54190  0.63870  0.52280  Biso   1.000  H
  C304     1.0000 0.57310  0.69240  0.45060  Biso   1.000  C
  H139     1.0000 0.58890  0.71060  0.49680  Biso   1.000  H
  C305     1.0000 0.49250  0.57420  0.40930  Biso   1.000  C
  C306     1.0000 0.51186  0.55378  0.45640  Biso   1.000  C
  H140     1.0000 0.54080  0.56980  0.47280  Biso   1.000  H
  C307     1.0000 0.41520  0.59490  0.38610  Biso   1.000  C
  C308     1.0000 0.41220  0.62600  0.31900  Biso   1.000  C
  O57      1.0000 0.29603  0.10969  0.74883  Biso   1.000  O
  O58      1.0000 0.28148  0.10217  0.60503  Biso   1.000  O
  C309     1.0000 0.27647  0.08783  0.68313  Biso   1.000  C
  C310     1.0000 0.24465  0.04217  0.69623  Biso   1.000  C
  C311     1.0000 0.21777  0.01633  0.62923  Biso   1.000  C
  H141     1.0000 0.21807  0.02843  0.57463  Biso   1.000  H
  C312     1.0000 0.19057  0.97293  0.64313  Biso   1.000  C
  H142     1.0000 0.17417  0.95473  0.59723  Biso   1.000  H
  C313     1.0000 0.18828  0.95673  0.72983  Biso   1.000  C
  C314     1.0000 0.21187  0.98323  0.79933  Biso   1.000  C
  H143     1.0000 0.20857  0.97203  0.85613  Biso   1.000  H
  C315     1.0000 0.23977  0.02573  0.78393  Biso   1.000  C
  H144     1.0000 0.25557  0.04393  0.83013  Biso   1.000  H
  C316     1.0000 0.15917  0.90753  0.74263  Biso   1.000  C
  C317     1.0000 0.17853  0.88711  0.78973  Biso   1.000  C
  H145     1.0000 0.20747  0.90313  0.80613  Biso   1.000  H
  C318     1.0000 0.08187  0.92823  0.71943  Biso   1.000  C
  C319     1.0000 0.07887  0.95933  0.65233  Biso   1.000  C
  O59      1.0000 0.96269  0.44303  0.08217  Biso   1.000  O
  O60      1.0000 0.94814  0.43551  0.93837  Biso   1.000  O
  C320     1.0000 0.94313  0.42117  0.01647  Biso   1.000  C
  C321     1.0000 0.91131  0.37551  0.02957  Biso   1.000  C
  C322     1.0000 0.88443  0.34967  0.96257  Biso   1.000  C
  H146     1.0000 0.88473  0.36177  0.90797  Biso   1.000  H
  C323     1.0000 0.85723  0.30627  0.97647  Biso   1.000  C
  H147     1.0000 0.84083  0.28807  0.93057  Biso   1.000  H
  C324     1.0000 0.85494  0.29007  0.06317  Biso   1.000  C
  C325     1.0000 0.87853  0.31657  0.13267  Biso   1.000  C
  H148     1.0000 0.87523  0.30537  0.18947  Biso   1.000  H
  C326     1.0000 0.90643  0.35907  0.11727  Biso   1.000  C
  H149     1.0000 0.92223  0.37727  0.16347  Biso   1.000  H
  C327     1.0000 0.82583  0.24087  0.07597  Biso   1.000  C
  C328     1.0000 0.84519  0.22045  0.12307  Biso   1.000  C
  H150     1.0000 0.87413  0.23647  0.13947  Biso   1.000  H
  C329     1.0000 0.74853  0.26157  0.05277  Biso   1.000  C
  C330     1.0000 0.74553  0.29267  0.98567  Biso   1.000  C
  O61      1.0000 0.14700  0.37064  0.41550  Biso   1.000  O
  O62      1.0000 0.15403  0.38519  0.27170  Biso   1.000  O
  C331     1.0000 0.14470  0.39020  0.34980  Biso   1.000  C
  C332     1.0000 0.13086  0.42202  0.36290  Biso   1.000  C
  C333     1.0000 0.13190  0.44890  0.29590  Biso   1.000  C
  H151     1.0000 0.14370  0.44860  0.24130  Biso   1.000  H
  C334     1.0000 0.11570  0.47610  0.30980  Biso   1.000  C
  H152     1.0000 0.11390  0.49250  0.26390  Biso   1.000  H
  C335     1.0000 0.10179  0.47839  0.39650  Biso   1.000  C
  C336     1.0000 0.10470  0.45480  0.46600  Biso   1.000  C
  H153     1.0000 0.09680  0.45810  0.52280  Biso   1.000  H
  C337     1.0000 0.11930  0.42690  0.45060  Biso   1.000  C
  H154     1.0000 0.12170  0.41110  0.49680  Biso   1.000  H
  C338     1.0000 0.08170  0.50750  0.40930  Biso   1.000  C
  C339     1.0000 0.04192  0.48814  0.45640  Biso   1.000  C
  H155     1.0000 0.02900  0.45920  0.47280  Biso   1.000  H
  C340     1.0000 0.17970  0.58480  0.38610  Biso   1.000  C
  C341     1.0000 0.21380  0.58780  0.31900  Biso   1.000  C
  O63      1.0000 0.81367  0.70397  0.74883  Biso   1.000  O
  O64      1.0000 0.82070  0.71852  0.60503  Biso   1.000  O
  C342     1.0000 0.81137  0.72353  0.68313  Biso   1.000  C
  C343     1.0000 0.79753  0.75535  0.69623  Biso   1.000  C
  C344     1.0000 0.79857  0.78223  0.62923  Biso   1.000  C
  H156     1.0000 0.81037  0.78193  0.57463  Biso   1.000  H
  C345     1.0000 0.78237  0.80943  0.64313  Biso   1.000  C
  H157     1.0000 0.78057  0.82583  0.59723  Biso   1.000  H
  C346     1.0000 0.76846  0.81172  0.72983  Biso   1.000  C
  C347     1.0000 0.77137  0.78813  0.79933  Biso   1.000  C
  H158     1.0000 0.76347  0.79143  0.85613  Biso   1.000  H
  C348     1.0000 0.78597  0.76023  0.78393  Biso   1.000  C
  H159     1.0000 0.78837  0.74443  0.83013  Biso   1.000  H
  C349     1.0000 0.74837  0.84083  0.74263  Biso   1.000  C
  C350     1.0000 0.70859  0.82147  0.78973  Biso   1.000  C
  H160     1.0000 0.69567  0.79253  0.80613  Biso   1.000  H
  C351     1.0000 0.84637  0.91813  0.71943  Biso   1.000  C
  C352     1.0000 0.88047  0.92113  0.65233  Biso   1.000  C
  O65      1.0000 0.48033  0.03731  0.08217  Biso   1.000  O
  O66      1.0000 0.48736  0.05186  0.93837  Biso   1.000  O
  C353     1.0000 0.47803  0.05687  0.01647  Biso   1.000  C
  C354     1.0000 0.46419  0.08869  0.02957  Biso   1.000  C
  C355     1.0000 0.46523  0.11557  0.96257  Biso   1.000  C
  H161     1.0000 0.47703  0.11527  0.90797  Biso   1.000  H
  C356     1.0000 0.44903  0.14277  0.97647  Biso   1.000  C
  H162     1.0000 0.44723  0.15917  0.93057  Biso   1.000  H
  C357     1.0000 0.43512  0.14506  0.06317  Biso   1.000  C
  C358     1.0000 0.43803  0.12147  0.13267  Biso   1.000  C
  H163     1.0000 0.43013  0.12477  0.18947  Biso   1.000  H
  C359     1.0000 0.45263  0.09357  0.11727  Biso   1.000  C
  H164     1.0000 0.45503  0.07777  0.16347  Biso   1.000  H
  C360     1.0000 0.41503  0.17417  0.07597  Biso   1.000  C
  C361     1.0000 0.37525  0.15481  0.12307  Biso   1.000  C
  H165     1.0000 0.36233  0.12587  0.13947  Biso   1.000  H
  C362     1.0000 0.51303  0.25147  0.05277  Biso   1.000  C
  C363     1.0000 0.54713  0.25447  0.98567  Biso   1.000  C
  O67      1.0000 0.22364  0.85300  0.41550  Biso   1.000  O
  O68      1.0000 0.23116  0.84597  0.27170  Biso   1.000  O
  C364     1.0000 0.24550  0.85530  0.34980  Biso   1.000  C
  C365     1.0000 0.29116  0.86914  0.36290  Biso   1.000  C
  C366     1.0000 0.31700  0.86810  0.29590  Biso   1.000  C
  H166     1.0000 0.30490  0.85630  0.24130  Biso   1.000  H
  C367     1.0000 0.36040  0.88430  0.30980  Biso   1.000  C
  H167     1.0000 0.37860  0.88610  0.26390  Biso   1.000  H
  C368     1.0000 0.37660  0.89821  0.39650  Biso   1.000  C
  C369     1.0000 0.35010  0.89530  0.46600  Biso   1.000  C
  H168     1.0000 0.36130  0.90320  0.52280  Biso   1.000  H
  C370     1.0000 0.30760  0.88070  0.45060  Biso   1.000  C
  H169     1.0000 0.28940  0.87830  0.49680  Biso   1.000  H
  C371     1.0000 0.42580  0.91830  0.40930  Biso   1.000  C
  C372     1.0000 0.44622  0.95808  0.45640  Biso   1.000  C
  H170     1.0000 0.43020  0.97100  0.47280  Biso   1.000  H
  C373     1.0000 0.40510  0.82030  0.38610  Biso   1.000  C
  C374     1.0000 0.37400  0.78620  0.31900  Biso   1.000  C
  O69      1.0000 0.89031  0.18633  0.74883  Biso   1.000  O
  O70      1.0000 0.89783  0.17930  0.60503  Biso   1.000  O
  C375     1.0000 0.91217  0.18863  0.68313  Biso   1.000  C
  C376     1.0000 0.95783  0.20247  0.69623  Biso   1.000  C
  C377     1.0000 0.98367  0.20143  0.62923  Biso   1.000  C
  H171     1.0000 0.97157  0.18963  0.57463  Biso   1.000  H
  C378     1.0000 0.02707  0.21763  0.64313  Biso   1.000  C
  H172     1.0000 0.04527  0.21943  0.59723  Biso   1.000  H
  C379     1.0000 0.04327  0.23154  0.72983  Biso   1.000  C
  C380     1.0000 0.01677  0.22863  0.79933  Biso   1.000  C
  H173     1.0000 0.02797  0.23653  0.85613  Biso   1.000  H
  C381     1.0000 0.97427  0.21403  0.78393  Biso   1.000  C
  H174     1.0000 0.95607  0.21163  0.83013  Biso   1.000  H
  C382     1.0000 0.09247  0.25163  0.74263  Biso   1.000  C
  C383     1.0000 0.11289  0.29141  0.78973  Biso   1.000  C
  H175     1.0000 0.09687  0.30433  0.80613  Biso   1.000  H
  C384     1.0000 0.07177  0.15363  0.71943  Biso   1.000  C
  C385     1.0000 0.04067  0.11953  0.65233  Biso   1.000  C
  O71      1.0000 0.55697  0.51967  0.08217  Biso   1.000  O
  O72      1.0000 0.56449  0.51264  0.93837  Biso   1.000  O
  C386     1.0000 0.57883  0.52197  0.01647  Biso   1.000  C
  C387     1.0000 0.62449  0.53581  0.02957  Biso   1.000  C
  C388     1.0000 0.65033  0.53477  0.96257  Biso   1.000  C
  H176     1.0000 0.63823  0.52297  0.90797  Biso   1.000  H
  C389     1.0000 0.69373  0.55097  0.97647  Biso   1.000  C
  H177     1.0000 0.71193  0.55277  0.93057  Biso   1.000  H
  C390     1.0000 0.70993  0.56488  0.06317  Biso   1.000  C
  C391     1.0000 0.68343  0.56197  0.13267  Biso   1.000  C
  H178     1.0000 0.69463  0.56987  0.18947  Biso   1.000  H
  C392     1.0000 0.64093  0.54737  0.11727  Biso   1.000  C
  H179     1.0000 0.62273  0.54497  0.16347  Biso   1.000  H
  C393     1.0000 0.75913  0.58497  0.07597  Biso   1.000  C
  C394     1.0000 0.77955  0.62475  0.12307  Biso   1.000  C
  H180     1.0000 0.76353  0.63767  0.13947  Biso   1.000  H
  C395     1.0000 0.73843  0.48697  0.05277  Biso   1.000  C
  C396     1.0000 0.70733  0.45287  0.98567  Biso   1.000  C
  Cu1      1.0000 0.17088  0.34176  0.24840  Biso   1.000  Cu
  Cu2      1.0000 0.83755  0.67509  0.58173  Biso   1.000  Cu
  Cu3      1.0000 0.50421  0.00843  0.91507  Biso   1.000  Cu
  Cu4      1.0000 0.65824  0.82912  0.24840  Biso   1.000  Cu
  Cu5      1.0000 0.32491  0.16245  0.58173  Biso   1.000  Cu
  Cu6      1.0000 0.99157  0.49579  0.91507  Biso   1.000  Cu
  Cu7      1.0000 0.17088  0.82912  0.24840  Biso   1.000  Cu
  Cu8      1.0000 0.83755  0.16245  0.58173  Biso   1.000  Cu
  Cu9      1.0000 0.50421  0.49579  0.91507  Biso   1.000  Cu
  Cu10     1.0000 0.34176  0.17088  0.75160  Biso   1.000  Cu
  Cu11     1.0000 0.00843  0.50421  0.08493  Biso   1.000  Cu
  Cu12     1.0000 0.67509  0.83755  0.41827  Biso   1.000  Cu
  Cu13     1.0000 0.82912  0.65824  0.75160  Biso   1.000  Cu
  Cu14     1.0000 0.49579  0.99157  0.08493  Biso   1.000  Cu
  Cu15     1.0000 0.16245  0.32491  0.41827  Biso   1.000  Cu
  Cu16     1.0000 0.82912  0.17088  0.75160  Biso   1.000  Cu
  Cu17     1.0000 0.49579  0.50421  0.08493  Biso   1.000  Cu
  Cu18     1.0000 0.16245  0.83755  0.41827  Biso   1.000  Cu
  O73      1.0000 0.42977  0.57023  0.34670  Biso   1.000  O
  C397     1.0000 0.48872  0.51128  0.47770  Biso   1.000  C
  C398     1.0000 0.44927  0.55073  0.39000  Biso   1.000  C
  C399     1.0000 0.40830  0.59170  0.48460  Biso   1.000  C
  O74      1.0000 0.09644  0.90356  0.68003  Biso   1.000  O
  C400     1.0000 0.15539  0.84461  0.81103  Biso   1.000  C
  C401     1.0000 0.11594  0.88406  0.72333  Biso   1.000  C
  C402     1.0000 0.07497  0.92503  0.81793  Biso   1.000  C
  O75      1.0000 0.76310  0.23690  0.01337  Biso   1.000  O
  C403     1.0000 0.82205  0.17795  0.14437  Biso   1.000  C
  C404     1.0000 0.78260  0.21740  0.05667  Biso   1.000  C
  C405     1.0000 0.74163  0.25837  0.15127  Biso   1.000  C
  O76      1.0000 0.42977  0.85954  0.34670  Biso   1.000  O
  C406     1.0000 0.48872  0.97744  0.47770  Biso   1.000  C
  C407     1.0000 0.44927  0.89854  0.39000  Biso   1.000  C
  C408     1.0000 0.40830  0.81660  0.48460  Biso   1.000  C
  O77      1.0000 0.09644  0.19287  0.68003  Biso   1.000  O
  C409     1.0000 0.15539  0.31077  0.81103  Biso   1.000  C
  C410     1.0000 0.11594  0.23187  0.72333  Biso   1.000  C
  C411     1.0000 0.07497  0.14993  0.81793  Biso   1.000  C
  O78      1.0000 0.76310  0.52621  0.01337  Biso   1.000  O
  C412     1.0000 0.82205  0.64411  0.14437  Biso   1.000  C
  C413     1.0000 0.78260  0.56521  0.05667  Biso   1.000  C
  C414     1.0000 0.74163  0.48327  0.15127  Biso   1.000  C
  O79      1.0000 0.14046  0.57023  0.34670  Biso   1.000  O
  C415     1.0000 0.02256  0.51128  0.47770  Biso   1.000  C
  C416     1.0000 0.10146  0.55073  0.39000  Biso   1.000  C
  C417     1.0000 0.18340  0.59170  0.48460  Biso   1.000  C
  O80      1.0000 0.80713  0.90356  0.68003  Biso   1.000  O
  C418     1.0000 0.68923  0.84461  0.81103  Biso   1.000  C
  C419     1.0000 0.76813  0.88406  0.72333  Biso   1.000  C
  C420     1.0000 0.85007  0.92503  0.81793  Biso   1.000  C
  O81      1.0000 0.47379  0.23690  0.01337  Biso   1.000  O
  C421     1.0000 0.35589  0.17795  0.14437  Biso   1.000  C
  C422     1.0000 0.43479  0.21740  0.05667  Biso   1.000  C
  C423     1.0000 0.51673  0.25837  0.15127  Biso   1.000  C
  O82      1.0000 0.57023  0.42977  0.65330  Biso   1.000  O
  C424     1.0000 0.51128  0.48872  0.52230  Biso   1.000  C
  C425     1.0000 0.55073  0.44927  0.61000  Biso   1.000  C
  C426     1.0000 0.59170  0.40830  0.51540  Biso   1.000  C
  O83      1.0000 0.23690  0.76310  0.98663  Biso   1.000  O
  C427     1.0000 0.17795  0.82205  0.85563  Biso   1.000  C
  C428     1.0000 0.21740  0.78260  0.94333  Biso   1.000  C
  C429     1.0000 0.25837  0.74163  0.84873  Biso   1.000  C
  O84      1.0000 0.90356  0.09644  0.31997  Biso   1.000  O
  C430     1.0000 0.84461  0.15539  0.18897  Biso   1.000  C
  C431     1.0000 0.88406  0.11594  0.27667  Biso   1.000  C
  C432     1.0000 0.92503  0.07497  0.18207  Biso   1.000  C
  O85      1.0000 0.85954  0.42977  0.65330  Biso   1.000  O
  C433     1.0000 0.97744  0.48872  0.52230  Biso   1.000  C
  C434     1.0000 0.89854  0.44927  0.61000  Biso   1.000  C
  C435     1.0000 0.81660  0.40830  0.51540  Biso   1.000  C
  O86      1.0000 0.52621  0.76310  0.98663  Biso   1.000  O
  C436     1.0000 0.64411  0.82205  0.85563  Biso   1.000  C
  C437     1.0000 0.56521  0.78260  0.94333  Biso   1.000  C
  C438     1.0000 0.48327  0.74163  0.84873  Biso   1.000  C
  O87      1.0000 0.19287  0.09644  0.31997  Biso   1.000  O
  C439     1.0000 0.31077  0.15539  0.18897  Biso   1.000  C
  C440     1.0000 0.23187  0.11594  0.27667  Biso   1.000  C
  C441     1.0000 0.14993  0.07497  0.18207  Biso   1.000  C
  O88      1.0000 0.57023  0.14046  0.65330  Biso   1.000  O
  C442     1.0000 0.51128  0.02256  0.52230  Biso   1.000  C
  C443     1.0000 0.55073  0.10146  0.61000  Biso   1.000  C
  C444     1.0000 0.59170  0.18340  0.51540  Biso   1.000  C
  O89      1.0000 0.23690  0.47379  0.98663  Biso   1.000  O
  C445     1.0000 0.17795  0.35589  0.85563  Biso   1.000  C
  C446     1.0000 0.21740  0.43479  0.94333  Biso   1.000  C
  C447     1.0000 0.25837  0.51673  0.84873  Biso   1.000  C
  O90      1.0000 0.90356  0.80713  0.31997  Biso   1.000  O
  C448     1.0000 0.84461  0.68923  0.18897  Biso   1.000  C
  C449     1.0000 0.88406  0.76813  0.27667  Biso   1.000  C
  C450     1.0000 0.92503  0.85007  0.18207  Biso   1.000  C
