data_image0
_cell_length_a       35.2842
_cell_length_b       35.2842
_cell_length_c       21.0449
_cell_angle_alpha    90
_cell_angle_beta     90
_cell_angle_gamma    120

_symmetry_space_group_name_H-M    "P 1"
_symmetry_int_tables_number       1

loop_
  _symmetry_equiv_pos_as_xyz
  'x, y, z'

loop_
  _atom_site_label
  _atom_site_occupancy
  _atom_site_fract_x
  _atom_site_fract_y
  _atom_site_fract_z
  _atom_site_thermal_displace_type
  _atom_site_B_iso_or_equiv
  _atom_site_type_symbol
  O1       1.0000 0.30344  0.19074  0.23840  Biso   1.000  O
  O2       1.0000 0.27769  0.17778  0.13747  Biso   1.000  O
  C1       1.0000 0.27848  0.18987  0.19457  Biso   1.000  C
  C2       1.0000 0.24686  0.20477  0.21276  Biso   1.000  C
  C3       1.0000 0.21874  0.20636  0.16651  Biso   1.000  C
  H1       1.0000 0.21900  0.19680  0.12440  Biso   1.000  H
  C4       1.0000 0.19087  0.22165  0.18204  Biso   1.000  C
  H2       1.0000 0.17270  0.22340  0.15020  Biso   1.000  H
  C5       1.0000 0.18908  0.23455  0.24386  Biso   1.000  C
  C6       1.0000 0.21675  0.23283  0.28984  Biso   1.000  C
  H3       1.0000 0.21590  0.24170  0.33220  Biso   1.000  H
  C7       1.0000 0.24576  0.21806  0.27381  Biso   1.000  C
  H4       1.0000 0.26470  0.21720  0.30520  Biso   1.000  H
  C8       1.0000 0.16153  0.25399  0.26132  Biso   1.000  C
  C9       1.0000 0.17970  0.29200  0.29730  Biso   1.000  C
  H5       1.0000 0.20930  0.30450  0.31040  Biso   1.000  H
  C10      1.0000 0.08790  0.15520  0.24600  Biso   1.000  C
  C11      1.0000 0.07420  0.12070  0.18540  Biso   1.000  C
  C12      1.0000 0.08960  0.14260  0.30380  Biso   1.000  C
  O3       1.0000 0.97011  0.52407  0.57173  Biso   1.000  O
  O4       1.0000 0.94436  0.51111  0.47080  Biso   1.000  O
  C13      1.0000 0.94515  0.52320  0.52790  Biso   1.000  C
  C14      1.0000 0.91353  0.53810  0.54609  Biso   1.000  C
  C15      1.0000 0.88541  0.53969  0.49984  Biso   1.000  C
  H6       1.0000 0.88567  0.53013  0.45773  Biso   1.000  H
  C16      1.0000 0.85754  0.55498  0.51537  Biso   1.000  C
  H7       1.0000 0.83937  0.55673  0.48353  Biso   1.000  H
  C17      1.0000 0.85575  0.56788  0.57719  Biso   1.000  C
  C18      1.0000 0.88342  0.56616  0.62317  Biso   1.000  C
  H8       1.0000 0.88257  0.57503  0.66553  Biso   1.000  H
  C19      1.0000 0.91243  0.55139  0.60714  Biso   1.000  C
  H9       1.0000 0.93137  0.55053  0.63853  Biso   1.000  H
  C20      1.0000 0.82820  0.58732  0.59465  Biso   1.000  C
  C21      1.0000 0.84637  0.62533  0.63063  Biso   1.000  C
  H10      1.0000 0.87597  0.63783  0.64373  Biso   1.000  H
  C22      1.0000 0.75457  0.48853  0.57933  Biso   1.000  C
  C23      1.0000 0.74087  0.45403  0.51873  Biso   1.000  C
  C24      1.0000 0.75627  0.47593  0.63713  Biso   1.000  C
  O5       1.0000 0.63677  0.85741  0.90507  Biso   1.000  O
  O6       1.0000 0.61102  0.84445  0.80414  Biso   1.000  O
  C25      1.0000 0.61181  0.85654  0.86124  Biso   1.000  C
  C26      1.0000 0.58019  0.87144  0.87943  Biso   1.000  C
  C27      1.0000 0.55207  0.87303  0.83318  Biso   1.000  C
  H11      1.0000 0.55233  0.86347  0.79107  Biso   1.000  H
  C28      1.0000 0.52420  0.88832  0.84871  Biso   1.000  C
  H12      1.0000 0.50603  0.89007  0.81687  Biso   1.000  H
  C29      1.0000 0.52241  0.90122  0.91053  Biso   1.000  C
  C30      1.0000 0.55008  0.89950  0.95651  Biso   1.000  C
  H13      1.0000 0.54923  0.90837  0.99887  Biso   1.000  H
  C31      1.0000 0.57909  0.88473  0.94048  Biso   1.000  C
  H14      1.0000 0.59803  0.88387  0.97187  Biso   1.000  H
  C32      1.0000 0.49486  0.92066  0.92799  Biso   1.000  C
  C33      1.0000 0.51303  0.95867  0.96397  Biso   1.000  C
  H15      1.0000 0.54263  0.97117  0.97707  Biso   1.000  H
  C34      1.0000 0.42123  0.82187  0.91267  Biso   1.000  C
  C35      1.0000 0.40753  0.78737  0.85207  Biso   1.000  C
  C36      1.0000 0.42293  0.80927  0.97047  Biso   1.000  C
  O7       1.0000 0.80926  0.11270  0.23840  Biso   1.000  O
  O8       1.0000 0.82222  0.09991  0.13747  Biso   1.000  O
  C37      1.0000 0.81013  0.08861  0.19457  Biso   1.000  C
  C38      1.0000 0.79523  0.04209  0.21276  Biso   1.000  C
  C39      1.0000 0.79364  0.01238  0.16651  Biso   1.000  C
  H16      1.0000 0.80320  0.02220  0.12440  Biso   1.000  H
  C40      1.0000 0.77835  0.96922  0.18204  Biso   1.000  C
  H17      1.0000 0.77660  0.94930  0.15020  Biso   1.000  H
  C41      1.0000 0.76545  0.95453  0.24386  Biso   1.000  C
  C42      1.0000 0.76717  0.98392  0.28984  Biso   1.000  C
  H18      1.0000 0.75830  0.97420  0.33220  Biso   1.000  H
  C43      1.0000 0.78194  0.02770  0.27381  Biso   1.000  C
  H19      1.0000 0.78280  0.04750  0.30520  Biso   1.000  H
  C44      1.0000 0.74601  0.90754  0.26132  Biso   1.000  C
  C45      1.0000 0.70800  0.88770  0.29730  Biso   1.000  C
  H20      1.0000 0.69550  0.90480  0.31040  Biso   1.000  H
  C46      1.0000 0.84480  0.93270  0.24600  Biso   1.000  C
  C47      1.0000 0.87930  0.95350  0.18540  Biso   1.000  C
  C48      1.0000 0.85740  0.94700  0.30380  Biso   1.000  C
  O9       1.0000 0.47593  0.44603  0.57173  Biso   1.000  O
  O10      1.0000 0.48889  0.43324  0.47080  Biso   1.000  O
  C49      1.0000 0.47680  0.42194  0.52790  Biso   1.000  C
  C50      1.0000 0.46190  0.37542  0.54609  Biso   1.000  C
  C51      1.0000 0.46031  0.34571  0.49984  Biso   1.000  C
  H21      1.0000 0.46987  0.35553  0.45773  Biso   1.000  H
  C52      1.0000 0.44502  0.30255  0.51537  Biso   1.000  C
  H22      1.0000 0.44327  0.28263  0.48353  Biso   1.000  H
  C53      1.0000 0.43212  0.28786  0.57719  Biso   1.000  C
  C54      1.0000 0.43384  0.31725  0.62317  Biso   1.000  C
  H23      1.0000 0.42497  0.30753  0.66553  Biso   1.000  H
  C55      1.0000 0.44861  0.36103  0.60714  Biso   1.000  C
  H24      1.0000 0.44947  0.38083  0.63853  Biso   1.000  H
  C56      1.0000 0.41268  0.24087  0.59465  Biso   1.000  C
  C57      1.0000 0.37467  0.22103  0.63063  Biso   1.000  C
  H25      1.0000 0.36217  0.23813  0.64373  Biso   1.000  H
  C58      1.0000 0.51147  0.26603  0.57933  Biso   1.000  C
  C59      1.0000 0.54597  0.28683  0.51873  Biso   1.000  C
  C60      1.0000 0.52407  0.28033  0.63713  Biso   1.000  C
  O11      1.0000 0.14259  0.77937  0.90507  Biso   1.000  O
  O12      1.0000 0.15555  0.76658  0.80414  Biso   1.000  O
  C61      1.0000 0.14346  0.75528  0.86124  Biso   1.000  C
  C62      1.0000 0.12856  0.70876  0.87943  Biso   1.000  C
  C63      1.0000 0.12697  0.67905  0.83318  Biso   1.000  C
  H26      1.0000 0.13653  0.68887  0.79107  Biso   1.000  H
  C64      1.0000 0.11168  0.63589  0.84871  Biso   1.000  C
  H27      1.0000 0.10993  0.61597  0.81687  Biso   1.000  H
  C65      1.0000 0.09878  0.62120  0.91053  Biso   1.000  C
  C66      1.0000 0.10050  0.65059  0.95651  Biso   1.000  C
  H28      1.0000 0.09163  0.64087  0.99887  Biso   1.000  H
  C67      1.0000 0.11527  0.69437  0.94048  Biso   1.000  C
  H29      1.0000 0.11613  0.71417  0.97187  Biso   1.000  H
  C68      1.0000 0.07934  0.57421  0.92799  Biso   1.000  C
  C69      1.0000 0.04133  0.55437  0.96397  Biso   1.000  C
  H30      1.0000 0.02883  0.57147  0.97707  Biso   1.000  H
  C70      1.0000 0.17813  0.59937  0.91267  Biso   1.000  C
  C71      1.0000 0.21263  0.62017  0.85207  Biso   1.000  C
  C72      1.0000 0.19073  0.61367  0.97047  Biso   1.000  C
  O13      1.0000 0.88730  0.69656  0.23840  Biso   1.000  O
  O14      1.0000 0.90009  0.72231  0.13747  Biso   1.000  O
  C73      1.0000 0.91139  0.72152  0.19457  Biso   1.000  C
  C74      1.0000 0.95791  0.75314  0.21276  Biso   1.000  C
  C75      1.0000 0.98762  0.78126  0.16651  Biso   1.000  C
  H31      1.0000 0.97780  0.78100  0.12440  Biso   1.000  H
  C76      1.0000 0.03078  0.80913  0.18204  Biso   1.000  C
  H32      1.0000 0.05070  0.82730  0.15020  Biso   1.000  H
  C77      1.0000 0.04547  0.81092  0.24386  Biso   1.000  C
  C78      1.0000 0.01608  0.78325  0.28984  Biso   1.000  C
  H33      1.0000 0.02580  0.78410  0.33220  Biso   1.000  H
  C79      1.0000 0.97230  0.75424  0.27381  Biso   1.000  C
  H34      1.0000 0.95250  0.73530  0.30520  Biso   1.000  H
  C80      1.0000 0.09246  0.83847  0.26132  Biso   1.000  C
  C81      1.0000 0.11230  0.82030  0.29730  Biso   1.000  C
  H35      1.0000 0.09520  0.79070  0.31040  Biso   1.000  H
  C82      1.0000 0.06730  0.91210  0.24600  Biso   1.000  C
  C83      1.0000 0.04650  0.92580  0.18540  Biso   1.000  C
  C84      1.0000 0.05300  0.91040  0.30380  Biso   1.000  C
  O15      1.0000 0.55397  0.02989  0.57173  Biso   1.000  O
  O16      1.0000 0.56676  0.05564  0.47080  Biso   1.000  O
  C85      1.0000 0.57806  0.05485  0.52790  Biso   1.000  C
  C86      1.0000 0.62458  0.08647  0.54609  Biso   1.000  C
  C87      1.0000 0.65429  0.11459  0.49984  Biso   1.000  C
  H36      1.0000 0.64447  0.11433  0.45773  Biso   1.000  H
  C88      1.0000 0.69745  0.14246  0.51537  Biso   1.000  C
  H37      1.0000 0.71737  0.16063  0.48353  Biso   1.000  H
  C89      1.0000 0.71214  0.14425  0.57719  Biso   1.000  C
  C90      1.0000 0.68275  0.11658  0.62317  Biso   1.000  C
  H38      1.0000 0.69247  0.11743  0.66553  Biso   1.000  H
  C91      1.0000 0.63897  0.08757  0.60714  Biso   1.000  C
  H39      1.0000 0.61917  0.06863  0.63853  Biso   1.000  H
  C92      1.0000 0.75913  0.17180  0.59465  Biso   1.000  C
  C93      1.0000 0.77897  0.15363  0.63063  Biso   1.000  C
  H40      1.0000 0.76187  0.12403  0.64373  Biso   1.000  H
  C94      1.0000 0.73397  0.24543  0.57933  Biso   1.000  C
  C95      1.0000 0.71317  0.25913  0.51873  Biso   1.000  C
  C96      1.0000 0.71967  0.24373  0.63713  Biso   1.000  C
  O17      1.0000 0.22063  0.36323  0.90507  Biso   1.000  O
  O18      1.0000 0.23342  0.38898  0.80414  Biso   1.000  O
  C97      1.0000 0.24472  0.38819  0.86124  Biso   1.000  C
  C98      1.0000 0.29124  0.41981  0.87943  Biso   1.000  C
  C99      1.0000 0.32095  0.44793  0.83318  Biso   1.000  C
  H41      1.0000 0.31113  0.44767  0.79107  Biso   1.000  H
  C100     1.0000 0.36411  0.47580  0.84871  Biso   1.000  C
  H42      1.0000 0.38403  0.49397  0.81687  Biso   1.000  H
  C101     1.0000 0.37880  0.47759  0.91053  Biso   1.000  C
  C102     1.0000 0.34941  0.44992  0.95651  Biso   1.000  C
  H43      1.0000 0.35913  0.45077  0.99887  Biso   1.000  H
  C103     1.0000 0.30563  0.42091  0.94048  Biso   1.000  C
  H44      1.0000 0.28583  0.40197  0.97187  Biso   1.000  H
  C104     1.0000 0.42579  0.50514  0.92799  Biso   1.000  C
  C105     1.0000 0.44563  0.48697  0.96397  Biso   1.000  C
  H45      1.0000 0.42853  0.45737  0.97707  Biso   1.000  H
  C106     1.0000 0.40063  0.57877  0.91267  Biso   1.000  C
  C107     1.0000 0.37983  0.59247  0.85207  Biso   1.000  C
  C108     1.0000 0.38633  0.57707  0.97047  Biso   1.000  C
  O19      1.0000 0.19074  0.30344  0.76160  Biso   1.000  O
  O20      1.0000 0.17778  0.27769  0.86253  Biso   1.000  O
  C109     1.0000 0.18987  0.27848  0.80543  Biso   1.000  C
  C110     1.0000 0.20477  0.24686  0.78724  Biso   1.000  C
  C111     1.0000 0.20636  0.21874  0.83349  Biso   1.000  C
  H46      1.0000 0.19680  0.21900  0.87560  Biso   1.000  H
  C112     1.0000 0.22165  0.19087  0.81796  Biso   1.000  C
  H47      1.0000 0.22340  0.17270  0.84980  Biso   1.000  H
  C113     1.0000 0.23455  0.18908  0.75614  Biso   1.000  C
  C114     1.0000 0.23283  0.21675  0.71016  Biso   1.000  C
  H48      1.0000 0.24170  0.21590  0.66780  Biso   1.000  H
  C115     1.0000 0.21806  0.24576  0.72619  Biso   1.000  C
  H49      1.0000 0.21720  0.26470  0.69480  Biso   1.000  H
  C116     1.0000 0.25399  0.16153  0.73868  Biso   1.000  C
  C117     1.0000 0.29200  0.17970  0.70270  Biso   1.000  C
  H50      1.0000 0.30450  0.20930  0.68960  Biso   1.000  H
  C118     1.0000 0.15520  0.08790  0.75400  Biso   1.000  C
  C119     1.0000 0.12070  0.07420  0.81460  Biso   1.000  C
  C120     1.0000 0.14260  0.08960  0.69620  Biso   1.000  C
  O21      1.0000 0.85741  0.63677  0.09493  Biso   1.000  O
  O22      1.0000 0.84445  0.61102  0.19586  Biso   1.000  O
  C121     1.0000 0.85654  0.61181  0.13876  Biso   1.000  C
  C122     1.0000 0.87144  0.58019  0.12057  Biso   1.000  C
  C123     1.0000 0.87303  0.55207  0.16682  Biso   1.000  C
  H51      1.0000 0.86347  0.55233  0.20893  Biso   1.000  H
  C124     1.0000 0.88832  0.52420  0.15129  Biso   1.000  C
  H52      1.0000 0.89007  0.50603  0.18313  Biso   1.000  H
  C125     1.0000 0.90122  0.52241  0.08947  Biso   1.000  C
  C126     1.0000 0.89950  0.55008  0.04349  Biso   1.000  C
  H53      1.0000 0.90837  0.54923  0.00113  Biso   1.000  H
  C127     1.0000 0.88473  0.57909  0.05952  Biso   1.000  C
  H54      1.0000 0.88387  0.59803  0.02813  Biso   1.000  H
  C128     1.0000 0.92066  0.49486  0.07201  Biso   1.000  C
  C129     1.0000 0.95867  0.51303  0.03603  Biso   1.000  C
  H55      1.0000 0.97117  0.54263  0.02293  Biso   1.000  H
  C130     1.0000 0.82187  0.42123  0.08733  Biso   1.000  C
  C131     1.0000 0.78737  0.40753  0.14793  Biso   1.000  C
  C132     1.0000 0.80927  0.42293  0.02953  Biso   1.000  C
  O23      1.0000 0.52407  0.97011  0.42827  Biso   1.000  O
  O24      1.0000 0.51111  0.94436  0.52920  Biso   1.000  O
  C133     1.0000 0.52320  0.94515  0.47210  Biso   1.000  C
  C134     1.0000 0.53810  0.91353  0.45391  Biso   1.000  C
  C135     1.0000 0.53969  0.88541  0.50016  Biso   1.000  C
  H56      1.0000 0.53013  0.88567  0.54227  Biso   1.000  H
  C136     1.0000 0.55498  0.85754  0.48463  Biso   1.000  C
  H57      1.0000 0.55673  0.83937  0.51647  Biso   1.000  H
  C137     1.0000 0.56788  0.85575  0.42281  Biso   1.000  C
  C138     1.0000 0.56616  0.88342  0.37683  Biso   1.000  C
  H58      1.0000 0.57503  0.88257  0.33447  Biso   1.000  H
  C139     1.0000 0.55139  0.91243  0.39286  Biso   1.000  C
  H59      1.0000 0.55053  0.93137  0.36147  Biso   1.000  H
  C140     1.0000 0.58732  0.82820  0.40535  Biso   1.000  C
  C141     1.0000 0.62533  0.84637  0.36937  Biso   1.000  C
  H60      1.0000 0.63783  0.87597  0.35627  Biso   1.000  H
  C142     1.0000 0.48853  0.75457  0.42067  Biso   1.000  C
  C143     1.0000 0.45403  0.74087  0.48127  Biso   1.000  C
  C144     1.0000 0.47593  0.75627  0.36287  Biso   1.000  C
  O25      1.0000 0.11270  0.80926  0.76160  Biso   1.000  O
  O26      1.0000 0.09991  0.82222  0.86253  Biso   1.000  O
  C145     1.0000 0.08861  0.81013  0.80543  Biso   1.000  C
  C146     1.0000 0.04209  0.79523  0.78724  Biso   1.000  C
  C147     1.0000 0.01238  0.79364  0.83349  Biso   1.000  C
  H61      1.0000 0.02220  0.80320  0.87560  Biso   1.000  H
  C148     1.0000 0.96922  0.77835  0.81796  Biso   1.000  C
  H62      1.0000 0.94930  0.77660  0.84980  Biso   1.000  H
  C149     1.0000 0.95453  0.76545  0.75614  Biso   1.000  C
  C150     1.0000 0.98392  0.76717  0.71016  Biso   1.000  C
  H63      1.0000 0.97420  0.75830  0.66780  Biso   1.000  H
  C151     1.0000 0.02770  0.78194  0.72619  Biso   1.000  C
  H64      1.0000 0.04750  0.78280  0.69480  Biso   1.000  H
  C152     1.0000 0.90754  0.74601  0.73868  Biso   1.000  C
  C153     1.0000 0.88770  0.70800  0.70270  Biso   1.000  C
  H65      1.0000 0.90480  0.69550  0.68960  Biso   1.000  H
  C154     1.0000 0.93270  0.84480  0.75400  Biso   1.000  C
  C155     1.0000 0.95350  0.87930  0.81460  Biso   1.000  C
  C156     1.0000 0.94700  0.85740  0.69620  Biso   1.000  C
  O27      1.0000 0.77937  0.14259  0.09493  Biso   1.000  O
  O28      1.0000 0.76658  0.15555  0.19586  Biso   1.000  O
  C157     1.0000 0.75528  0.14346  0.13876  Biso   1.000  C
  C158     1.0000 0.70876  0.12856  0.12057  Biso   1.000  C
  C159     1.0000 0.67905  0.12697  0.16682  Biso   1.000  C
  H66      1.0000 0.68887  0.13653  0.20893  Biso   1.000  H
  C160     1.0000 0.63589  0.11168  0.15129  Biso   1.000  C
  H67      1.0000 0.61597  0.10993  0.18313  Biso   1.000  H
  C161     1.0000 0.62120  0.09878  0.08947  Biso   1.000  C
  C162     1.0000 0.65059  0.10050  0.04349  Biso   1.000  C
  H68      1.0000 0.64087  0.09163  0.00113  Biso   1.000  H
  C163     1.0000 0.69437  0.11527  0.05952  Biso   1.000  C
  H69      1.0000 0.71417  0.11613  0.02813  Biso   1.000  H
  C164     1.0000 0.57421  0.07934  0.07201  Biso   1.000  C
  C165     1.0000 0.55437  0.04133  0.03603  Biso   1.000  C
  H70      1.0000 0.57147  0.02883  0.02293  Biso   1.000  H
  C166     1.0000 0.59937  0.17813  0.08733  Biso   1.000  C
  C167     1.0000 0.62017  0.21263  0.14793  Biso   1.000  C
  C168     1.0000 0.61367  0.19073  0.02953  Biso   1.000  C
  O29      1.0000 0.44603  0.47593  0.42827  Biso   1.000  O
  O30      1.0000 0.43324  0.48889  0.52920  Biso   1.000  O
  C169     1.0000 0.42194  0.47680  0.47210  Biso   1.000  C
  C170     1.0000 0.37542  0.46190  0.45391  Biso   1.000  C
  C171     1.0000 0.34571  0.46031  0.50016  Biso   1.000  C
  H71      1.0000 0.35553  0.46987  0.54227  Biso   1.000  H
  C172     1.0000 0.30255  0.44502  0.48463  Biso   1.000  C
  H72      1.0000 0.28263  0.44327  0.51647  Biso   1.000  H
  C173     1.0000 0.28786  0.43212  0.42281  Biso   1.000  C
  C174     1.0000 0.31725  0.43384  0.37683  Biso   1.000  C
  H73      1.0000 0.30753  0.42497  0.33447  Biso   1.000  H
  C175     1.0000 0.36103  0.44861  0.39286  Biso   1.000  C
  H74      1.0000 0.38083  0.44947  0.36147  Biso   1.000  H
  C176     1.0000 0.24087  0.41268  0.40535  Biso   1.000  C
  C177     1.0000 0.22103  0.37467  0.36937  Biso   1.000  C
  H75      1.0000 0.23813  0.36217  0.35627  Biso   1.000  H
  C178     1.0000 0.26603  0.51147  0.42067  Biso   1.000  C
  C179     1.0000 0.28683  0.54597  0.48127  Biso   1.000  C
  C180     1.0000 0.28033  0.52407  0.36287  Biso   1.000  C
  O31      1.0000 0.69656  0.88730  0.76160  Biso   1.000  O
  O32      1.0000 0.72231  0.90009  0.86253  Biso   1.000  O
  C181     1.0000 0.72152  0.91139  0.80543  Biso   1.000  C
  C182     1.0000 0.75314  0.95791  0.78724  Biso   1.000  C
  C183     1.0000 0.78126  0.98762  0.83349  Biso   1.000  C
  H76      1.0000 0.78100  0.97780  0.87560  Biso   1.000  H
  C184     1.0000 0.80913  0.03078  0.81796  Biso   1.000  C
  H77      1.0000 0.82730  0.05070  0.84980  Biso   1.000  H
  C185     1.0000 0.81092  0.04547  0.75614  Biso   1.000  C
  C186     1.0000 0.78325  0.01608  0.71016  Biso   1.000  C
  H78      1.0000 0.78410  0.02580  0.66780  Biso   1.000  H
  C187     1.0000 0.75424  0.97230  0.72619  Biso   1.000  C
  H79      1.0000 0.73530  0.95250  0.69480  Biso   1.000  H
  C188     1.0000 0.83847  0.09246  0.73868  Biso   1.000  C
  C189     1.0000 0.82030  0.11230  0.70270  Biso   1.000  C
  H80      1.0000 0.79070  0.09520  0.68960  Biso   1.000  H
  C190     1.0000 0.91210  0.06730  0.75400  Biso   1.000  C
  C191     1.0000 0.92580  0.04650  0.81460  Biso   1.000  C
  C192     1.0000 0.91040  0.05300  0.69620  Biso   1.000  C
  O33      1.0000 0.36323  0.22063  0.09493  Biso   1.000  O
  O34      1.0000 0.38898  0.23342  0.19586  Biso   1.000  O
  C193     1.0000 0.38819  0.24472  0.13876  Biso   1.000  C
  C194     1.0000 0.41981  0.29124  0.12057  Biso   1.000  C
  C195     1.0000 0.44793  0.32095  0.16682  Biso   1.000  C
  H81      1.0000 0.44767  0.31113  0.20893  Biso   1.000  H
  C196     1.0000 0.47580  0.36411  0.15129  Biso   1.000  C
  H82      1.0000 0.49397  0.38403  0.18313  Biso   1.000  H
  C197     1.0000 0.47759  0.37880  0.08947  Biso   1.000  C
  C198     1.0000 0.44992  0.34941  0.04349  Biso   1.000  C
  H83      1.0000 0.45077  0.35913  0.00113  Biso   1.000  H
  C199     1.0000 0.42091  0.30563  0.05952  Biso   1.000  C
  H84      1.0000 0.40197  0.28583  0.02813  Biso   1.000  H
  C200     1.0000 0.50514  0.42579  0.07201  Biso   1.000  C
  C201     1.0000 0.48697  0.44563  0.03603  Biso   1.000  C
  H85      1.0000 0.45737  0.42853  0.02293  Biso   1.000  H
  C202     1.0000 0.57877  0.40063  0.08733  Biso   1.000  C
  C203     1.0000 0.59247  0.37983  0.14793  Biso   1.000  C
  C204     1.0000 0.57707  0.38633  0.02953  Biso   1.000  C
  O35      1.0000 0.02989  0.55397  0.42827  Biso   1.000  O
  O36      1.0000 0.05564  0.56676  0.52920  Biso   1.000  O
  C205     1.0000 0.05485  0.57806  0.47210  Biso   1.000  C
  C206     1.0000 0.08647  0.62458  0.45391  Biso   1.000  C
  C207     1.0000 0.11459  0.65429  0.50016  Biso   1.000  C
  H86      1.0000 0.11433  0.64447  0.54227  Biso   1.000  H
  C208     1.0000 0.14246  0.69745  0.48463  Biso   1.000  C
  H87      1.0000 0.16063  0.71737  0.51647  Biso   1.000  H
  C209     1.0000 0.14425  0.71214  0.42281  Biso   1.000  C
  C210     1.0000 0.11658  0.68275  0.37683  Biso   1.000  C
  H88      1.0000 0.11743  0.69247  0.33447  Biso   1.000  H
  C211     1.0000 0.08757  0.63897  0.39286  Biso   1.000  C
  H89      1.0000 0.06863  0.61917  0.36147  Biso   1.000  H
  C212     1.0000 0.17180  0.75913  0.40535  Biso   1.000  C
  C213     1.0000 0.15363  0.77897  0.36937  Biso   1.000  C
  H90      1.0000 0.12403  0.76187  0.35627  Biso   1.000  H
  C214     1.0000 0.24543  0.73397  0.42067  Biso   1.000  C
  C215     1.0000 0.25913  0.71317  0.48127  Biso   1.000  C
  C216     1.0000 0.24373  0.71967  0.36287  Biso   1.000  C
  O37      1.0000 0.69656  0.80926  0.76160  Biso   1.000  O
  O38      1.0000 0.72231  0.82222  0.86253  Biso   1.000  O
  C217     1.0000 0.72152  0.81013  0.80543  Biso   1.000  C
  C218     1.0000 0.75314  0.79523  0.78724  Biso   1.000  C
  C219     1.0000 0.78126  0.79364  0.83349  Biso   1.000  C
  H91      1.0000 0.78100  0.80320  0.87560  Biso   1.000  H
  C220     1.0000 0.80913  0.77835  0.81796  Biso   1.000  C
  H92      1.0000 0.82730  0.77660  0.84980  Biso   1.000  H
  C221     1.0000 0.81092  0.76545  0.75614  Biso   1.000  C
  C222     1.0000 0.78325  0.76717  0.71016  Biso   1.000  C
  H93      1.0000 0.78410  0.75830  0.66780  Biso   1.000  H
  C223     1.0000 0.75424  0.78194  0.72619  Biso   1.000  C
  H94      1.0000 0.73530  0.78280  0.69480  Biso   1.000  H
  C224     1.0000 0.83847  0.74601  0.73868  Biso   1.000  C
  C225     1.0000 0.82030  0.70800  0.70270  Biso   1.000  C
  H95      1.0000 0.79070  0.69550  0.68960  Biso   1.000  H
  C226     1.0000 0.91210  0.84480  0.75400  Biso   1.000  C
  C227     1.0000 0.92580  0.87930  0.81460  Biso   1.000  C
  C228     1.0000 0.91040  0.85740  0.69620  Biso   1.000  C
  O39      1.0000 0.36323  0.14259  0.09493  Biso   1.000  O
  O40      1.0000 0.38898  0.15555  0.19586  Biso   1.000  O
  C229     1.0000 0.38819  0.14346  0.13876  Biso   1.000  C
  C230     1.0000 0.41981  0.12856  0.12057  Biso   1.000  C
  C231     1.0000 0.44793  0.12697  0.16682  Biso   1.000  C
  H96      1.0000 0.44767  0.13653  0.20893  Biso   1.000  H
  C232     1.0000 0.47580  0.11168  0.15129  Biso   1.000  C
  H97      1.0000 0.49397  0.10993  0.18313  Biso   1.000  H
  C233     1.0000 0.47759  0.09878  0.08947  Biso   1.000  C
  C234     1.0000 0.44992  0.10050  0.04349  Biso   1.000  C
  H98      1.0000 0.45077  0.09163  0.00113  Biso   1.000  H
  C235     1.0000 0.42091  0.11527  0.05952  Biso   1.000  C
  H99      1.0000 0.40197  0.11613  0.02813  Biso   1.000  H
  C236     1.0000 0.50514  0.07934  0.07201  Biso   1.000  C
  C237     1.0000 0.48697  0.04133  0.03603  Biso   1.000  C
  H100     1.0000 0.45737  0.02883  0.02293  Biso   1.000  H
  C238     1.0000 0.57877  0.17813  0.08733  Biso   1.000  C
  C239     1.0000 0.59247  0.21263  0.14793  Biso   1.000  C
  C240     1.0000 0.57707  0.19073  0.02953  Biso   1.000  C
  O41      1.0000 0.02989  0.47593  0.42827  Biso   1.000  O
  O42      1.0000 0.05564  0.48889  0.52920  Biso   1.000  O
  C241     1.0000 0.05485  0.47680  0.47210  Biso   1.000  C
  C242     1.0000 0.08647  0.46190  0.45391  Biso   1.000  C
  C243     1.0000 0.11459  0.46031  0.50016  Biso   1.000  C
  H101     1.0000 0.11433  0.46987  0.54227  Biso   1.000  H
  C244     1.0000 0.14246  0.44502  0.48463  Biso   1.000  C
  H102     1.0000 0.16063  0.44327  0.51647  Biso   1.000  H
  C245     1.0000 0.14425  0.43212  0.42281  Biso   1.000  C
  C246     1.0000 0.11658  0.43384  0.37683  Biso   1.000  C
  H103     1.0000 0.11743  0.42497  0.33447  Biso   1.000  H
  C247     1.0000 0.08757  0.44861  0.39286  Biso   1.000  C
  H104     1.0000 0.06863  0.44947  0.36147  Biso   1.000  H
  C248     1.0000 0.17180  0.41268  0.40535  Biso   1.000  C
  C249     1.0000 0.15363  0.37467  0.36937  Biso   1.000  C
  H105     1.0000 0.12403  0.36217  0.35627  Biso   1.000  H
  C250     1.0000 0.24543  0.51147  0.42067  Biso   1.000  C
  C251     1.0000 0.25913  0.54597  0.48127  Biso   1.000  C
  C252     1.0000 0.24373  0.52407  0.36287  Biso   1.000  C
  O43      1.0000 0.19074  0.88730  0.76160  Biso   1.000  O
  O44      1.0000 0.17778  0.90009  0.86253  Biso   1.000  O
  C253     1.0000 0.18987  0.91139  0.80543  Biso   1.000  C
  C254     1.0000 0.20477  0.95791  0.78724  Biso   1.000  C
  C255     1.0000 0.20636  0.98762  0.83349  Biso   1.000  C
  H106     1.0000 0.19680  0.97780  0.87560  Biso   1.000  H
  C256     1.0000 0.22165  0.03078  0.81796  Biso   1.000  C
  H107     1.0000 0.22340  0.05070  0.84980  Biso   1.000  H
  C257     1.0000 0.23455  0.04547  0.75614  Biso   1.000  C
  C258     1.0000 0.23283  0.01608  0.71016  Biso   1.000  C
  H108     1.0000 0.24170  0.02580  0.66780  Biso   1.000  H
  C259     1.0000 0.21806  0.97230  0.72619  Biso   1.000  C
  H109     1.0000 0.21720  0.95250  0.69480  Biso   1.000  H
  C260     1.0000 0.25399  0.09246  0.73868  Biso   1.000  C
  C261     1.0000 0.29200  0.11230  0.70270  Biso   1.000  C
  H110     1.0000 0.30450  0.09520  0.68960  Biso   1.000  H
  C262     1.0000 0.15520  0.06730  0.75400  Biso   1.000  C
  C263     1.0000 0.12070  0.04650  0.81460  Biso   1.000  C
  C264     1.0000 0.14260  0.05300  0.69620  Biso   1.000  C
  O45      1.0000 0.85741  0.22063  0.09493  Biso   1.000  O
  O46      1.0000 0.84445  0.23342  0.19586  Biso   1.000  O
  C265     1.0000 0.85654  0.24472  0.13876  Biso   1.000  C
  C266     1.0000 0.87144  0.29124  0.12057  Biso   1.000  C
  C267     1.0000 0.87303  0.32095  0.16682  Biso   1.000  C
  H111     1.0000 0.86347  0.31113  0.20893  Biso   1.000  H
  C268     1.0000 0.88832  0.36411  0.15129  Biso   1.000  C
  H112     1.0000 0.89007  0.38403  0.18313  Biso   1.000  H
  C269     1.0000 0.90122  0.37880  0.08947  Biso   1.000  C
  C270     1.0000 0.89950  0.34941  0.04349  Biso   1.000  C
  H113     1.0000 0.90837  0.35913  0.00113  Biso   1.000  H
  C271     1.0000 0.88473  0.30563  0.05952  Biso   1.000  C
  H114     1.0000 0.88387  0.28583  0.02813  Biso   1.000  H
  C272     1.0000 0.92066  0.42579  0.07201  Biso   1.000  C
  C273     1.0000 0.95867  0.44563  0.03603  Biso   1.000  C
  H115     1.0000 0.97117  0.42853  0.02293  Biso   1.000  H
  C274     1.0000 0.82187  0.40063  0.08733  Biso   1.000  C
  C275     1.0000 0.78737  0.37983  0.14793  Biso   1.000  C
  C276     1.0000 0.80927  0.38633  0.02953  Biso   1.000  C
  O47      1.0000 0.52407  0.55397  0.42827  Biso   1.000  O
  O48      1.0000 0.51111  0.56676  0.52920  Biso   1.000  O
  C277     1.0000 0.52320  0.57806  0.47210  Biso   1.000  C
  C278     1.0000 0.53810  0.62458  0.45391  Biso   1.000  C
  C279     1.0000 0.53969  0.65429  0.50016  Biso   1.000  C
  H116     1.0000 0.53013  0.64447  0.54227  Biso   1.000  H
  C280     1.0000 0.55498  0.69745  0.48463  Biso   1.000  C
  H117     1.0000 0.55673  0.71737  0.51647  Biso   1.000  H
  C281     1.0000 0.56788  0.71214  0.42281  Biso   1.000  C
  C282     1.0000 0.56616  0.68275  0.37683  Biso   1.000  C
  H118     1.0000 0.57503  0.69247  0.33447  Biso   1.000  H
  C283     1.0000 0.55139  0.63897  0.39286  Biso   1.000  C
  H119     1.0000 0.55053  0.61917  0.36147  Biso   1.000  H
  C284     1.0000 0.58732  0.75913  0.40535  Biso   1.000  C
  C285     1.0000 0.62533  0.77897  0.36937  Biso   1.000  C
  H120     1.0000 0.63783  0.76187  0.35627  Biso   1.000  H
  C286     1.0000 0.48853  0.73397  0.42067  Biso   1.000  C
  C287     1.0000 0.45403  0.71317  0.48127  Biso   1.000  C
  C288     1.0000 0.47593  0.71967  0.36287  Biso   1.000  C
  O49      1.0000 0.11270  0.30344  0.76160  Biso   1.000  O
  O50      1.0000 0.09991  0.27769  0.86253  Biso   1.000  O
  C289     1.0000 0.08861  0.27848  0.80543  Biso   1.000  C
  C290     1.0000 0.04209  0.24686  0.78724  Biso   1.000  C
  C291     1.0000 0.01238  0.21874  0.83349  Biso   1.000  C
  H121     1.0000 0.02220  0.21900  0.87560  Biso   1.000  H
  C292     1.0000 0.96922  0.19087  0.81796  Biso   1.000  C
  H122     1.0000 0.94930  0.17270  0.84980  Biso   1.000  H
  C293     1.0000 0.95453  0.18908  0.75614  Biso   1.000  C
  C294     1.0000 0.98392  0.21675  0.71016  Biso   1.000  C
  H123     1.0000 0.97420  0.21590  0.66780  Biso   1.000  H
  C295     1.0000 0.02770  0.24576  0.72619  Biso   1.000  C
  H124     1.0000 0.04750  0.26470  0.69480  Biso   1.000  H
  C296     1.0000 0.90754  0.16153  0.73868  Biso   1.000  C
  C297     1.0000 0.88770  0.17970  0.70270  Biso   1.000  C
  H125     1.0000 0.90480  0.20930  0.68960  Biso   1.000  H
  C298     1.0000 0.93270  0.08790  0.75400  Biso   1.000  C
  C299     1.0000 0.95350  0.07420  0.81460  Biso   1.000  C
  C300     1.0000 0.94700  0.08960  0.69620  Biso   1.000  C
  O51      1.0000 0.77937  0.63677  0.09493  Biso   1.000  O
  O52      1.0000 0.76658  0.61102  0.19586  Biso   1.000  O
  C301     1.0000 0.75528  0.61181  0.13876  Biso   1.000  C
  C302     1.0000 0.70876  0.58019  0.12057  Biso   1.000  C
  C303     1.0000 0.67905  0.55207  0.16682  Biso   1.000  C
  H126     1.0000 0.68887  0.55233  0.20893  Biso   1.000  H
  C304     1.0000 0.63589  0.52420  0.15129  Biso   1.000  C
  H127     1.0000 0.61597  0.50603  0.18313  Biso   1.000  H
  C305     1.0000 0.62120  0.52241  0.08947  Biso   1.000  C
  C306     1.0000 0.65059  0.55008  0.04349  Biso   1.000  C
  H128     1.0000 0.64087  0.54923  0.00113  Biso   1.000  H
  C307     1.0000 0.69437  0.57909  0.05952  Biso   1.000  C
  H129     1.0000 0.71417  0.59803  0.02813  Biso   1.000  H
  C308     1.0000 0.57421  0.49486  0.07201  Biso   1.000  C
  C309     1.0000 0.55437  0.51303  0.03603  Biso   1.000  C
  H130     1.0000 0.57147  0.54263  0.02293  Biso   1.000  H
  C310     1.0000 0.59937  0.42123  0.08733  Biso   1.000  C
  C311     1.0000 0.62017  0.40753  0.14793  Biso   1.000  C
  C312     1.0000 0.61367  0.42293  0.02953  Biso   1.000  C
  O53      1.0000 0.44603  0.97011  0.42827  Biso   1.000  O
  O54      1.0000 0.43324  0.94436  0.52920  Biso   1.000  O
  C313     1.0000 0.42194  0.94515  0.47210  Biso   1.000  C
  C314     1.0000 0.37542  0.91353  0.45391  Biso   1.000  C
  C315     1.0000 0.34571  0.88541  0.50016  Biso   1.000  C
  H131     1.0000 0.35553  0.88567  0.54227  Biso   1.000  H
  C316     1.0000 0.30255  0.85754  0.48463  Biso   1.000  C
  H132     1.0000 0.28263  0.83937  0.51647  Biso   1.000  H
  C317     1.0000 0.28786  0.85575  0.42281  Biso   1.000  C
  C318     1.0000 0.31725  0.88342  0.37683  Biso   1.000  C
  H133     1.0000 0.30753  0.88257  0.33447  Biso   1.000  H
  C319     1.0000 0.36103  0.91243  0.39286  Biso   1.000  C
  H134     1.0000 0.38083  0.93137  0.36147  Biso   1.000  H
  C320     1.0000 0.24087  0.82820  0.40535  Biso   1.000  C
  C321     1.0000 0.22103  0.84637  0.36937  Biso   1.000  C
  H135     1.0000 0.23813  0.87597  0.35627  Biso   1.000  H
  C322     1.0000 0.26603  0.75457  0.42067  Biso   1.000  C
  C323     1.0000 0.28683  0.74087  0.48127  Biso   1.000  C
  C324     1.0000 0.28033  0.75627  0.36287  Biso   1.000  C
  O55      1.0000 0.80926  0.69656  0.23840  Biso   1.000  O
  O56      1.0000 0.82222  0.72231  0.13747  Biso   1.000  O
  C325     1.0000 0.81013  0.72152  0.19457  Biso   1.000  C
  C326     1.0000 0.79523  0.75314  0.21276  Biso   1.000  C
  C327     1.0000 0.79364  0.78126  0.16651  Biso   1.000  C
  H136     1.0000 0.80320  0.78100  0.12440  Biso   1.000  H
  C328     1.0000 0.77835  0.80913  0.18204  Biso   1.000  C
  H137     1.0000 0.77660  0.82730  0.15020  Biso   1.000  H
  C329     1.0000 0.76545  0.81092  0.24386  Biso   1.000  C
  C330     1.0000 0.76717  0.78325  0.28984  Biso   1.000  C
  H138     1.0000 0.75830  0.78410  0.33220  Biso   1.000  H
  C331     1.0000 0.78194  0.75424  0.27381  Biso   1.000  C
  H139     1.0000 0.78280  0.73530  0.30520  Biso   1.000  H
  C332     1.0000 0.74601  0.83847  0.26132  Biso   1.000  C
  C333     1.0000 0.70800  0.82030  0.29730  Biso   1.000  C
  H140     1.0000 0.69550  0.79070  0.31040  Biso   1.000  H
  C334     1.0000 0.84480  0.91210  0.24600  Biso   1.000  C
  C335     1.0000 0.87930  0.92580  0.18540  Biso   1.000  C
  C336     1.0000 0.85740  0.91040  0.30380  Biso   1.000  C
  O57      1.0000 0.47593  0.02989  0.57173  Biso   1.000  O
  O58      1.0000 0.48889  0.05564  0.47080  Biso   1.000  O
  C337     1.0000 0.47680  0.05485  0.52790  Biso   1.000  C
  C338     1.0000 0.46190  0.08647  0.54609  Biso   1.000  C
  C339     1.0000 0.46031  0.11459  0.49984  Biso   1.000  C
  H141     1.0000 0.46987  0.11433  0.45773  Biso   1.000  H
  C340     1.0000 0.44502  0.14246  0.51537  Biso   1.000  C
  H142     1.0000 0.44327  0.16063  0.48353  Biso   1.000  H
  C341     1.0000 0.43212  0.14425  0.57719  Biso   1.000  C
  C342     1.0000 0.43384  0.11658  0.62317  Biso   1.000  C
  H143     1.0000 0.42497  0.11743  0.66553  Biso   1.000  H
  C343     1.0000 0.44861  0.08757  0.60714  Biso   1.000  C
  H144     1.0000 0.44947  0.06863  0.63853  Biso   1.000  H
  C344     1.0000 0.41268  0.17180  0.59465  Biso   1.000  C
  C345     1.0000 0.37467  0.15363  0.63063  Biso   1.000  C
  H145     1.0000 0.36217  0.12403  0.64373  Biso   1.000  H
  C346     1.0000 0.51147  0.24543  0.57933  Biso   1.000  C
  C347     1.0000 0.54597  0.25913  0.51873  Biso   1.000  C
  C348     1.0000 0.52407  0.24373  0.63713  Biso   1.000  C
  O59      1.0000 0.14259  0.36323  0.90507  Biso   1.000  O
  O60      1.0000 0.15555  0.38898  0.80414  Biso   1.000  O
  C349     1.0000 0.14346  0.38819  0.86124  Biso   1.000  C
  C350     1.0000 0.12856  0.41981  0.87943  Biso   1.000  C
  C351     1.0000 0.12697  0.44793  0.83318  Biso   1.000  C
  H146     1.0000 0.13653  0.44767  0.79107  Biso   1.000  H
  C352     1.0000 0.11168  0.47580  0.84871  Biso   1.000  C
  H147     1.0000 0.10993  0.49397  0.81687  Biso   1.000  H
  C353     1.0000 0.09878  0.47759  0.91053  Biso   1.000  C
  C354     1.0000 0.10050  0.44992  0.95651  Biso   1.000  C
  H148     1.0000 0.09163  0.45077  0.99887  Biso   1.000  H
  C355     1.0000 0.11527  0.42091  0.94048  Biso   1.000  C
  H149     1.0000 0.11613  0.40197  0.97187  Biso   1.000  H
  C356     1.0000 0.07934  0.50514  0.92799  Biso   1.000  C
  C357     1.0000 0.04133  0.48697  0.96397  Biso   1.000  C
  H150     1.0000 0.02883  0.45737  0.97707  Biso   1.000  H
  C358     1.0000 0.17813  0.57877  0.91267  Biso   1.000  C
  C359     1.0000 0.21263  0.59247  0.85207  Biso   1.000  C
  C360     1.0000 0.19073  0.57707  0.97047  Biso   1.000  C
  O61      1.0000 0.88730  0.19074  0.23840  Biso   1.000  O
  O62      1.0000 0.90009  0.17778  0.13747  Biso   1.000  O
  C361     1.0000 0.91139  0.18987  0.19457  Biso   1.000  C
  C362     1.0000 0.95791  0.20477  0.21276  Biso   1.000  C
  C363     1.0000 0.98762  0.20636  0.16651  Biso   1.000  C
  H151     1.0000 0.97780  0.19680  0.12440  Biso   1.000  H
  C364     1.0000 0.03078  0.22165  0.18204  Biso   1.000  C
  H152     1.0000 0.05070  0.22340  0.15020  Biso   1.000  H
  C365     1.0000 0.04547  0.23455  0.24386  Biso   1.000  C
  C366     1.0000 0.01608  0.23283  0.28984  Biso   1.000  C
  H153     1.0000 0.02580  0.24170  0.33220  Biso   1.000  H
  C367     1.0000 0.97230  0.21806  0.27381  Biso   1.000  C
  H154     1.0000 0.95250  0.21720  0.30520  Biso   1.000  H
  C368     1.0000 0.09246  0.25399  0.26132  Biso   1.000  C
  C369     1.0000 0.11230  0.29200  0.29730  Biso   1.000  C
  H155     1.0000 0.09520  0.30450  0.31040  Biso   1.000  H
  C370     1.0000 0.06730  0.15520  0.24600  Biso   1.000  C
  C371     1.0000 0.04650  0.12070  0.18540  Biso   1.000  C
  C372     1.0000 0.05300  0.14260  0.30380  Biso   1.000  C
  O63      1.0000 0.55397  0.52407  0.57173  Biso   1.000  O
  O64      1.0000 0.56676  0.51111  0.47080  Biso   1.000  O
  C373     1.0000 0.57806  0.52320  0.52790  Biso   1.000  C
  C374     1.0000 0.62458  0.53810  0.54609  Biso   1.000  C
  C375     1.0000 0.65429  0.53969  0.49984  Biso   1.000  C
  H156     1.0000 0.64447  0.53013  0.45773  Biso   1.000  H
  C376     1.0000 0.69745  0.55498  0.51537  Biso   1.000  C
  H157     1.0000 0.71737  0.55673  0.48353  Biso   1.000  H
  C377     1.0000 0.71214  0.56788  0.57719  Biso   1.000  C
  C378     1.0000 0.68275  0.56616  0.62317  Biso   1.000  C
  H158     1.0000 0.69247  0.57503  0.66553  Biso   1.000  H
  C379     1.0000 0.63897  0.55139  0.60714  Biso   1.000  C
  H159     1.0000 0.61917  0.55053  0.63853  Biso   1.000  H
  C380     1.0000 0.75913  0.58732  0.59465  Biso   1.000  C
  C381     1.0000 0.77897  0.62533  0.63063  Biso   1.000  C
  H160     1.0000 0.76187  0.63783  0.64373  Biso   1.000  H
  C382     1.0000 0.73397  0.48853  0.57933  Biso   1.000  C
  C383     1.0000 0.71317  0.45403  0.51873  Biso   1.000  C
  C384     1.0000 0.71967  0.47593  0.63713  Biso   1.000  C
  O65      1.0000 0.22063  0.85741  0.90507  Biso   1.000  O
  O66      1.0000 0.23342  0.84445  0.80414  Biso   1.000  O
  C385     1.0000 0.24472  0.85654  0.86124  Biso   1.000  C
  C386     1.0000 0.29124  0.87144  0.87943  Biso   1.000  C
  C387     1.0000 0.32095  0.87303  0.83318  Biso   1.000  C
  H161     1.0000 0.31113  0.86347  0.79107  Biso   1.000  H
  C388     1.0000 0.36411  0.88832  0.84871  Biso   1.000  C
  H162     1.0000 0.38403  0.89007  0.81687  Biso   1.000  H
  C389     1.0000 0.37880  0.90122  0.91053  Biso   1.000  C
  C390     1.0000 0.34941  0.89950  0.95651  Biso   1.000  C
  H163     1.0000 0.35913  0.90837  0.99887  Biso   1.000  H
  C391     1.0000 0.30563  0.88473  0.94048  Biso   1.000  C
  H164     1.0000 0.28583  0.88387  0.97187  Biso   1.000  H
  C392     1.0000 0.42579  0.92066  0.92799  Biso   1.000  C
  C393     1.0000 0.44563  0.95867  0.96397  Biso   1.000  C
  H165     1.0000 0.42853  0.97117  0.97707  Biso   1.000  H
  C394     1.0000 0.40063  0.82187  0.91267  Biso   1.000  C
  C395     1.0000 0.37983  0.78737  0.85207  Biso   1.000  C
  C396     1.0000 0.38633  0.80927  0.97047  Biso   1.000  C
  O67      1.0000 0.30344  0.11270  0.23840  Biso   1.000  O
  O68      1.0000 0.27769  0.09991  0.13747  Biso   1.000  O
  C397     1.0000 0.27848  0.08861  0.19457  Biso   1.000  C
  C398     1.0000 0.24686  0.04209  0.21276  Biso   1.000  C
  C399     1.0000 0.21874  0.01238  0.16651  Biso   1.000  C
  H166     1.0000 0.21900  0.02220  0.12440  Biso   1.000  H
  C400     1.0000 0.19087  0.96922  0.18204  Biso   1.000  C
  H167     1.0000 0.17270  0.94930  0.15020  Biso   1.000  H
  C401     1.0000 0.18908  0.95453  0.24386  Biso   1.000  C
  C402     1.0000 0.21675  0.98392  0.28984  Biso   1.000  C
  H168     1.0000 0.21590  0.97420  0.33220  Biso   1.000  H
  C403     1.0000 0.24576  0.02770  0.27381  Biso   1.000  C
  H169     1.0000 0.26470  0.04750  0.30520  Biso   1.000  H
  C404     1.0000 0.16153  0.90754  0.26132  Biso   1.000  C
  C405     1.0000 0.17970  0.88770  0.29730  Biso   1.000  C
  H170     1.0000 0.20930  0.90480  0.31040  Biso   1.000  H
  C406     1.0000 0.08790  0.93270  0.24600  Biso   1.000  C
  C407     1.0000 0.07420  0.95350  0.18540  Biso   1.000  C
  C408     1.0000 0.08960  0.94700  0.30380  Biso   1.000  C
  O69      1.0000 0.97011  0.44603  0.57173  Biso   1.000  O
  O70      1.0000 0.94436  0.43324  0.47080  Biso   1.000  O
  C409     1.0000 0.94515  0.42194  0.52790  Biso   1.000  C
  C410     1.0000 0.91353  0.37542  0.54609  Biso   1.000  C
  C411     1.0000 0.88541  0.34571  0.49984  Biso   1.000  C
  H171     1.0000 0.88567  0.35553  0.45773  Biso   1.000  H
  C412     1.0000 0.85754  0.30255  0.51537  Biso   1.000  C
  H172     1.0000 0.83937  0.28263  0.48353  Biso   1.000  H
  C413     1.0000 0.85575  0.28786  0.57719  Biso   1.000  C
  C414     1.0000 0.88342  0.31725  0.62317  Biso   1.000  C
  H173     1.0000 0.88257  0.30753  0.66553  Biso   1.000  H
  C415     1.0000 0.91243  0.36103  0.60714  Biso   1.000  C
  H174     1.0000 0.93137  0.38083  0.63853  Biso   1.000  H
  C416     1.0000 0.82820  0.24087  0.59465  Biso   1.000  C
  C417     1.0000 0.84637  0.22103  0.63063  Biso   1.000  C
  H175     1.0000 0.87597  0.23813  0.64373  Biso   1.000  H
  C418     1.0000 0.75457  0.26603  0.57933  Biso   1.000  C
  C419     1.0000 0.74087  0.28683  0.51873  Biso   1.000  C
  C420     1.0000 0.75627  0.28033  0.63713  Biso   1.000  C
  O71      1.0000 0.63677  0.77937  0.90507  Biso   1.000  O
  O72      1.0000 0.61102  0.76658  0.80414  Biso   1.000  O
  C421     1.0000 0.61181  0.75528  0.86124  Biso   1.000  C
  C422     1.0000 0.58019  0.70876  0.87943  Biso   1.000  C
  C423     1.0000 0.55207  0.67905  0.83318  Biso   1.000  C
  H176     1.0000 0.55233  0.68887  0.79107  Biso   1.000  H
  C424     1.0000 0.52420  0.63589  0.84871  Biso   1.000  C
  H177     1.0000 0.50603  0.61597  0.81687  Biso   1.000  H
  C425     1.0000 0.52241  0.62120  0.91053  Biso   1.000  C
  C426     1.0000 0.55008  0.65059  0.95651  Biso   1.000  C
  H178     1.0000 0.54923  0.64087  0.99887  Biso   1.000  H
  C427     1.0000 0.57909  0.69437  0.94048  Biso   1.000  C
  H179     1.0000 0.59803  0.71417  0.97187  Biso   1.000  H
  C428     1.0000 0.49486  0.57421  0.92799  Biso   1.000  C
  C429     1.0000 0.51303  0.55437  0.96397  Biso   1.000  C
  H180     1.0000 0.54263  0.57147  0.97707  Biso   1.000  H
  C430     1.0000 0.42123  0.59937  0.91267  Biso   1.000  C
  C431     1.0000 0.40753  0.62017  0.85207  Biso   1.000  C
  C432     1.0000 0.42293  0.61367  0.97047  Biso   1.000  C
  Cu1      1.0000 0.31841  0.15920  0.10785  Biso   1.000  Cu
  Cu2      1.0000 0.98508  0.49254  0.44118  Biso   1.000  Cu
  Cu3      1.0000 0.65174  0.82587  0.77452  Biso   1.000  Cu
  Cu4      1.0000 0.84080  0.15920  0.10785  Biso   1.000  Cu
  Cu5      1.0000 0.50746  0.49254  0.44118  Biso   1.000  Cu
  Cu6      1.0000 0.17413  0.82587  0.77452  Biso   1.000  Cu
  Cu7      1.0000 0.84080  0.68159  0.10785  Biso   1.000  Cu
  Cu8      1.0000 0.50746  0.01492  0.44118  Biso   1.000  Cu
  Cu9      1.0000 0.17413  0.34826  0.77452  Biso   1.000  Cu
  Cu10     1.0000 0.15920  0.31841  0.89215  Biso   1.000  Cu
  Cu11     1.0000 0.82587  0.65174  0.22548  Biso   1.000  Cu
  Cu12     1.0000 0.49254  0.98508  0.55882  Biso   1.000  Cu
  Cu13     1.0000 0.15920  0.84080  0.89215  Biso   1.000  Cu
  Cu14     1.0000 0.82587  0.17413  0.22548  Biso   1.000  Cu
  Cu15     1.0000 0.49254  0.50746  0.55882  Biso   1.000  Cu
  Cu16     1.0000 0.68159  0.84080  0.89215  Biso   1.000  Cu
  Cu17     1.0000 0.34826  0.17413  0.22548  Biso   1.000  Cu
  Cu18     1.0000 0.01492  0.50746  0.55882  Biso   1.000  Cu
  O73      1.0000 0.09801  0.19603  0.20930  Biso   1.000  O
  C433     1.0000 0.15636  0.31272  0.31530  Biso   1.000  C
  C434     1.0000 0.11710  0.23420  0.24400  Biso   1.000  C
  O74      1.0000 0.76468  0.52936  0.54263  Biso   1.000  O
  C435     1.0000 0.82303  0.64605  0.64863  Biso   1.000  C
  C436     1.0000 0.78377  0.56753  0.57733  Biso   1.000  C
  O75      1.0000 0.43135  0.86270  0.87597  Biso   1.000  O
  C437     1.0000 0.48969  0.97939  0.98197  Biso   1.000  C
  C438     1.0000 0.45043  0.90087  0.91067  Biso   1.000  C
  O76      1.0000 0.80397  0.90199  0.20930  Biso   1.000  O
  C439     1.0000 0.68728  0.84364  0.31530  Biso   1.000  C
  C440     1.0000 0.76580  0.88290  0.24400  Biso   1.000  C
  O77      1.0000 0.47064  0.23532  0.54263  Biso   1.000  O
  C441     1.0000 0.35395  0.17697  0.64863  Biso   1.000  C
  C442     1.0000 0.43247  0.21623  0.57733  Biso   1.000  C
  O78      1.0000 0.13730  0.56865  0.87597  Biso   1.000  O
  C443     1.0000 0.02061  0.51031  0.98197  Biso   1.000  C
  C444     1.0000 0.09913  0.54957  0.91067  Biso   1.000  C
  O79      1.0000 0.09802  0.90199  0.20930  Biso   1.000  O
  C445     1.0000 0.15636  0.84364  0.31530  Biso   1.000  C
  C446     1.0000 0.11710  0.88290  0.24400  Biso   1.000  C
  O80      1.0000 0.76468  0.23532  0.54263  Biso   1.000  O
  C447     1.0000 0.82303  0.17697  0.64863  Biso   1.000  C
  C448     1.0000 0.78377  0.21623  0.57733  Biso   1.000  C
  O81      1.0000 0.43135  0.56865  0.87597  Biso   1.000  O
  C449     1.0000 0.48969  0.51031  0.98197  Biso   1.000  C
  C450     1.0000 0.45043  0.54957  0.91067  Biso   1.000  C
  O82      1.0000 0.19603  0.09801  0.79070  Biso   1.000  O
  C451     1.0000 0.31272  0.15636  0.68470  Biso   1.000  C
  C452     1.0000 0.23420  0.11710  0.75600  Biso   1.000  C
  O83      1.0000 0.86270  0.43135  0.12403  Biso   1.000  O
  C453     1.0000 0.97939  0.48969  0.01803  Biso   1.000  C
  C454     1.0000 0.90087  0.45043  0.08933  Biso   1.000  C
  O84      1.0000 0.52936  0.76468  0.45737  Biso   1.000  O
  C455     1.0000 0.64605  0.82303  0.35137  Biso   1.000  C
  C456     1.0000 0.56753  0.78377  0.42267  Biso   1.000  C
  O85      1.0000 0.90198  0.80397  0.79070  Biso   1.000  O
  C457     1.0000 0.84364  0.68728  0.68470  Biso   1.000  C
  C458     1.0000 0.88290  0.76580  0.75600  Biso   1.000  C
  O86      1.0000 0.56865  0.13730  0.12403  Biso   1.000  O
  C459     1.0000 0.51031  0.02061  0.01803  Biso   1.000  C
  C460     1.0000 0.54957  0.09913  0.08933  Biso   1.000  C
  O87      1.0000 0.23532  0.47064  0.45737  Biso   1.000  O
  C461     1.0000 0.17697  0.35395  0.35137  Biso   1.000  C
  C462     1.0000 0.21623  0.43247  0.42267  Biso   1.000  C
  O88      1.0000 0.90198  0.09802  0.79070  Biso   1.000  O
  C463     1.0000 0.84364  0.15636  0.68470  Biso   1.000  C
  C464     1.0000 0.88290  0.11710  0.75600  Biso   1.000  C
  O89      1.0000 0.56865  0.43135  0.12403  Biso   1.000  O
  C465     1.0000 0.51031  0.48969  0.01803  Biso   1.000  C
  C466     1.0000 0.54957  0.45043  0.08933  Biso   1.000  C
  O90      1.0000 0.23532  0.76468  0.45737  Biso   1.000  O
  C467     1.0000 0.17697  0.82303  0.35137  Biso   1.000  C
  C468     1.0000 0.21623  0.78377  0.42267  Biso   1.000  C
