data_image0
_cell_length_a       35.2979
_cell_length_b       35.2979
_cell_length_c       20.6443
_cell_angle_alpha    90
_cell_angle_beta     90
_cell_angle_gamma    120

_symmetry_space_group_name_H-M    "P 1"
_symmetry_int_tables_number       1

loop_
  _symmetry_equiv_pos_as_xyz
  'x, y, z'

loop_
  _atom_site_label
  _atom_site_occupancy
  _atom_site_fract_x
  _atom_site_fract_y
  _atom_site_fract_z
  _atom_site_thermal_displace_type
  _atom_site_B_iso_or_equiv
  _atom_site_type_symbol
  O1       1.0000 0.77967  0.63716  0.59431  Biso   1.000  O
  O2       1.0000 0.76677  0.61148  0.69641  Biso   1.000  O
  C1       1.0000 0.75537  0.61178  0.63827  Biso   1.000  C
  C2       1.0000 0.70890  0.57988  0.62061  Biso   1.000  C
  C3       1.0000 0.67972  0.55202  0.66701  Biso   1.000  C
  H1       1.0000 0.68970  0.55250  0.70990  Biso   1.000  H
  C4       1.0000 0.63629  0.52350  0.65143  Biso   1.000  C
  H2       1.0000 0.61670  0.50470  0.68360  Biso   1.000  H
  C5       1.0000 0.62168  0.52248  0.58924  Biso   1.000  C
  C6       1.0000 0.65060  0.54993  0.54215  Biso   1.000  C
  H3       1.0000 0.64070  0.54900  0.49910  Biso   1.000  H
  C7       1.0000 0.69449  0.57902  0.55850  Biso   1.000  C
  H4       1.0000 0.71420  0.59810  0.52660  Biso   1.000  H
  C8       1.0000 0.57451  0.49446  0.57119  Biso   1.000  C
  C9       1.0000 0.55443  0.51283  0.53575  Biso   1.000  C
  H5       1.0000 0.57140  0.54270  0.52330  Biso   1.000  H
  C10      1.0000 0.57260  0.38270  0.53620  Biso   1.000  C
  C11      1.0000 0.58870  0.37680  0.64380  Biso   1.000  C
  C12      1.0000 0.57800  0.39960  0.58480  Biso   1.000  C
  O3       1.0000 0.44634  0.97049  0.92764  Biso   1.000  O
  O4       1.0000 0.43344  0.94481  0.02974  Biso   1.000  O
  C13      1.0000 0.42204  0.94511  0.97160  Biso   1.000  C
  C14      1.0000 0.37557  0.91321  0.95394  Biso   1.000  C
  C15      1.0000 0.34639  0.88535  0.00034  Biso   1.000  C
  H6       1.0000 0.35637  0.88583  0.04323  Biso   1.000  H
  C16      1.0000 0.30296  0.85683  0.98476  Biso   1.000  C
  H7       1.0000 0.28337  0.83803  0.01693  Biso   1.000  H
  C17      1.0000 0.28835  0.85581  0.92257  Biso   1.000  C
  C18      1.0000 0.31727  0.88326  0.87548  Biso   1.000  C
  H8       1.0000 0.30737  0.88233  0.83243  Biso   1.000  H
  C19      1.0000 0.36116  0.91235  0.89183  Biso   1.000  C
  H9       1.0000 0.38087  0.93143  0.85993  Biso   1.000  H
  C20      1.0000 0.24118  0.82779  0.90452  Biso   1.000  C
  C21      1.0000 0.22110  0.84616  0.86908  Biso   1.000  C
  H10      1.0000 0.23807  0.87603  0.85663  Biso   1.000  H
  C22      1.0000 0.23927  0.71603  0.86953  Biso   1.000  C
  C23      1.0000 0.25537  0.71013  0.97713  Biso   1.000  C
  C24      1.0000 0.24467  0.73293  0.91813  Biso   1.000  C
  O5       1.0000 0.11300  0.30383  0.26098  Biso   1.000  O
  O6       1.0000 0.10010  0.27815  0.36308  Biso   1.000  O
  C25      1.0000 0.08870  0.27845  0.30494  Biso   1.000  C
  C26      1.0000 0.04223  0.24655  0.28728  Biso   1.000  C
  C27      1.0000 0.01305  0.21869  0.33368  Biso   1.000  C
  H11      1.0000 0.02303  0.21917  0.37657  Biso   1.000  H
  C28      1.0000 0.96962  0.19017  0.31810  Biso   1.000  C
  H12      1.0000 0.95003  0.17137  0.35027  Biso   1.000  H
  C29      1.0000 0.95501  0.18915  0.25591  Biso   1.000  C
  C30      1.0000 0.98393  0.21660  0.20882  Biso   1.000  C
  H13      1.0000 0.97403  0.21567  0.16577  Biso   1.000  H
  C31      1.0000 0.02782  0.24569  0.22517  Biso   1.000  C
  H14      1.0000 0.04753  0.26477  0.19327  Biso   1.000  H
  C32      1.0000 0.90784  0.16113  0.23786  Biso   1.000  C
  C33      1.0000 0.88776  0.17950  0.20242  Biso   1.000  C
  H15      1.0000 0.90473  0.20937  0.18997  Biso   1.000  H
  C34      1.0000 0.90593  0.04937  0.20287  Biso   1.000  C
  C35      1.0000 0.92203  0.04347  0.31047  Biso   1.000  C
  C36      1.0000 0.91133  0.06627  0.25147  Biso   1.000  C
  O7       1.0000 0.36284  0.14251  0.59431  Biso   1.000  O
  O8       1.0000 0.38852  0.15529  0.69641  Biso   1.000  O
  C37      1.0000 0.38822  0.14359  0.63827  Biso   1.000  C
  C38      1.0000 0.42012  0.12902  0.62061  Biso   1.000  C
  C39      1.0000 0.44798  0.12770  0.66701  Biso   1.000  C
  H16      1.0000 0.44750  0.13720  0.70990  Biso   1.000  H
  C40      1.0000 0.47650  0.11279  0.65143  Biso   1.000  C
  H17      1.0000 0.49530  0.11200  0.68360  Biso   1.000  H
  C41      1.0000 0.47752  0.09920  0.58924  Biso   1.000  C
  C42      1.0000 0.45007  0.10067  0.54215  Biso   1.000  C
  H18      1.0000 0.45100  0.09170  0.49910  Biso   1.000  H
  C43      1.0000 0.42098  0.11547  0.55850  Biso   1.000  C
  H19      1.0000 0.40190  0.11610  0.52660  Biso   1.000  H
  C44      1.0000 0.50554  0.08005  0.57119  Biso   1.000  C
  C45      1.0000 0.48717  0.04160  0.53575  Biso   1.000  C
  H20      1.0000 0.45730  0.02870  0.52330  Biso   1.000  H
  C46      1.0000 0.61730  0.18990  0.53620  Biso   1.000  C
  C47      1.0000 0.62320  0.21190  0.64380  Biso   1.000  C
  C48      1.0000 0.60040  0.17840  0.58480  Biso   1.000  C
  O9       1.0000 0.02951  0.47584  0.92764  Biso   1.000  O
  O10      1.0000 0.05519  0.48862  0.02974  Biso   1.000  O
  C49      1.0000 0.05489  0.47692  0.97160  Biso   1.000  C
  C50      1.0000 0.08679  0.46235  0.95394  Biso   1.000  C
  C51      1.0000 0.11465  0.46103  0.00034  Biso   1.000  C
  H21      1.0000 0.11417  0.47053  0.04323  Biso   1.000  H
  C52      1.0000 0.14317  0.44612  0.98476  Biso   1.000  C
  H22      1.0000 0.16197  0.44533  0.01693  Biso   1.000  H
  C53      1.0000 0.14419  0.43253  0.92257  Biso   1.000  C
  C54      1.0000 0.11674  0.43400  0.87548  Biso   1.000  C
  H23      1.0000 0.11767  0.42503  0.83243  Biso   1.000  H
  C55      1.0000 0.08765  0.44880  0.89183  Biso   1.000  C
  H24      1.0000 0.06857  0.44943  0.85993  Biso   1.000  H
  C56      1.0000 0.17221  0.41338  0.90452  Biso   1.000  C
  C57      1.0000 0.15384  0.37493  0.86908  Biso   1.000  C
  H25      1.0000 0.12397  0.36203  0.85663  Biso   1.000  H
  C58      1.0000 0.28397  0.52323  0.86953  Biso   1.000  C
  C59      1.0000 0.28987  0.54523  0.97713  Biso   1.000  C
  C60      1.0000 0.26707  0.51173  0.91813  Biso   1.000  C
  O11      1.0000 0.69617  0.80918  0.26098  Biso   1.000  O
  O12      1.0000 0.72185  0.82196  0.36308  Biso   1.000  O
  C61      1.0000 0.72155  0.81026  0.30494  Biso   1.000  C
  C62      1.0000 0.75345  0.79569  0.28728  Biso   1.000  C
  C63      1.0000 0.78131  0.79437  0.33368  Biso   1.000  C
  H26      1.0000 0.78083  0.80387  0.37657  Biso   1.000  H
  C64      1.0000 0.80983  0.77946  0.31810  Biso   1.000  C
  H27      1.0000 0.82863  0.77867  0.35027  Biso   1.000  H
  C65      1.0000 0.81085  0.76587  0.25591  Biso   1.000  C
  C66      1.0000 0.78340  0.76734  0.20882  Biso   1.000  C
  H28      1.0000 0.78433  0.75837  0.16577  Biso   1.000  H
  C67      1.0000 0.75431  0.78214  0.22517  Biso   1.000  C
  H29      1.0000 0.73523  0.78277  0.19327  Biso   1.000  H
  C68      1.0000 0.83887  0.74672  0.23786  Biso   1.000  C
  C69      1.0000 0.82050  0.70827  0.20242  Biso   1.000  C
  H30      1.0000 0.79063  0.69537  0.18997  Biso   1.000  H
  C70      1.0000 0.95063  0.85657  0.20287  Biso   1.000  C
  C71      1.0000 0.95653  0.87857  0.31047  Biso   1.000  C
  C72      1.0000 0.93373  0.84507  0.25147  Biso   1.000  C
  O13      1.0000 0.85749  0.22033  0.59431  Biso   1.000  O
  O14      1.0000 0.84471  0.23323  0.69641  Biso   1.000  O
  C73      1.0000 0.85641  0.24463  0.63827  Biso   1.000  C
  C74      1.0000 0.87098  0.29110  0.62061  Biso   1.000  C
  C75      1.0000 0.87230  0.32028  0.66701  Biso   1.000  C
  H31      1.0000 0.86280  0.31030  0.70990  Biso   1.000  H
  C76      1.0000 0.88721  0.36371  0.65143  Biso   1.000  C
  H32      1.0000 0.88800  0.38330  0.68360  Biso   1.000  H
  C77      1.0000 0.90080  0.37832  0.58924  Biso   1.000  C
  C78      1.0000 0.89933  0.34940  0.54215  Biso   1.000  C
  H33      1.0000 0.90830  0.35930  0.49910  Biso   1.000  H
  C79      1.0000 0.88453  0.30551  0.55850  Biso   1.000  C
  H34      1.0000 0.88390  0.28580  0.52660  Biso   1.000  H
  C80      1.0000 0.91995  0.42549  0.57119  Biso   1.000  C
  C81      1.0000 0.95840  0.44557  0.53575  Biso   1.000  C
  H35      1.0000 0.97130  0.42860  0.52330  Biso   1.000  H
  C82      1.0000 0.81010  0.42740  0.53620  Biso   1.000  C
  C83      1.0000 0.78810  0.41130  0.64380  Biso   1.000  C
  C84      1.0000 0.82160  0.42200  0.58480  Biso   1.000  C
  O15      1.0000 0.52416  0.55366  0.92764  Biso   1.000  O
  O16      1.0000 0.51138  0.56656  0.02974  Biso   1.000  O
  C85      1.0000 0.52308  0.57796  0.97160  Biso   1.000  C
  C86      1.0000 0.53765  0.62443  0.95394  Biso   1.000  C
  C87      1.0000 0.53897  0.65361  0.00034  Biso   1.000  C
  H36      1.0000 0.52947  0.64363  0.04323  Biso   1.000  H
  C88      1.0000 0.55388  0.69704  0.98476  Biso   1.000  C
  H37      1.0000 0.55467  0.71663  0.01693  Biso   1.000  H
  C89      1.0000 0.56747  0.71165  0.92257  Biso   1.000  C
  C90      1.0000 0.56600  0.68273  0.87548  Biso   1.000  C
  H38      1.0000 0.57497  0.69263  0.83243  Biso   1.000  H
  C91      1.0000 0.55120  0.63884  0.89183  Biso   1.000  C
  H39      1.0000 0.55057  0.61913  0.85993  Biso   1.000  H
  C92      1.0000 0.58662  0.75882  0.90452  Biso   1.000  C
  C93      1.0000 0.62507  0.77890  0.86908  Biso   1.000  C
  H40      1.0000 0.63797  0.76193  0.85663  Biso   1.000  H
  C94      1.0000 0.47677  0.76073  0.86953  Biso   1.000  C
  C95      1.0000 0.45477  0.74463  0.97713  Biso   1.000  C
  C96      1.0000 0.48827  0.75533  0.91813  Biso   1.000  C
  O17      1.0000 0.19082  0.88700  0.26098  Biso   1.000  O
  O18      1.0000 0.17804  0.89990  0.36308  Biso   1.000  O
  C97      1.0000 0.18974  0.91130  0.30494  Biso   1.000  C
  C98      1.0000 0.20431  0.95777  0.28728  Biso   1.000  C
  C99      1.0000 0.20563  0.98695  0.33368  Biso   1.000  C
  H41      1.0000 0.19613  0.97697  0.37657  Biso   1.000  H
  C100     1.0000 0.22054  0.03038  0.31810  Biso   1.000  C
  H42      1.0000 0.22133  0.04997  0.35027  Biso   1.000  H
  C101     1.0000 0.23413  0.04499  0.25591  Biso   1.000  C
  C102     1.0000 0.23266  0.01607  0.20882  Biso   1.000  C
  H43      1.0000 0.24163  0.02597  0.16577  Biso   1.000  H
  C103     1.0000 0.21786  0.97218  0.22517  Biso   1.000  C
  H44      1.0000 0.21723  0.95247  0.19327  Biso   1.000  H
  C104     1.0000 0.25328  0.09216  0.23786  Biso   1.000  C
  C105     1.0000 0.29173  0.11224  0.20242  Biso   1.000  C
  H45      1.0000 0.30463  0.09527  0.18997  Biso   1.000  H
  C106     1.0000 0.14343  0.09407  0.20287  Biso   1.000  C
  C107     1.0000 0.12143  0.07797  0.31047  Biso   1.000  C
  C108     1.0000 0.15493  0.08867  0.25147  Biso   1.000  C
  O19      1.0000 0.63716  0.77967  0.40569  Biso   1.000  O
  O20      1.0000 0.61148  0.76677  0.30359  Biso   1.000  O
  C109     1.0000 0.61178  0.75537  0.36173  Biso   1.000  C
  C110     1.0000 0.57988  0.70890  0.37939  Biso   1.000  C
  C111     1.0000 0.55202  0.67972  0.33299  Biso   1.000  C
  H46      1.0000 0.55250  0.68970  0.29010  Biso   1.000  H
  C112     1.0000 0.52350  0.63629  0.34857  Biso   1.000  C
  H47      1.0000 0.50470  0.61670  0.31640  Biso   1.000  H
  C113     1.0000 0.52248  0.62168  0.41076  Biso   1.000  C
  C114     1.0000 0.54993  0.65060  0.45785  Biso   1.000  C
  H48      1.0000 0.54900  0.64070  0.50090  Biso   1.000  H
  C115     1.0000 0.57902  0.69449  0.44150  Biso   1.000  C
  H49      1.0000 0.59810  0.71420  0.47340  Biso   1.000  H
  C116     1.0000 0.49446  0.57451  0.42881  Biso   1.000  C
  C117     1.0000 0.51283  0.55443  0.46425  Biso   1.000  C
  H50      1.0000 0.54270  0.57140  0.47670  Biso   1.000  H
  C118     1.0000 0.38270  0.57260  0.46380  Biso   1.000  C
  C119     1.0000 0.37680  0.58870  0.35620  Biso   1.000  C
  C120     1.0000 0.39960  0.57800  0.41520  Biso   1.000  C
  O21      1.0000 0.30383  0.11300  0.73902  Biso   1.000  O
  O22      1.0000 0.27815  0.10010  0.63692  Biso   1.000  O
  C121     1.0000 0.27845  0.08870  0.69506  Biso   1.000  C
  C122     1.0000 0.24655  0.04223  0.71272  Biso   1.000  C
  C123     1.0000 0.21869  0.01305  0.66632  Biso   1.000  C
  H51      1.0000 0.21917  0.02303  0.62343  Biso   1.000  H
  C124     1.0000 0.19017  0.96962  0.68190  Biso   1.000  C
  H52      1.0000 0.17137  0.95003  0.64973  Biso   1.000  H
  C125     1.0000 0.18915  0.95501  0.74409  Biso   1.000  C
  C126     1.0000 0.21660  0.98393  0.79118  Biso   1.000  C
  H53      1.0000 0.21567  0.97403  0.83423  Biso   1.000  H
  C127     1.0000 0.24569  0.02782  0.77483  Biso   1.000  C
  H54      1.0000 0.26477  0.04753  0.80673  Biso   1.000  H
  C128     1.0000 0.16113  0.90784  0.76214  Biso   1.000  C
  C129     1.0000 0.17950  0.88776  0.79758  Biso   1.000  C
  H55      1.0000 0.20937  0.90473  0.81003  Biso   1.000  H
  C130     1.0000 0.04937  0.90593  0.79713  Biso   1.000  C
  C131     1.0000 0.04347  0.92203  0.68953  Biso   1.000  C
  C132     1.0000 0.06627  0.91133  0.74853  Biso   1.000  C
  O23      1.0000 0.97049  0.44634  0.07236  Biso   1.000  O
  O24      1.0000 0.94481  0.43344  0.97026  Biso   1.000  O
  C133     1.0000 0.94511  0.42204  0.02840  Biso   1.000  C
  C134     1.0000 0.91321  0.37557  0.04606  Biso   1.000  C
  C135     1.0000 0.88535  0.34639  0.99966  Biso   1.000  C
  H56      1.0000 0.88583  0.35637  0.95677  Biso   1.000  H
  C136     1.0000 0.85683  0.30296  0.01524  Biso   1.000  C
  H57      1.0000 0.83803  0.28337  0.98307  Biso   1.000  H
  C137     1.0000 0.85581  0.28835  0.07743  Biso   1.000  C
  C138     1.0000 0.88326  0.31727  0.12452  Biso   1.000  C
  H58      1.0000 0.88233  0.30737  0.16757  Biso   1.000  H
  C139     1.0000 0.91235  0.36116  0.10817  Biso   1.000  C
  H59      1.0000 0.93143  0.38087  0.14007  Biso   1.000  H
  C140     1.0000 0.82779  0.24118  0.09548  Biso   1.000  C
  C141     1.0000 0.84616  0.22110  0.13092  Biso   1.000  C
  H60      1.0000 0.87603  0.23807  0.14337  Biso   1.000  H
  C142     1.0000 0.71603  0.23927  0.13047  Biso   1.000  C
  C143     1.0000 0.71013  0.25537  0.02287  Biso   1.000  C
  C144     1.0000 0.73293  0.24467  0.08187  Biso   1.000  C
  O25      1.0000 0.14251  0.36284  0.40569  Biso   1.000  O
  O26      1.0000 0.15529  0.38852  0.30359  Biso   1.000  O
  C145     1.0000 0.14359  0.38822  0.36173  Biso   1.000  C
  C146     1.0000 0.12902  0.42012  0.37939  Biso   1.000  C
  C147     1.0000 0.12770  0.44798  0.33299  Biso   1.000  C
  H61      1.0000 0.13720  0.44750  0.29010  Biso   1.000  H
  C148     1.0000 0.11279  0.47650  0.34857  Biso   1.000  C
  H62      1.0000 0.11200  0.49530  0.31640  Biso   1.000  H
  C149     1.0000 0.09920  0.47752  0.41076  Biso   1.000  C
  C150     1.0000 0.10067  0.45007  0.45785  Biso   1.000  C
  H63      1.0000 0.09170  0.45100  0.50090  Biso   1.000  H
  C151     1.0000 0.11547  0.42098  0.44150  Biso   1.000  C
  H64      1.0000 0.11610  0.40190  0.47340  Biso   1.000  H
  C152     1.0000 0.08005  0.50554  0.42881  Biso   1.000  C
  C153     1.0000 0.04160  0.48717  0.46425  Biso   1.000  C
  H65      1.0000 0.02870  0.45730  0.47670  Biso   1.000  H
  C154     1.0000 0.18990  0.61730  0.46380  Biso   1.000  C
  C155     1.0000 0.21190  0.62320  0.35620  Biso   1.000  C
  C156     1.0000 0.17840  0.60040  0.41520  Biso   1.000  C
  O27      1.0000 0.80918  0.69617  0.73902  Biso   1.000  O
  O28      1.0000 0.82196  0.72185  0.63692  Biso   1.000  O
  C157     1.0000 0.81026  0.72155  0.69506  Biso   1.000  C
  C158     1.0000 0.79569  0.75345  0.71272  Biso   1.000  C
  C159     1.0000 0.79437  0.78131  0.66632  Biso   1.000  C
  H66      1.0000 0.80387  0.78083  0.62343  Biso   1.000  H
  C160     1.0000 0.77946  0.80983  0.68190  Biso   1.000  C
  H67      1.0000 0.77867  0.82863  0.64973  Biso   1.000  H
  C161     1.0000 0.76587  0.81085  0.74409  Biso   1.000  C
  C162     1.0000 0.76734  0.78340  0.79118  Biso   1.000  C
  H68      1.0000 0.75837  0.78433  0.83423  Biso   1.000  H
  C163     1.0000 0.78214  0.75431  0.77483  Biso   1.000  C
  H69      1.0000 0.78277  0.73523  0.80673  Biso   1.000  H
  C164     1.0000 0.74672  0.83887  0.76214  Biso   1.000  C
  C165     1.0000 0.70827  0.82050  0.79758  Biso   1.000  C
  H70      1.0000 0.69537  0.79063  0.81003  Biso   1.000  H
  C166     1.0000 0.85657  0.95063  0.79713  Biso   1.000  C
  C167     1.0000 0.87857  0.95653  0.68953  Biso   1.000  C
  C168     1.0000 0.84507  0.93373  0.74853  Biso   1.000  C
  O29      1.0000 0.47584  0.02951  0.07236  Biso   1.000  O
  O30      1.0000 0.48862  0.05519  0.97026  Biso   1.000  O
  C169     1.0000 0.47692  0.05489  0.02840  Biso   1.000  C
  C170     1.0000 0.46235  0.08679  0.04606  Biso   1.000  C
  C171     1.0000 0.46103  0.11465  0.99966  Biso   1.000  C
  H71      1.0000 0.47053  0.11417  0.95677  Biso   1.000  H
  C172     1.0000 0.44612  0.14317  0.01524  Biso   1.000  C
  H72      1.0000 0.44533  0.16197  0.98307  Biso   1.000  H
  C173     1.0000 0.43253  0.14419  0.07743  Biso   1.000  C
  C174     1.0000 0.43400  0.11674  0.12452  Biso   1.000  C
  H73      1.0000 0.42503  0.11767  0.16757  Biso   1.000  H
  C175     1.0000 0.44880  0.08765  0.10817  Biso   1.000  C
  H74      1.0000 0.44943  0.06857  0.14007  Biso   1.000  H
  C176     1.0000 0.41338  0.17221  0.09548  Biso   1.000  C
  C177     1.0000 0.37493  0.15384  0.13092  Biso   1.000  C
  H75      1.0000 0.36203  0.12397  0.14337  Biso   1.000  H
  C178     1.0000 0.52323  0.28397  0.13047  Biso   1.000  C
  C179     1.0000 0.54523  0.28987  0.02287  Biso   1.000  C
  C180     1.0000 0.51173  0.26707  0.08187  Biso   1.000  C
  O31      1.0000 0.22033  0.85749  0.40569  Biso   1.000  O
  O32      1.0000 0.23323  0.84471  0.30359  Biso   1.000  O
  C181     1.0000 0.24463  0.85641  0.36173  Biso   1.000  C
  C182     1.0000 0.29110  0.87098  0.37939  Biso   1.000  C
  C183     1.0000 0.32028  0.87230  0.33299  Biso   1.000  C
  H76      1.0000 0.31030  0.86280  0.29010  Biso   1.000  H
  C184     1.0000 0.36371  0.88721  0.34857  Biso   1.000  C
  H77      1.0000 0.38330  0.88800  0.31640  Biso   1.000  H
  C185     1.0000 0.37832  0.90080  0.41076  Biso   1.000  C
  C186     1.0000 0.34940  0.89933  0.45785  Biso   1.000  C
  H78      1.0000 0.35930  0.90830  0.50090  Biso   1.000  H
  C187     1.0000 0.30551  0.88453  0.44150  Biso   1.000  C
  H79      1.0000 0.28580  0.88390  0.47340  Biso   1.000  H
  C188     1.0000 0.42549  0.91995  0.42881  Biso   1.000  C
  C189     1.0000 0.44557  0.95840  0.46425  Biso   1.000  C
  H80      1.0000 0.42860  0.97130  0.47670  Biso   1.000  H
  C190     1.0000 0.42740  0.81010  0.46380  Biso   1.000  C
  C191     1.0000 0.41130  0.78810  0.35620  Biso   1.000  C
  C192     1.0000 0.42200  0.82160  0.41520  Biso   1.000  C
  O33      1.0000 0.88700  0.19082  0.73902  Biso   1.000  O
  O34      1.0000 0.89990  0.17804  0.63692  Biso   1.000  O
  C193     1.0000 0.91130  0.18974  0.69506  Biso   1.000  C
  C194     1.0000 0.95777  0.20431  0.71272  Biso   1.000  C
  C195     1.0000 0.98695  0.20563  0.66632  Biso   1.000  C
  H81      1.0000 0.97697  0.19613  0.62343  Biso   1.000  H
  C196     1.0000 0.03038  0.22054  0.68190  Biso   1.000  C
  H82      1.0000 0.04997  0.22133  0.64973  Biso   1.000  H
  C197     1.0000 0.04499  0.23413  0.74409  Biso   1.000  C
  C198     1.0000 0.01607  0.23266  0.79118  Biso   1.000  C
  H83      1.0000 0.02597  0.24163  0.83423  Biso   1.000  H
  C199     1.0000 0.97218  0.21786  0.77483  Biso   1.000  C
  H84      1.0000 0.95247  0.21723  0.80673  Biso   1.000  H
  C200     1.0000 0.09216  0.25328  0.76214  Biso   1.000  C
  C201     1.0000 0.11224  0.29173  0.79758  Biso   1.000  C
  H85      1.0000 0.09527  0.30463  0.81003  Biso   1.000  H
  C202     1.0000 0.09407  0.14343  0.79713  Biso   1.000  C
  C203     1.0000 0.07797  0.12143  0.68953  Biso   1.000  C
  C204     1.0000 0.08867  0.15493  0.74853  Biso   1.000  C
  O35      1.0000 0.55366  0.52416  0.07236  Biso   1.000  O
  O36      1.0000 0.56656  0.51138  0.97026  Biso   1.000  O
  C205     1.0000 0.57796  0.52308  0.02840  Biso   1.000  C
  C206     1.0000 0.62443  0.53765  0.04606  Biso   1.000  C
  C207     1.0000 0.65361  0.53897  0.99966  Biso   1.000  C
  H86      1.0000 0.64363  0.52947  0.95677  Biso   1.000  H
  C208     1.0000 0.69704  0.55388  0.01524  Biso   1.000  C
  H87      1.0000 0.71663  0.55467  0.98307  Biso   1.000  H
  C209     1.0000 0.71165  0.56747  0.07743  Biso   1.000  C
  C210     1.0000 0.68273  0.56600  0.12452  Biso   1.000  C
  H88      1.0000 0.69263  0.57497  0.16757  Biso   1.000  H
  C211     1.0000 0.63884  0.55120  0.10817  Biso   1.000  C
  H89      1.0000 0.61913  0.55057  0.14007  Biso   1.000  H
  C212     1.0000 0.75882  0.58662  0.09548  Biso   1.000  C
  C213     1.0000 0.77890  0.62507  0.13092  Biso   1.000  C
  H90      1.0000 0.76193  0.63797  0.14337  Biso   1.000  H
  C214     1.0000 0.76073  0.47677  0.13047  Biso   1.000  C
  C215     1.0000 0.74463  0.45477  0.02287  Biso   1.000  C
  C216     1.0000 0.75533  0.48827  0.08187  Biso   1.000  C
  O37      1.0000 0.22033  0.36284  0.40569  Biso   1.000  O
  O38      1.0000 0.23323  0.38852  0.30359  Biso   1.000  O
  C217     1.0000 0.24463  0.38822  0.36173  Biso   1.000  C
  C218     1.0000 0.29110  0.42012  0.37939  Biso   1.000  C
  C219     1.0000 0.32028  0.44798  0.33299  Biso   1.000  C
  H91      1.0000 0.31030  0.44750  0.29010  Biso   1.000  H
  C220     1.0000 0.36371  0.47650  0.34857  Biso   1.000  C
  H92      1.0000 0.38330  0.49530  0.31640  Biso   1.000  H
  C221     1.0000 0.37832  0.47752  0.41076  Biso   1.000  C
  C222     1.0000 0.34940  0.45007  0.45785  Biso   1.000  C
  H93      1.0000 0.35930  0.45100  0.50090  Biso   1.000  H
  C223     1.0000 0.30551  0.42098  0.44150  Biso   1.000  C
  H94      1.0000 0.28580  0.40190  0.47340  Biso   1.000  H
  C224     1.0000 0.42549  0.50554  0.42881  Biso   1.000  C
  C225     1.0000 0.44557  0.48717  0.46425  Biso   1.000  C
  H95      1.0000 0.42860  0.45730  0.47670  Biso   1.000  H
  C226     1.0000 0.42740  0.61730  0.46380  Biso   1.000  C
  C227     1.0000 0.41130  0.62320  0.35620  Biso   1.000  C
  C228     1.0000 0.42200  0.60040  0.41520  Biso   1.000  C
  O39      1.0000 0.88700  0.69617  0.73902  Biso   1.000  O
  O40      1.0000 0.89990  0.72185  0.63692  Biso   1.000  O
  C229     1.0000 0.91130  0.72155  0.69506  Biso   1.000  C
  C230     1.0000 0.95777  0.75345  0.71272  Biso   1.000  C
  C231     1.0000 0.98695  0.78131  0.66632  Biso   1.000  C
  H96      1.0000 0.97697  0.78083  0.62343  Biso   1.000  H
  C232     1.0000 0.03038  0.80983  0.68190  Biso   1.000  C
  H97      1.0000 0.04997  0.82863  0.64973  Biso   1.000  H
  C233     1.0000 0.04499  0.81085  0.74409  Biso   1.000  C
  C234     1.0000 0.01607  0.78340  0.79118  Biso   1.000  C
  H98      1.0000 0.02597  0.78433  0.83423  Biso   1.000  H
  C235     1.0000 0.97218  0.75431  0.77483  Biso   1.000  C
  H99      1.0000 0.95247  0.73523  0.80673  Biso   1.000  H
  C236     1.0000 0.09216  0.83887  0.76214  Biso   1.000  C
  C237     1.0000 0.11224  0.82050  0.79758  Biso   1.000  C
  H100     1.0000 0.09527  0.79063  0.81003  Biso   1.000  H
  C238     1.0000 0.09407  0.95063  0.79713  Biso   1.000  C
  C239     1.0000 0.07797  0.95653  0.68953  Biso   1.000  C
  C240     1.0000 0.08867  0.93373  0.74853  Biso   1.000  C
  O41      1.0000 0.55366  0.02951  0.07236  Biso   1.000  O
  O42      1.0000 0.56656  0.05519  0.97026  Biso   1.000  O
  C241     1.0000 0.57796  0.05489  0.02840  Biso   1.000  C
  C242     1.0000 0.62443  0.08679  0.04606  Biso   1.000  C
  C243     1.0000 0.65361  0.11465  0.99966  Biso   1.000  C
  H101     1.0000 0.64363  0.11417  0.95677  Biso   1.000  H
  C244     1.0000 0.69704  0.14317  0.01524  Biso   1.000  C
  H102     1.0000 0.71663  0.16197  0.98307  Biso   1.000  H
  C245     1.0000 0.71165  0.14419  0.07743  Biso   1.000  C
  C246     1.0000 0.68273  0.11674  0.12452  Biso   1.000  C
  H103     1.0000 0.69263  0.11767  0.16757  Biso   1.000  H
  C247     1.0000 0.63884  0.08765  0.10817  Biso   1.000  C
  H104     1.0000 0.61913  0.06857  0.14007  Biso   1.000  H
  C248     1.0000 0.75882  0.17221  0.09548  Biso   1.000  C
  C249     1.0000 0.77890  0.15384  0.13092  Biso   1.000  C
  H105     1.0000 0.76193  0.12397  0.14337  Biso   1.000  H
  C250     1.0000 0.76073  0.28397  0.13047  Biso   1.000  C
  C251     1.0000 0.74463  0.28987  0.02287  Biso   1.000  C
  C252     1.0000 0.75533  0.26707  0.08187  Biso   1.000  C
  O43      1.0000 0.63716  0.85749  0.40569  Biso   1.000  O
  O44      1.0000 0.61148  0.84471  0.30359  Biso   1.000  O
  C253     1.0000 0.61178  0.85641  0.36173  Biso   1.000  C
  C254     1.0000 0.57988  0.87098  0.37939  Biso   1.000  C
  C255     1.0000 0.55202  0.87230  0.33299  Biso   1.000  C
  H106     1.0000 0.55250  0.86280  0.29010  Biso   1.000  H
  C256     1.0000 0.52350  0.88721  0.34857  Biso   1.000  C
  H107     1.0000 0.50470  0.88800  0.31640  Biso   1.000  H
  C257     1.0000 0.52248  0.90080  0.41076  Biso   1.000  C
  C258     1.0000 0.54993  0.89933  0.45785  Biso   1.000  C
  H108     1.0000 0.54900  0.90830  0.50090  Biso   1.000  H
  C259     1.0000 0.57902  0.88453  0.44150  Biso   1.000  C
  H109     1.0000 0.59810  0.88390  0.47340  Biso   1.000  H
  C260     1.0000 0.49446  0.91995  0.42881  Biso   1.000  C
  C261     1.0000 0.51283  0.95840  0.46425  Biso   1.000  C
  H110     1.0000 0.54270  0.97130  0.47670  Biso   1.000  H
  C262     1.0000 0.38270  0.81010  0.46380  Biso   1.000  C
  C263     1.0000 0.37680  0.78810  0.35620  Biso   1.000  C
  C264     1.0000 0.39960  0.82160  0.41520  Biso   1.000  C
  O45      1.0000 0.30383  0.19082  0.73902  Biso   1.000  O
  O46      1.0000 0.27815  0.17804  0.63692  Biso   1.000  O
  C265     1.0000 0.27845  0.18974  0.69506  Biso   1.000  C
  C266     1.0000 0.24655  0.20431  0.71272  Biso   1.000  C
  C267     1.0000 0.21869  0.20563  0.66632  Biso   1.000  C
  H111     1.0000 0.21917  0.19613  0.62343  Biso   1.000  H
  C268     1.0000 0.19017  0.22054  0.68190  Biso   1.000  C
  H112     1.0000 0.17137  0.22133  0.64973  Biso   1.000  H
  C269     1.0000 0.18915  0.23413  0.74409  Biso   1.000  C
  C270     1.0000 0.21660  0.23266  0.79118  Biso   1.000  C
  H113     1.0000 0.21567  0.24163  0.83423  Biso   1.000  H
  C271     1.0000 0.24569  0.21786  0.77483  Biso   1.000  C
  H114     1.0000 0.26477  0.21723  0.80673  Biso   1.000  H
  C272     1.0000 0.16113  0.25328  0.76214  Biso   1.000  C
  C273     1.0000 0.17950  0.29173  0.79758  Biso   1.000  C
  H115     1.0000 0.20937  0.30463  0.81003  Biso   1.000  H
  C274     1.0000 0.04937  0.14343  0.79713  Biso   1.000  C
  C275     1.0000 0.04347  0.12143  0.68953  Biso   1.000  C
  C276     1.0000 0.06627  0.15493  0.74853  Biso   1.000  C
  O47      1.0000 0.97049  0.52416  0.07236  Biso   1.000  O
  O48      1.0000 0.94481  0.51138  0.97026  Biso   1.000  O
  C277     1.0000 0.94511  0.52308  0.02840  Biso   1.000  C
  C278     1.0000 0.91321  0.53765  0.04606  Biso   1.000  C
  C279     1.0000 0.88535  0.53897  0.99966  Biso   1.000  C
  H116     1.0000 0.88583  0.52947  0.95677  Biso   1.000  H
  C280     1.0000 0.85683  0.55388  0.01524  Biso   1.000  C
  H117     1.0000 0.83803  0.55467  0.98307  Biso   1.000  H
  C281     1.0000 0.85581  0.56747  0.07743  Biso   1.000  C
  C282     1.0000 0.88326  0.56600  0.12452  Biso   1.000  C
  H118     1.0000 0.88233  0.57497  0.16757  Biso   1.000  H
  C283     1.0000 0.91235  0.55120  0.10817  Biso   1.000  C
  H119     1.0000 0.93143  0.55057  0.14007  Biso   1.000  H
  C284     1.0000 0.82779  0.58662  0.09548  Biso   1.000  C
  C285     1.0000 0.84616  0.62507  0.13092  Biso   1.000  C
  H120     1.0000 0.87603  0.63797  0.14337  Biso   1.000  H
  C286     1.0000 0.71603  0.47677  0.13047  Biso   1.000  C
  C287     1.0000 0.71013  0.45477  0.02287  Biso   1.000  C
  C288     1.0000 0.73293  0.48827  0.08187  Biso   1.000  C
  O49      1.0000 0.14251  0.77967  0.40569  Biso   1.000  O
  O50      1.0000 0.15529  0.76677  0.30359  Biso   1.000  O
  C289     1.0000 0.14359  0.75537  0.36173  Biso   1.000  C
  C290     1.0000 0.12902  0.70890  0.37939  Biso   1.000  C
  C291     1.0000 0.12770  0.67972  0.33299  Biso   1.000  C
  H121     1.0000 0.13720  0.68970  0.29010  Biso   1.000  H
  C292     1.0000 0.11279  0.63629  0.34857  Biso   1.000  C
  H122     1.0000 0.11200  0.61670  0.31640  Biso   1.000  H
  C293     1.0000 0.09920  0.62168  0.41076  Biso   1.000  C
  C294     1.0000 0.10067  0.65060  0.45785  Biso   1.000  C
  H123     1.0000 0.09170  0.64070  0.50090  Biso   1.000  H
  C295     1.0000 0.11547  0.69449  0.44150  Biso   1.000  C
  H124     1.0000 0.11610  0.71420  0.47340  Biso   1.000  H
  C296     1.0000 0.08005  0.57451  0.42881  Biso   1.000  C
  C297     1.0000 0.04160  0.55443  0.46425  Biso   1.000  C
  H125     1.0000 0.02870  0.57140  0.47670  Biso   1.000  H
  C298     1.0000 0.18990  0.57260  0.46380  Biso   1.000  C
  C299     1.0000 0.21190  0.58870  0.35620  Biso   1.000  C
  C300     1.0000 0.17840  0.57800  0.41520  Biso   1.000  C
  O51      1.0000 0.80918  0.11300  0.73902  Biso   1.000  O
  O52      1.0000 0.82196  0.10010  0.63692  Biso   1.000  O
  C301     1.0000 0.81026  0.08870  0.69506  Biso   1.000  C
  C302     1.0000 0.79569  0.04223  0.71272  Biso   1.000  C
  C303     1.0000 0.79437  0.01305  0.66632  Biso   1.000  C
  H126     1.0000 0.80387  0.02303  0.62343  Biso   1.000  H
  C304     1.0000 0.77946  0.96962  0.68190  Biso   1.000  C
  H127     1.0000 0.77867  0.95003  0.64973  Biso   1.000  H
  C305     1.0000 0.76587  0.95501  0.74409  Biso   1.000  C
  C306     1.0000 0.76734  0.98393  0.79118  Biso   1.000  C
  H128     1.0000 0.75837  0.97403  0.83423  Biso   1.000  H
  C307     1.0000 0.78214  0.02782  0.77483  Biso   1.000  C
  H129     1.0000 0.78277  0.04753  0.80673  Biso   1.000  H
  C308     1.0000 0.74672  0.90784  0.76214  Biso   1.000  C
  C309     1.0000 0.70827  0.88776  0.79758  Biso   1.000  C
  H130     1.0000 0.69537  0.90473  0.81003  Biso   1.000  H
  C310     1.0000 0.85657  0.90593  0.79713  Biso   1.000  C
  C311     1.0000 0.87857  0.92203  0.68953  Biso   1.000  C
  C312     1.0000 0.84507  0.91133  0.74853  Biso   1.000  C
  O53      1.0000 0.47584  0.44634  0.07236  Biso   1.000  O
  O54      1.0000 0.48862  0.43344  0.97026  Biso   1.000  O
  C313     1.0000 0.47692  0.42204  0.02840  Biso   1.000  C
  C314     1.0000 0.46235  0.37557  0.04606  Biso   1.000  C
  C315     1.0000 0.46103  0.34639  0.99966  Biso   1.000  C
  H131     1.0000 0.47053  0.35637  0.95677  Biso   1.000  H
  C316     1.0000 0.44612  0.30296  0.01524  Biso   1.000  C
  H132     1.0000 0.44533  0.28337  0.98307  Biso   1.000  H
  C317     1.0000 0.43253  0.28835  0.07743  Biso   1.000  C
  C318     1.0000 0.43400  0.31727  0.12452  Biso   1.000  C
  H133     1.0000 0.42503  0.30737  0.16757  Biso   1.000  H
  C319     1.0000 0.44880  0.36116  0.10817  Biso   1.000  C
  H134     1.0000 0.44943  0.38087  0.14007  Biso   1.000  H
  C320     1.0000 0.41338  0.24118  0.09548  Biso   1.000  C
  C321     1.0000 0.37493  0.22110  0.13092  Biso   1.000  C
  H135     1.0000 0.36203  0.23807  0.14337  Biso   1.000  H
  C322     1.0000 0.52323  0.23927  0.13047  Biso   1.000  C
  C323     1.0000 0.54523  0.25537  0.02287  Biso   1.000  C
  C324     1.0000 0.51173  0.24467  0.08187  Biso   1.000  C
  O55      1.0000 0.36284  0.22033  0.59431  Biso   1.000  O
  O56      1.0000 0.38852  0.23323  0.69641  Biso   1.000  O
  C325     1.0000 0.38822  0.24463  0.63827  Biso   1.000  C
  C326     1.0000 0.42012  0.29110  0.62061  Biso   1.000  C
  C327     1.0000 0.44798  0.32028  0.66701  Biso   1.000  C
  H136     1.0000 0.44750  0.31030  0.70990  Biso   1.000  H
  C328     1.0000 0.47650  0.36371  0.65143  Biso   1.000  C
  H137     1.0000 0.49530  0.38330  0.68360  Biso   1.000  H
  C329     1.0000 0.47752  0.37832  0.58924  Biso   1.000  C
  C330     1.0000 0.45007  0.34940  0.54215  Biso   1.000  C
  H138     1.0000 0.45100  0.35930  0.49910  Biso   1.000  H
  C331     1.0000 0.42098  0.30551  0.55850  Biso   1.000  C
  H139     1.0000 0.40190  0.28580  0.52660  Biso   1.000  H
  C332     1.0000 0.50554  0.42549  0.57119  Biso   1.000  C
  C333     1.0000 0.48717  0.44557  0.53575  Biso   1.000  C
  H140     1.0000 0.45730  0.42860  0.52330  Biso   1.000  H
  C334     1.0000 0.61730  0.42740  0.53620  Biso   1.000  C
  C335     1.0000 0.62320  0.41130  0.64380  Biso   1.000  C
  C336     1.0000 0.60040  0.42200  0.58480  Biso   1.000  C
  O57      1.0000 0.02951  0.55366  0.92764  Biso   1.000  O
  O58      1.0000 0.05519  0.56656  0.02974  Biso   1.000  O
  C337     1.0000 0.05489  0.57796  0.97160  Biso   1.000  C
  C338     1.0000 0.08679  0.62443  0.95394  Biso   1.000  C
  C339     1.0000 0.11465  0.65361  0.00034  Biso   1.000  C
  H141     1.0000 0.11417  0.64363  0.04323  Biso   1.000  H
  C340     1.0000 0.14317  0.69704  0.98476  Biso   1.000  C
  H142     1.0000 0.16197  0.71663  0.01693  Biso   1.000  H
  C341     1.0000 0.14419  0.71165  0.92257  Biso   1.000  C
  C342     1.0000 0.11674  0.68273  0.87548  Biso   1.000  C
  H143     1.0000 0.11767  0.69263  0.83243  Biso   1.000  H
  C343     1.0000 0.08765  0.63884  0.89183  Biso   1.000  C
  H144     1.0000 0.06857  0.61913  0.85993  Biso   1.000  H
  C344     1.0000 0.17221  0.75882  0.90452  Biso   1.000  C
  C345     1.0000 0.15384  0.77890  0.86908  Biso   1.000  C
  H145     1.0000 0.12397  0.76193  0.85663  Biso   1.000  H
  C346     1.0000 0.28397  0.76073  0.86953  Biso   1.000  C
  C347     1.0000 0.28987  0.74463  0.97713  Biso   1.000  C
  C348     1.0000 0.26707  0.75533  0.91813  Biso   1.000  C
  O59      1.0000 0.69617  0.88700  0.26098  Biso   1.000  O
  O60      1.0000 0.72185  0.89990  0.36308  Biso   1.000  O
  C349     1.0000 0.72155  0.91130  0.30494  Biso   1.000  C
  C350     1.0000 0.75345  0.95777  0.28728  Biso   1.000  C
  C351     1.0000 0.78131  0.98695  0.33368  Biso   1.000  C
  H146     1.0000 0.78083  0.97697  0.37657  Biso   1.000  H
  C352     1.0000 0.80983  0.03038  0.31810  Biso   1.000  C
  H147     1.0000 0.82863  0.04997  0.35027  Biso   1.000  H
  C353     1.0000 0.81085  0.04499  0.25591  Biso   1.000  C
  C354     1.0000 0.78340  0.01607  0.20882  Biso   1.000  C
  H148     1.0000 0.78433  0.02597  0.16577  Biso   1.000  H
  C355     1.0000 0.75431  0.97218  0.22517  Biso   1.000  C
  H149     1.0000 0.73523  0.95247  0.19327  Biso   1.000  H
  C356     1.0000 0.83887  0.09216  0.23786  Biso   1.000  C
  C357     1.0000 0.82050  0.11224  0.20242  Biso   1.000  C
  H150     1.0000 0.79063  0.09527  0.18997  Biso   1.000  H
  C358     1.0000 0.95063  0.09407  0.20287  Biso   1.000  C
  C359     1.0000 0.95653  0.07797  0.31047  Biso   1.000  C
  C360     1.0000 0.93373  0.08867  0.25147  Biso   1.000  C
  O61      1.0000 0.85749  0.63716  0.59431  Biso   1.000  O
  O62      1.0000 0.84471  0.61148  0.69641  Biso   1.000  O
  C361     1.0000 0.85641  0.61178  0.63827  Biso   1.000  C
  C362     1.0000 0.87098  0.57988  0.62061  Biso   1.000  C
  C363     1.0000 0.87230  0.55202  0.66701  Biso   1.000  C
  H151     1.0000 0.86280  0.55250  0.70990  Biso   1.000  H
  C364     1.0000 0.88721  0.52350  0.65143  Biso   1.000  C
  H152     1.0000 0.88800  0.50470  0.68360  Biso   1.000  H
  C365     1.0000 0.90080  0.52248  0.58924  Biso   1.000  C
  C366     1.0000 0.89933  0.54993  0.54215  Biso   1.000  C
  H153     1.0000 0.90830  0.54900  0.49910  Biso   1.000  H
  C367     1.0000 0.88453  0.57902  0.55850  Biso   1.000  C
  H154     1.0000 0.88390  0.59810  0.52660  Biso   1.000  H
  C368     1.0000 0.91995  0.49446  0.57119  Biso   1.000  C
  C369     1.0000 0.95840  0.51283  0.53575  Biso   1.000  C
  H155     1.0000 0.97130  0.54270  0.52330  Biso   1.000  H
  C370     1.0000 0.81010  0.38270  0.53620  Biso   1.000  C
  C371     1.0000 0.78810  0.37680  0.64380  Biso   1.000  C
  C372     1.0000 0.82160  0.39960  0.58480  Biso   1.000  C
  O63      1.0000 0.52416  0.97049  0.92764  Biso   1.000  O
  O64      1.0000 0.51138  0.94481  0.02974  Biso   1.000  O
  C373     1.0000 0.52308  0.94511  0.97160  Biso   1.000  C
  C374     1.0000 0.53765  0.91321  0.95394  Biso   1.000  C
  C375     1.0000 0.53897  0.88535  0.00034  Biso   1.000  C
  H156     1.0000 0.52947  0.88583  0.04323  Biso   1.000  H
  C376     1.0000 0.55388  0.85683  0.98476  Biso   1.000  C
  H157     1.0000 0.55467  0.83803  0.01693  Biso   1.000  H
  C377     1.0000 0.56747  0.85581  0.92257  Biso   1.000  C
  C378     1.0000 0.56600  0.88326  0.87548  Biso   1.000  C
  H158     1.0000 0.57497  0.88233  0.83243  Biso   1.000  H
  C379     1.0000 0.55120  0.91235  0.89183  Biso   1.000  C
  H159     1.0000 0.55057  0.93143  0.85993  Biso   1.000  H
  C380     1.0000 0.58662  0.82779  0.90452  Biso   1.000  C
  C381     1.0000 0.62507  0.84616  0.86908  Biso   1.000  C
  H160     1.0000 0.63797  0.87603  0.85663  Biso   1.000  H
  C382     1.0000 0.47677  0.71603  0.86953  Biso   1.000  C
  C383     1.0000 0.45477  0.71013  0.97713  Biso   1.000  C
  C384     1.0000 0.48827  0.73293  0.91813  Biso   1.000  C
  O65      1.0000 0.19082  0.30383  0.26098  Biso   1.000  O
  O66      1.0000 0.17804  0.27815  0.36308  Biso   1.000  O
  C385     1.0000 0.18974  0.27845  0.30494  Biso   1.000  C
  C386     1.0000 0.20431  0.24655  0.28728  Biso   1.000  C
  C387     1.0000 0.20563  0.21869  0.33368  Biso   1.000  C
  H161     1.0000 0.19613  0.21917  0.37657  Biso   1.000  H
  C388     1.0000 0.22054  0.19017  0.31810  Biso   1.000  C
  H162     1.0000 0.22133  0.17137  0.35027  Biso   1.000  H
  C389     1.0000 0.23413  0.18915  0.25591  Biso   1.000  C
  C390     1.0000 0.23266  0.21660  0.20882  Biso   1.000  C
  H163     1.0000 0.24163  0.21567  0.16577  Biso   1.000  H
  C391     1.0000 0.21786  0.24569  0.22517  Biso   1.000  C
  H164     1.0000 0.21723  0.26477  0.19327  Biso   1.000  H
  C392     1.0000 0.25328  0.16113  0.23786  Biso   1.000  C
  C393     1.0000 0.29173  0.17950  0.20242  Biso   1.000  C
  H165     1.0000 0.30463  0.20937  0.18997  Biso   1.000  H
  C394     1.0000 0.14343  0.04937  0.20287  Biso   1.000  C
  C395     1.0000 0.12143  0.04347  0.31047  Biso   1.000  C
  C396     1.0000 0.15493  0.06627  0.25147  Biso   1.000  C
  O67      1.0000 0.77967  0.14251  0.59431  Biso   1.000  O
  O68      1.0000 0.76677  0.15529  0.69641  Biso   1.000  O
  C397     1.0000 0.75537  0.14359  0.63827  Biso   1.000  C
  C398     1.0000 0.70890  0.12902  0.62061  Biso   1.000  C
  C399     1.0000 0.67972  0.12770  0.66701  Biso   1.000  C
  H166     1.0000 0.68970  0.13720  0.70990  Biso   1.000  H
  C400     1.0000 0.63629  0.11279  0.65143  Biso   1.000  C
  H167     1.0000 0.61670  0.11200  0.68360  Biso   1.000  H
  C401     1.0000 0.62168  0.09920  0.58924  Biso   1.000  C
  C402     1.0000 0.65060  0.10067  0.54215  Biso   1.000  C
  H168     1.0000 0.64070  0.09170  0.49910  Biso   1.000  H
  C403     1.0000 0.69449  0.11547  0.55850  Biso   1.000  C
  H169     1.0000 0.71420  0.11610  0.52660  Biso   1.000  H
  C404     1.0000 0.57451  0.08005  0.57119  Biso   1.000  C
  C405     1.0000 0.55443  0.04160  0.53575  Biso   1.000  C
  H170     1.0000 0.57140  0.02870  0.52330  Biso   1.000  H
  C406     1.0000 0.57260  0.18990  0.53620  Biso   1.000  C
  C407     1.0000 0.58870  0.21190  0.64380  Biso   1.000  C
  C408     1.0000 0.57800  0.17840  0.58480  Biso   1.000  C
  O69      1.0000 0.44634  0.47584  0.92764  Biso   1.000  O
  O70      1.0000 0.43344  0.48862  0.02974  Biso   1.000  O
  C409     1.0000 0.42204  0.47692  0.97160  Biso   1.000  C
  C410     1.0000 0.37557  0.46235  0.95394  Biso   1.000  C
  C411     1.0000 0.34639  0.46103  0.00034  Biso   1.000  C
  H171     1.0000 0.35637  0.47053  0.04323  Biso   1.000  H
  C412     1.0000 0.30296  0.44612  0.98476  Biso   1.000  C
  H172     1.0000 0.28337  0.44533  0.01693  Biso   1.000  H
  C413     1.0000 0.28835  0.43253  0.92257  Biso   1.000  C
  C414     1.0000 0.31727  0.43400  0.87548  Biso   1.000  C
  H173     1.0000 0.30737  0.42503  0.83243  Biso   1.000  H
  C415     1.0000 0.36116  0.44880  0.89183  Biso   1.000  C
  H174     1.0000 0.38087  0.44943  0.85993  Biso   1.000  H
  C416     1.0000 0.24118  0.41338  0.90452  Biso   1.000  C
  C417     1.0000 0.22110  0.37493  0.86908  Biso   1.000  C
  H175     1.0000 0.23807  0.36203  0.85663  Biso   1.000  H
  C418     1.0000 0.23927  0.52323  0.86953  Biso   1.000  C
  C419     1.0000 0.25537  0.54523  0.97713  Biso   1.000  C
  C420     1.0000 0.24467  0.51173  0.91813  Biso   1.000  C
  O71      1.0000 0.11300  0.80918  0.26098  Biso   1.000  O
  O72      1.0000 0.10010  0.82196  0.36308  Biso   1.000  O
  C421     1.0000 0.08870  0.81026  0.30494  Biso   1.000  C
  C422     1.0000 0.04223  0.79569  0.28728  Biso   1.000  C
  C423     1.0000 0.01305  0.79437  0.33368  Biso   1.000  C
  H176     1.0000 0.02303  0.80387  0.37657  Biso   1.000  H
  C424     1.0000 0.96962  0.77946  0.31810  Biso   1.000  C
  H177     1.0000 0.95003  0.77867  0.35027  Biso   1.000  H
  C425     1.0000 0.95501  0.76587  0.25591  Biso   1.000  C
  C426     1.0000 0.98393  0.76734  0.20882  Biso   1.000  C
  H178     1.0000 0.97403  0.75837  0.16577  Biso   1.000  H
  C427     1.0000 0.02782  0.78214  0.22517  Biso   1.000  C
  H179     1.0000 0.04753  0.78277  0.19327  Biso   1.000  H
  C428     1.0000 0.90784  0.74672  0.23786  Biso   1.000  C
  C429     1.0000 0.88776  0.70827  0.20242  Biso   1.000  C
  H180     1.0000 0.90473  0.69537  0.18997  Biso   1.000  H
  C430     1.0000 0.90593  0.85657  0.20287  Biso   1.000  C
  C431     1.0000 0.92203  0.87857  0.31047  Biso   1.000  C
  C432     1.0000 0.91133  0.84507  0.25147  Biso   1.000  C
  Cu1      1.0000 0.82593  0.65187  0.72659  Biso   1.000  Cu
  Cu2      1.0000 0.49260  0.98520  0.05992  Biso   1.000  Cu
  Cu3      1.0000 0.15927  0.31854  0.39326  Biso   1.000  Cu
  Cu4      1.0000 0.34813  0.17406  0.72659  Biso   1.000  Cu
  Cu5      1.0000 0.01480  0.50740  0.05992  Biso   1.000  Cu
  Cu6      1.0000 0.68146  0.84073  0.39326  Biso   1.000  Cu
  Cu7      1.0000 0.82593  0.17407  0.72659  Biso   1.000  Cu
  Cu8      1.0000 0.49260  0.50740  0.05992  Biso   1.000  Cu
  Cu9      1.0000 0.15927  0.84073  0.39326  Biso   1.000  Cu
  Cu10     1.0000 0.65187  0.82593  0.27341  Biso   1.000  Cu
  Cu11     1.0000 0.31854  0.15927  0.60674  Biso   1.000  Cu
  Cu12     1.0000 0.98520  0.49260  0.94008  Biso   1.000  Cu
  Cu13     1.0000 0.17406  0.34813  0.27341  Biso   1.000  Cu
  Cu14     1.0000 0.84073  0.68146  0.60674  Biso   1.000  Cu
  Cu15     1.0000 0.50740  0.01480  0.94008  Biso   1.000  Cu
  Cu16     1.0000 0.17407  0.82594  0.27341  Biso   1.000  Cu
  Cu17     1.0000 0.84073  0.15927  0.60674  Biso   1.000  Cu
  Cu18     1.0000 0.50740  0.49260  0.94008  Biso   1.000  Cu
  O73      1.0000 0.56898  0.43102  0.62396  Biso   1.000  O
  C433     1.0000 0.51042  0.48958  0.51740  Biso   1.000  C
  C434     1.0000 0.54980  0.45020  0.58960  Biso   1.000  C
  O74      1.0000 0.23565  0.76435  0.95729  Biso   1.000  O
  C435     1.0000 0.17709  0.82291  0.85073  Biso   1.000  C
  C436     1.0000 0.21647  0.78353  0.92293  Biso   1.000  C
  O75      1.0000 0.90231  0.09769  0.29063  Biso   1.000  O
  C437     1.0000 0.84375  0.15625  0.18407  Biso   1.000  C
  C438     1.0000 0.88313  0.11687  0.25627  Biso   1.000  C
  O76      1.0000 0.56898  0.13796  0.62396  Biso   1.000  O
  C439     1.0000 0.51042  0.02084  0.51740  Biso   1.000  C
  C440     1.0000 0.54980  0.09960  0.58960  Biso   1.000  C
  O77      1.0000 0.23565  0.47129  0.95729  Biso   1.000  O
  C441     1.0000 0.17709  0.35417  0.85073  Biso   1.000  C
  C442     1.0000 0.21647  0.43293  0.92293  Biso   1.000  C
  O78      1.0000 0.90231  0.80463  0.29063  Biso   1.000  O
  C443     1.0000 0.84375  0.68751  0.18407  Biso   1.000  C
  C444     1.0000 0.88313  0.76627  0.25627  Biso   1.000  C
  O79      1.0000 0.86204  0.43102  0.62396  Biso   1.000  O
  C445     1.0000 0.97916  0.48958  0.51740  Biso   1.000  C
  C446     1.0000 0.90040  0.45020  0.58960  Biso   1.000  C
  O80      1.0000 0.52871  0.76435  0.95729  Biso   1.000  O
  C447     1.0000 0.64583  0.82291  0.85073  Biso   1.000  C
  C448     1.0000 0.56707  0.78353  0.92293  Biso   1.000  C
  O81      1.0000 0.19537  0.09769  0.29063  Biso   1.000  O
  C449     1.0000 0.31249  0.15625  0.18407  Biso   1.000  C
  C450     1.0000 0.23373  0.11687  0.25627  Biso   1.000  C
  O82      1.0000 0.43102  0.56898  0.37604  Biso   1.000  O
  C451     1.0000 0.48958  0.51042  0.48260  Biso   1.000  C
  C452     1.0000 0.45020  0.54980  0.41040  Biso   1.000  C
  O83      1.0000 0.09769  0.90231  0.70937  Biso   1.000  O
  C453     1.0000 0.15625  0.84375  0.81593  Biso   1.000  C
  C454     1.0000 0.11687  0.88313  0.74373  Biso   1.000  C
  O84      1.0000 0.76435  0.23565  0.04271  Biso   1.000  O
  C455     1.0000 0.82291  0.17709  0.14927  Biso   1.000  C
  C456     1.0000 0.78353  0.21647  0.07707  Biso   1.000  C
  O85      1.0000 0.13796  0.56898  0.37604  Biso   1.000  O
  C457     1.0000 0.02084  0.51042  0.48260  Biso   1.000  C
  C458     1.0000 0.09960  0.54980  0.41040  Biso   1.000  C
  O86      1.0000 0.80463  0.90231  0.70937  Biso   1.000  O
  C459     1.0000 0.68751  0.84375  0.81593  Biso   1.000  C
  C460     1.0000 0.76627  0.88313  0.74373  Biso   1.000  C
  O87      1.0000 0.47129  0.23565  0.04271  Biso   1.000  O
  C461     1.0000 0.35417  0.17709  0.14927  Biso   1.000  C
  C462     1.0000 0.43293  0.21647  0.07707  Biso   1.000  C
  O88      1.0000 0.43102  0.86204  0.37604  Biso   1.000  O
  C463     1.0000 0.48958  0.97916  0.48260  Biso   1.000  C
  C464     1.0000 0.45020  0.90040  0.41040  Biso   1.000  C
  O89      1.0000 0.09769  0.19537  0.70937  Biso   1.000  O
  C465     1.0000 0.15625  0.31249  0.81593  Biso   1.000  C
  C466     1.0000 0.11687  0.23373  0.74373  Biso   1.000  C
  O90      1.0000 0.76435  0.52871  0.04271  Biso   1.000  O
  C467     1.0000 0.82291  0.64583  0.14927  Biso   1.000  C
  C468     1.0000 0.78353  0.56707  0.07707  Biso   1.000  C
