data_image0
_cell_length_a       35.1302
_cell_length_b       35.1302
_cell_length_c       22.2529
_cell_angle_alpha    90
_cell_angle_beta     90
_cell_angle_gamma    120

_symmetry_space_group_name_H-M    "P 1"
_symmetry_int_tables_number       1

loop_
  _symmetry_equiv_pos_as_xyz
  'x, y, z'

loop_
  _atom_site_label
  _atom_site_occupancy
  _atom_site_fract_x
  _atom_site_fract_y
  _atom_site_fract_z
  _atom_site_thermal_displace_type
  _atom_site_B_iso_or_equiv
  _atom_site_type_symbol
  O1       1.0000 0.36213  0.22034  0.09796  Biso   1.000  O
  O2       1.0000 0.38928  0.23404  0.19220  Biso   1.000  O
  C1       1.0000 0.38768  0.24498  0.13933  Biso   1.000  C
  C2       1.0000 0.41907  0.29183  0.12135  Biso   1.000  C
  C3       1.0000 0.44685  0.32208  0.16390  Biso   1.000  C
  H1       1.0000 0.44650  0.31320  0.20340  Biso   1.000  H
  C4       1.0000 0.47496  0.36521  0.14772  Biso   1.000  C
  H2       1.0000 0.49350  0.38500  0.17640  Biso   1.000  H
  C5       1.0000 0.47595  0.37941  0.08991  Biso   1.000  C
  C6       1.0000 0.44845  0.34919  0.04697  Biso   1.000  C
  H3       1.0000 0.44910  0.35810  0.00740  Biso   1.000  H
  C7       1.0000 0.41994  0.30569  0.06352  Biso   1.000  C
  H4       1.0000 0.40130  0.28580  0.03490  Biso   1.000  H
  C8       1.0000 0.50430  0.42639  0.07141  Biso   1.000  C
  C9       1.0000 0.48637  0.44605  0.03714  Biso   1.000  C
  H5       1.0000 0.45710  0.42940  0.02570  Biso   1.000  H
  C10      1.0000 0.59170  0.38140  0.14280  Biso   1.000  C
  C11      1.0000 0.61340  0.42310  0.03500  Biso   1.000  C
  O3       1.0000 0.02880  0.55367  0.43129  Biso   1.000  O
  O4       1.0000 0.05595  0.56737  0.52553  Biso   1.000  O
  C12      1.0000 0.05435  0.57831  0.47266  Biso   1.000  C
  C13      1.0000 0.08574  0.62516  0.45468  Biso   1.000  C
  C14      1.0000 0.11352  0.65541  0.49723  Biso   1.000  C
  H6       1.0000 0.11317  0.64653  0.53673  Biso   1.000  H
  C15      1.0000 0.14163  0.69854  0.48105  Biso   1.000  C
  H7       1.0000 0.16017  0.71833  0.50973  Biso   1.000  H
  C16      1.0000 0.14262  0.71274  0.42324  Biso   1.000  C
  C17      1.0000 0.11512  0.68252  0.38030  Biso   1.000  C
  H8       1.0000 0.11577  0.69143  0.34073  Biso   1.000  H
  C18      1.0000 0.08661  0.63902  0.39685  Biso   1.000  C
  H9       1.0000 0.06797  0.61913  0.36823  Biso   1.000  H
  C19      1.0000 0.17097  0.75972  0.40474  Biso   1.000  C
  C20      1.0000 0.15304  0.77938  0.37047  Biso   1.000  C
  H10      1.0000 0.12377  0.76273  0.35903  Biso   1.000  H
  C21      1.0000 0.25837  0.71473  0.47613  Biso   1.000  C
  C22      1.0000 0.28007  0.75643  0.36833  Biso   1.000  C
  O5       1.0000 0.69546  0.88701  0.76463  Biso   1.000  O
  O6       1.0000 0.72261  0.90071  0.85887  Biso   1.000  O
  C23      1.0000 0.72101  0.91165  0.80600  Biso   1.000  C
  C24      1.0000 0.75240  0.95850  0.78802  Biso   1.000  C
  C25      1.0000 0.78018  0.98875  0.83057  Biso   1.000  C
  H11      1.0000 0.77983  0.97987  0.87007  Biso   1.000  H
  C26      1.0000 0.80829  0.03188  0.81439  Biso   1.000  C
  H12      1.0000 0.82683  0.05167  0.84307  Biso   1.000  H
  C27      1.0000 0.80928  0.04608  0.75658  Biso   1.000  C
  C28      1.0000 0.78178  0.01586  0.71364  Biso   1.000  C
  H13      1.0000 0.78243  0.02477  0.67407  Biso   1.000  H
  C29      1.0000 0.75327  0.97236  0.73019  Biso   1.000  C
  H14      1.0000 0.73463  0.95247  0.70157  Biso   1.000  H
  C30      1.0000 0.83763  0.09306  0.73808  Biso   1.000  C
  C31      1.0000 0.81970  0.11272  0.70381  Biso   1.000  C
  H15      1.0000 0.79043  0.09607  0.69237  Biso   1.000  H
  C32      1.0000 0.92503  0.04807  0.80947  Biso   1.000  C
  C33      1.0000 0.94673  0.08977  0.70167  Biso   1.000  C
  O7       1.0000 0.77966  0.14179  0.09796  Biso   1.000  O
  O8       1.0000 0.76596  0.15524  0.19220  Biso   1.000  O
  C34      1.0000 0.75502  0.14270  0.13933  Biso   1.000  C
  C35      1.0000 0.70817  0.12724  0.12135  Biso   1.000  C
  C36      1.0000 0.67792  0.12477  0.16390  Biso   1.000  C
  H16      1.0000 0.68680  0.13330  0.20340  Biso   1.000  H
  C37      1.0000 0.63479  0.10975  0.14772  Biso   1.000  C
  H17      1.0000 0.61500  0.10850  0.17640  Biso   1.000  H
  C38      1.0000 0.62059  0.09654  0.08991  Biso   1.000  C
  C39      1.0000 0.65081  0.09926  0.04697  Biso   1.000  C
  H18      1.0000 0.64190  0.09100  0.00740  Biso   1.000  H
  C40      1.0000 0.69431  0.11425  0.06352  Biso   1.000  C
  H19      1.0000 0.71420  0.11550  0.03490  Biso   1.000  H
  C41      1.0000 0.57361  0.07791  0.07141  Biso   1.000  C
  C42      1.0000 0.55395  0.04032  0.03714  Biso   1.000  C
  H20      1.0000 0.57060  0.02770  0.02570  Biso   1.000  H
  C43      1.0000 0.61860  0.21030  0.14280  Biso   1.000  C
  C44      1.0000 0.57690  0.19030  0.03500  Biso   1.000  C
  O9       1.0000 0.44633  0.47512  0.43129  Biso   1.000  O
  O10      1.0000 0.43263  0.48857  0.52553  Biso   1.000  O
  C45      1.0000 0.42169  0.47603  0.47266  Biso   1.000  C
  C46      1.0000 0.37484  0.46057  0.45468  Biso   1.000  C
  C47      1.0000 0.34459  0.45810  0.49723  Biso   1.000  C
  H21      1.0000 0.35347  0.46663  0.53673  Biso   1.000  H
  C48      1.0000 0.30146  0.44308  0.48105  Biso   1.000  C
  H22      1.0000 0.28167  0.44183  0.50973  Biso   1.000  H
  C49      1.0000 0.28726  0.42987  0.42324  Biso   1.000  C
  C50      1.0000 0.31748  0.43259  0.38030  Biso   1.000  C
  H23      1.0000 0.30857  0.42433  0.34073  Biso   1.000  H
  C51      1.0000 0.36098  0.44758  0.39685  Biso   1.000  C
  H24      1.0000 0.38087  0.44883  0.36823  Biso   1.000  H
  C52      1.0000 0.24028  0.41124  0.40474  Biso   1.000  C
  C53      1.0000 0.22062  0.37365  0.37047  Biso   1.000  C
  H25      1.0000 0.23727  0.36103  0.35903  Biso   1.000  H
  C54      1.0000 0.28527  0.54363  0.47613  Biso   1.000  C
  C55      1.0000 0.24357  0.52363  0.36833  Biso   1.000  C
  O11      1.0000 0.11299  0.80846  0.76463  Biso   1.000  O
  O12      1.0000 0.09929  0.82191  0.85887  Biso   1.000  O
  C56      1.0000 0.08835  0.80937  0.80600  Biso   1.000  C
  C57      1.0000 0.04150  0.79391  0.78802  Biso   1.000  C
  C58      1.0000 0.01125  0.79144  0.83057  Biso   1.000  C
  H26      1.0000 0.02013  0.79997  0.87007  Biso   1.000  H
  C59      1.0000 0.96812  0.77642  0.81439  Biso   1.000  C
  H27      1.0000 0.94833  0.77517  0.84307  Biso   1.000  H
  C60      1.0000 0.95392  0.76321  0.75658  Biso   1.000  C
  C61      1.0000 0.98414  0.76593  0.71364  Biso   1.000  C
  H28      1.0000 0.97523  0.75767  0.67407  Biso   1.000  H
  C62      1.0000 0.02764  0.78092  0.73019  Biso   1.000  C
  H29      1.0000 0.04753  0.78217  0.70157  Biso   1.000  H
  C63      1.0000 0.90694  0.74458  0.73808  Biso   1.000  C
  C64      1.0000 0.88728  0.70699  0.70381  Biso   1.000  C
  H30      1.0000 0.90393  0.69437  0.69237  Biso   1.000  H
  C65      1.0000 0.95193  0.87697  0.80947  Biso   1.000  C
  C66      1.0000 0.91023  0.85697  0.70167  Biso   1.000  C
  O13      1.0000 0.85821  0.63787  0.09796  Biso   1.000  O
  O14      1.0000 0.84476  0.61072  0.19220  Biso   1.000  O
  C67      1.0000 0.85730  0.61232  0.13933  Biso   1.000  C
  C68      1.0000 0.87276  0.58093  0.12135  Biso   1.000  C
  C69      1.0000 0.87523  0.55315  0.16390  Biso   1.000  C
  H31      1.0000 0.86670  0.55350  0.20340  Biso   1.000  H
  C70      1.0000 0.89025  0.52504  0.14772  Biso   1.000  C
  H32      1.0000 0.89150  0.50650  0.17640  Biso   1.000  H
  C71      1.0000 0.90346  0.52405  0.08991  Biso   1.000  C
  C72      1.0000 0.90074  0.55155  0.04697  Biso   1.000  C
  H33      1.0000 0.90900  0.55090  0.00740  Biso   1.000  H
  C73      1.0000 0.88575  0.58006  0.06352  Biso   1.000  C
  H34      1.0000 0.88450  0.59870  0.03490  Biso   1.000  H
  C74      1.0000 0.92209  0.49570  0.07141  Biso   1.000  C
  C75      1.0000 0.95968  0.51363  0.03714  Biso   1.000  C
  H35      1.0000 0.97230  0.54290  0.02570  Biso   1.000  H
  C76      1.0000 0.78970  0.40830  0.14280  Biso   1.000  C
  C77      1.0000 0.80970  0.38660  0.03500  Biso   1.000  C
  O15      1.0000 0.52488  0.97120  0.43129  Biso   1.000  O
  O16      1.0000 0.51143  0.94405  0.52553  Biso   1.000  O
  C78      1.0000 0.52397  0.94565  0.47266  Biso   1.000  C
  C79      1.0000 0.53943  0.91426  0.45468  Biso   1.000  C
  C80      1.0000 0.54190  0.88648  0.49723  Biso   1.000  C
  H36      1.0000 0.53337  0.88683  0.53673  Biso   1.000  H
  C81      1.0000 0.55692  0.85837  0.48105  Biso   1.000  C
  H37      1.0000 0.55817  0.83983  0.50973  Biso   1.000  H
  C82      1.0000 0.57013  0.85738  0.42324  Biso   1.000  C
  C83      1.0000 0.56741  0.88488  0.38030  Biso   1.000  C
  H38      1.0000 0.57567  0.88423  0.34073  Biso   1.000  H
  C84      1.0000 0.55242  0.91339  0.39685  Biso   1.000  C
  H39      1.0000 0.55117  0.93203  0.36823  Biso   1.000  H
  C85      1.0000 0.58876  0.82903  0.40474  Biso   1.000  C
  C86      1.0000 0.62635  0.84696  0.37047  Biso   1.000  C
  H40      1.0000 0.63897  0.87623  0.35903  Biso   1.000  H
  C87      1.0000 0.45637  0.74163  0.47613  Biso   1.000  C
  C88      1.0000 0.47637  0.71993  0.36833  Biso   1.000  C
  O17      1.0000 0.19154  0.30454  0.76463  Biso   1.000  O
  O18      1.0000 0.17809  0.27739  0.85887  Biso   1.000  O
  C89      1.0000 0.19063  0.27899  0.80600  Biso   1.000  C
  C90      1.0000 0.20609  0.24760  0.78802  Biso   1.000  C
  C91      1.0000 0.20856  0.21982  0.83057  Biso   1.000  C
  H41      1.0000 0.20003  0.22017  0.87007  Biso   1.000  H
  C92      1.0000 0.22358  0.19171  0.81439  Biso   1.000  C
  H42      1.0000 0.22483  0.17317  0.84307  Biso   1.000  H
  C93      1.0000 0.23679  0.19072  0.75658  Biso   1.000  C
  C94      1.0000 0.23407  0.21822  0.71364  Biso   1.000  C
  H43      1.0000 0.24233  0.21757  0.67407  Biso   1.000  H
  C95      1.0000 0.21908  0.24673  0.73019  Biso   1.000  C
  H44      1.0000 0.21783  0.26537  0.70157  Biso   1.000  H
  C96      1.0000 0.25542  0.16237  0.73808  Biso   1.000  C
  C97      1.0000 0.29301  0.18030  0.70381  Biso   1.000  C
  H45      1.0000 0.30563  0.20957  0.69237  Biso   1.000  H
  C98      1.0000 0.12303  0.07497  0.80947  Biso   1.000  C
  C99      1.0000 0.14303  0.05327  0.70167  Biso   1.000  C
  O19      1.0000 0.22034  0.36213  0.90204  Biso   1.000  O
  O20      1.0000 0.23404  0.38928  0.80780  Biso   1.000  O
  C100     1.0000 0.24498  0.38768  0.86067  Biso   1.000  C
  C101     1.0000 0.29183  0.41907  0.87865  Biso   1.000  C
  C102     1.0000 0.32208  0.44685  0.83610  Biso   1.000  C
  H46      1.0000 0.31320  0.44650  0.79660  Biso   1.000  H
  C103     1.0000 0.36521  0.47496  0.85228  Biso   1.000  C
  H47      1.0000 0.38500  0.49350  0.82360  Biso   1.000  H
  C104     1.0000 0.37941  0.47595  0.91009  Biso   1.000  C
  C105     1.0000 0.34919  0.44845  0.95303  Biso   1.000  C
  H48      1.0000 0.35810  0.44910  0.99260  Biso   1.000  H
  C106     1.0000 0.30569  0.41994  0.93648  Biso   1.000  C
  H49      1.0000 0.28580  0.40130  0.96510  Biso   1.000  H
  C107     1.0000 0.42639  0.50430  0.92859  Biso   1.000  C
  C108     1.0000 0.44605  0.48637  0.96286  Biso   1.000  C
  H50      1.0000 0.42940  0.45710  0.97430  Biso   1.000  H
  C109     1.0000 0.38140  0.59170  0.85720  Biso   1.000  C
  C110     1.0000 0.42310  0.61340  0.96500  Biso   1.000  C
  O21      1.0000 0.88701  0.69546  0.23537  Biso   1.000  O
  O22      1.0000 0.90071  0.72261  0.14113  Biso   1.000  O
  C111     1.0000 0.91165  0.72101  0.19400  Biso   1.000  C
  C112     1.0000 0.95850  0.75240  0.21198  Biso   1.000  C
  C113     1.0000 0.98875  0.78018  0.16943  Biso   1.000  C
  H51      1.0000 0.97987  0.77983  0.12993  Biso   1.000  H
  C114     1.0000 0.03188  0.80829  0.18561  Biso   1.000  C
  H52      1.0000 0.05167  0.82683  0.15693  Biso   1.000  H
  C115     1.0000 0.04608  0.80928  0.24342  Biso   1.000  C
  C116     1.0000 0.01586  0.78178  0.28636  Biso   1.000  C
  H53      1.0000 0.02477  0.78243  0.32593  Biso   1.000  H
  C117     1.0000 0.97236  0.75327  0.26981  Biso   1.000  C
  H54      1.0000 0.95247  0.73463  0.29843  Biso   1.000  H
  C118     1.0000 0.09306  0.83763  0.26192  Biso   1.000  C
  C119     1.0000 0.11272  0.81970  0.29619  Biso   1.000  C
  H55      1.0000 0.09607  0.79043  0.30763  Biso   1.000  H
  C120     1.0000 0.04807  0.92503  0.19053  Biso   1.000  C
  C121     1.0000 0.08977  0.94673  0.29833  Biso   1.000  C
  O23      1.0000 0.55367  0.02880  0.56871  Biso   1.000  O
  O24      1.0000 0.56737  0.05595  0.47447  Biso   1.000  O
  C122     1.0000 0.57831  0.05435  0.52734  Biso   1.000  C
  C123     1.0000 0.62516  0.08574  0.54532  Biso   1.000  C
  C124     1.0000 0.65541  0.11352  0.50277  Biso   1.000  C
  H56      1.0000 0.64653  0.11317  0.46327  Biso   1.000  H
  C125     1.0000 0.69854  0.14163  0.51895  Biso   1.000  C
  H57      1.0000 0.71833  0.16017  0.49027  Biso   1.000  H
  C126     1.0000 0.71274  0.14262  0.57676  Biso   1.000  C
  C127     1.0000 0.68252  0.11512  0.61970  Biso   1.000  C
  H58      1.0000 0.69143  0.11577  0.65927  Biso   1.000  H
  C128     1.0000 0.63902  0.08661  0.60315  Biso   1.000  C
  H59      1.0000 0.61913  0.06797  0.63177  Biso   1.000  H
  C129     1.0000 0.75972  0.17097  0.59526  Biso   1.000  C
  C130     1.0000 0.77938  0.15304  0.62953  Biso   1.000  C
  H60      1.0000 0.76273  0.12377  0.64097  Biso   1.000  H
  C131     1.0000 0.71473  0.25837  0.52387  Biso   1.000  C
  C132     1.0000 0.75643  0.28007  0.63167  Biso   1.000  C
  O25      1.0000 0.14179  0.77966  0.90204  Biso   1.000  O
  O26      1.0000 0.15524  0.76596  0.80780  Biso   1.000  O
  C133     1.0000 0.14270  0.75502  0.86067  Biso   1.000  C
  C134     1.0000 0.12724  0.70817  0.87865  Biso   1.000  C
  C135     1.0000 0.12477  0.67792  0.83610  Biso   1.000  C
  H61      1.0000 0.13330  0.68680  0.79660  Biso   1.000  H
  C136     1.0000 0.10975  0.63479  0.85228  Biso   1.000  C
  H62      1.0000 0.10850  0.61500  0.82360  Biso   1.000  H
  C137     1.0000 0.09654  0.62059  0.91009  Biso   1.000  C
  C138     1.0000 0.09926  0.65081  0.95303  Biso   1.000  C
  H63      1.0000 0.09100  0.64190  0.99260  Biso   1.000  H
  C139     1.0000 0.11425  0.69431  0.93648  Biso   1.000  C
  H64      1.0000 0.11550  0.71420  0.96510  Biso   1.000  H
  C140     1.0000 0.07791  0.57361  0.92859  Biso   1.000  C
  C141     1.0000 0.04032  0.55395  0.96286  Biso   1.000  C
  H65      1.0000 0.02770  0.57060  0.97430  Biso   1.000  H
  C142     1.0000 0.21030  0.61860  0.85720  Biso   1.000  C
  C143     1.0000 0.19030  0.57690  0.96500  Biso   1.000  C
  O27      1.0000 0.80846  0.11299  0.23537  Biso   1.000  O
  O28      1.0000 0.82191  0.09929  0.14113  Biso   1.000  O
  C144     1.0000 0.80937  0.08835  0.19400  Biso   1.000  C
  C145     1.0000 0.79391  0.04150  0.21198  Biso   1.000  C
  C146     1.0000 0.79144  0.01125  0.16943  Biso   1.000  C
  H66      1.0000 0.79997  0.02013  0.12993  Biso   1.000  H
  C147     1.0000 0.77642  0.96812  0.18561  Biso   1.000  C
  H67      1.0000 0.77517  0.94833  0.15693  Biso   1.000  H
  C148     1.0000 0.76321  0.95392  0.24342  Biso   1.000  C
  C149     1.0000 0.76593  0.98414  0.28636  Biso   1.000  C
  H68      1.0000 0.75767  0.97523  0.32593  Biso   1.000  H
  C150     1.0000 0.78092  0.02764  0.26981  Biso   1.000  C
  H69      1.0000 0.78217  0.04753  0.29843  Biso   1.000  H
  C151     1.0000 0.74458  0.90694  0.26192  Biso   1.000  C
  C152     1.0000 0.70699  0.88728  0.29619  Biso   1.000  C
  H70      1.0000 0.69437  0.90393  0.30763  Biso   1.000  H
  C153     1.0000 0.87697  0.95193  0.19053  Biso   1.000  C
  C154     1.0000 0.85697  0.91023  0.29833  Biso   1.000  C
  O29      1.0000 0.47512  0.44633  0.56871  Biso   1.000  O
  O30      1.0000 0.48857  0.43263  0.47447  Biso   1.000  O
  C155     1.0000 0.47603  0.42169  0.52734  Biso   1.000  C
  C156     1.0000 0.46057  0.37484  0.54532  Biso   1.000  C
  C157     1.0000 0.45810  0.34459  0.50277  Biso   1.000  C
  H71      1.0000 0.46663  0.35347  0.46327  Biso   1.000  H
  C158     1.0000 0.44308  0.30146  0.51895  Biso   1.000  C
  H72      1.0000 0.44183  0.28167  0.49027  Biso   1.000  H
  C159     1.0000 0.42987  0.28726  0.57676  Biso   1.000  C
  C160     1.0000 0.43259  0.31748  0.61970  Biso   1.000  C
  H73      1.0000 0.42433  0.30857  0.65927  Biso   1.000  H
  C161     1.0000 0.44758  0.36098  0.60315  Biso   1.000  C
  H74      1.0000 0.44883  0.38087  0.63177  Biso   1.000  H
  C162     1.0000 0.41124  0.24028  0.59526  Biso   1.000  C
  C163     1.0000 0.37365  0.22062  0.62953  Biso   1.000  C
  H75      1.0000 0.36103  0.23727  0.64097  Biso   1.000  H
  C164     1.0000 0.54363  0.28527  0.52387  Biso   1.000  C
  C165     1.0000 0.52363  0.24357  0.63167  Biso   1.000  C
  O31      1.0000 0.63787  0.85821  0.90204  Biso   1.000  O
  O32      1.0000 0.61072  0.84476  0.80780  Biso   1.000  O
  C166     1.0000 0.61232  0.85730  0.86067  Biso   1.000  C
  C167     1.0000 0.58093  0.87276  0.87865  Biso   1.000  C
  C168     1.0000 0.55315  0.87523  0.83610  Biso   1.000  C
  H76      1.0000 0.55350  0.86670  0.79660  Biso   1.000  H
  C169     1.0000 0.52504  0.89025  0.85228  Biso   1.000  C
  H77      1.0000 0.50650  0.89150  0.82360  Biso   1.000  H
  C170     1.0000 0.52405  0.90346  0.91009  Biso   1.000  C
  C171     1.0000 0.55155  0.90074  0.95303  Biso   1.000  C
  H78      1.0000 0.55090  0.90900  0.99260  Biso   1.000  H
  C172     1.0000 0.58006  0.88575  0.93648  Biso   1.000  C
  H79      1.0000 0.59870  0.88450  0.96510  Biso   1.000  H
  C173     1.0000 0.49570  0.92209  0.92859  Biso   1.000  C
  C174     1.0000 0.51363  0.95968  0.96286  Biso   1.000  C
  H80      1.0000 0.54290  0.97230  0.97430  Biso   1.000  H
  C175     1.0000 0.40830  0.78970  0.85720  Biso   1.000  C
  C176     1.0000 0.38660  0.80970  0.96500  Biso   1.000  C
  O33      1.0000 0.30454  0.19154  0.23537  Biso   1.000  O
  O34      1.0000 0.27739  0.17809  0.14113  Biso   1.000  O
  C177     1.0000 0.27899  0.19063  0.19400  Biso   1.000  C
  C178     1.0000 0.24760  0.20609  0.21198  Biso   1.000  C
  C179     1.0000 0.21982  0.20856  0.16943  Biso   1.000  C
  H81      1.0000 0.22017  0.20003  0.12993  Biso   1.000  H
  C180     1.0000 0.19171  0.22358  0.18561  Biso   1.000  C
  H82      1.0000 0.17317  0.22483  0.15693  Biso   1.000  H
  C181     1.0000 0.19072  0.23679  0.24342  Biso   1.000  C
  C182     1.0000 0.21822  0.23407  0.28636  Biso   1.000  C
  H83      1.0000 0.21757  0.24233  0.32593  Biso   1.000  H
  C183     1.0000 0.24673  0.21908  0.26981  Biso   1.000  C
  H84      1.0000 0.26537  0.21783  0.29843  Biso   1.000  H
  C184     1.0000 0.16237  0.25542  0.26192  Biso   1.000  C
  C185     1.0000 0.18030  0.29301  0.29619  Biso   1.000  C
  H85      1.0000 0.20957  0.30563  0.30763  Biso   1.000  H
  C186     1.0000 0.07497  0.12303  0.19053  Biso   1.000  C
  C187     1.0000 0.05327  0.14303  0.29833  Biso   1.000  C
  O35      1.0000 0.97120  0.52488  0.56871  Biso   1.000  O
  O36      1.0000 0.94405  0.51143  0.47447  Biso   1.000  O
  C188     1.0000 0.94565  0.52397  0.52734  Biso   1.000  C
  C189     1.0000 0.91426  0.53943  0.54532  Biso   1.000  C
  C190     1.0000 0.88648  0.54190  0.50277  Biso   1.000  C
  H86      1.0000 0.88683  0.53337  0.46327  Biso   1.000  H
  C191     1.0000 0.85837  0.55692  0.51895  Biso   1.000  C
  H87      1.0000 0.83983  0.55817  0.49027  Biso   1.000  H
  C192     1.0000 0.85738  0.57013  0.57676  Biso   1.000  C
  C193     1.0000 0.88488  0.56741  0.61970  Biso   1.000  C
  H88      1.0000 0.88423  0.57567  0.65927  Biso   1.000  H
  C194     1.0000 0.91339  0.55242  0.60315  Biso   1.000  C
  H89      1.0000 0.93203  0.55117  0.63177  Biso   1.000  H
  C195     1.0000 0.82903  0.58876  0.59526  Biso   1.000  C
  C196     1.0000 0.84696  0.62635  0.62953  Biso   1.000  C
  H90      1.0000 0.87623  0.63897  0.64097  Biso   1.000  H
  C197     1.0000 0.74163  0.45637  0.52387  Biso   1.000  C
  C198     1.0000 0.71993  0.47637  0.63167  Biso   1.000  C
  O37      1.0000 0.63787  0.77966  0.90204  Biso   1.000  O
  O38      1.0000 0.61072  0.76596  0.80780  Biso   1.000  O
  C199     1.0000 0.61232  0.75502  0.86067  Biso   1.000  C
  C200     1.0000 0.58093  0.70817  0.87865  Biso   1.000  C
  C201     1.0000 0.55315  0.67792  0.83610  Biso   1.000  C
  H91      1.0000 0.55350  0.68680  0.79660  Biso   1.000  H
  C202     1.0000 0.52504  0.63479  0.85228  Biso   1.000  C
  H92      1.0000 0.50650  0.61500  0.82360  Biso   1.000  H
  C203     1.0000 0.52405  0.62059  0.91009  Biso   1.000  C
  C204     1.0000 0.55155  0.65081  0.95303  Biso   1.000  C
  H93      1.0000 0.55090  0.64190  0.99260  Biso   1.000  H
  C205     1.0000 0.58006  0.69431  0.93648  Biso   1.000  C
  H94      1.0000 0.59870  0.71420  0.96510  Biso   1.000  H
  C206     1.0000 0.49570  0.57361  0.92859  Biso   1.000  C
  C207     1.0000 0.51363  0.55395  0.96286  Biso   1.000  C
  H95      1.0000 0.54290  0.57060  0.97430  Biso   1.000  H
  C208     1.0000 0.40830  0.61860  0.85720  Biso   1.000  C
  C209     1.0000 0.38660  0.57690  0.96500  Biso   1.000  C
  O39      1.0000 0.30454  0.11299  0.23537  Biso   1.000  O
  O40      1.0000 0.27739  0.09929  0.14113  Biso   1.000  O
  C210     1.0000 0.27899  0.08835  0.19400  Biso   1.000  C
  C211     1.0000 0.24760  0.04150  0.21198  Biso   1.000  C
  C212     1.0000 0.21982  0.01125  0.16943  Biso   1.000  C
  H96      1.0000 0.22017  0.02013  0.12993  Biso   1.000  H
  C213     1.0000 0.19171  0.96812  0.18561  Biso   1.000  C
  H97      1.0000 0.17317  0.94833  0.15693  Biso   1.000  H
  C214     1.0000 0.19072  0.95392  0.24342  Biso   1.000  C
  C215     1.0000 0.21822  0.98414  0.28636  Biso   1.000  C
  H98      1.0000 0.21757  0.97523  0.32593  Biso   1.000  H
  C216     1.0000 0.24673  0.02764  0.26981  Biso   1.000  C
  H99      1.0000 0.26537  0.04753  0.29843  Biso   1.000  H
  C217     1.0000 0.16237  0.90694  0.26192  Biso   1.000  C
  C218     1.0000 0.18030  0.88728  0.29619  Biso   1.000  C
  H100     1.0000 0.20957  0.90393  0.30763  Biso   1.000  H
  C219     1.0000 0.07497  0.95193  0.19053  Biso   1.000  C
  C220     1.0000 0.05327  0.91023  0.29833  Biso   1.000  C
  O41      1.0000 0.97120  0.44633  0.56871  Biso   1.000  O
  O42      1.0000 0.94405  0.43263  0.47447  Biso   1.000  O
  C221     1.0000 0.94565  0.42169  0.52734  Biso   1.000  C
  C222     1.0000 0.91426  0.37484  0.54532  Biso   1.000  C
  C223     1.0000 0.88648  0.34459  0.50277  Biso   1.000  C
  H101     1.0000 0.88683  0.35347  0.46327  Biso   1.000  H
  C224     1.0000 0.85837  0.30146  0.51895  Biso   1.000  C
  H102     1.0000 0.83983  0.28167  0.49027  Biso   1.000  H
  C225     1.0000 0.85738  0.28726  0.57676  Biso   1.000  C
  C226     1.0000 0.88488  0.31748  0.61970  Biso   1.000  C
  H103     1.0000 0.88423  0.30857  0.65927  Biso   1.000  H
  C227     1.0000 0.91339  0.36098  0.60315  Biso   1.000  C
  H104     1.0000 0.93203  0.38087  0.63177  Biso   1.000  H
  C228     1.0000 0.82903  0.24028  0.59526  Biso   1.000  C
  C229     1.0000 0.84696  0.22062  0.62953  Biso   1.000  C
  H105     1.0000 0.87623  0.23727  0.64097  Biso   1.000  H
  C230     1.0000 0.74163  0.28527  0.52387  Biso   1.000  C
  C231     1.0000 0.71993  0.24357  0.63167  Biso   1.000  C
  O43      1.0000 0.22034  0.85821  0.90204  Biso   1.000  O
  O44      1.0000 0.23404  0.84476  0.80780  Biso   1.000  O
  C232     1.0000 0.24498  0.85730  0.86067  Biso   1.000  C
  C233     1.0000 0.29183  0.87276  0.87865  Biso   1.000  C
  C234     1.0000 0.32208  0.87523  0.83610  Biso   1.000  C
  H106     1.0000 0.31320  0.86670  0.79660  Biso   1.000  H
  C235     1.0000 0.36521  0.89025  0.85228  Biso   1.000  C
  H107     1.0000 0.38500  0.89150  0.82360  Biso   1.000  H
  C236     1.0000 0.37941  0.90346  0.91009  Biso   1.000  C
  C237     1.0000 0.34919  0.90074  0.95303  Biso   1.000  C
  H108     1.0000 0.35810  0.90900  0.99260  Biso   1.000  H
  C238     1.0000 0.30569  0.88575  0.93648  Biso   1.000  C
  H109     1.0000 0.28580  0.88450  0.96510  Biso   1.000  H
  C239     1.0000 0.42639  0.92209  0.92859  Biso   1.000  C
  C240     1.0000 0.44605  0.95968  0.96286  Biso   1.000  C
  H110     1.0000 0.42940  0.97230  0.97430  Biso   1.000  H
  C241     1.0000 0.38140  0.78970  0.85720  Biso   1.000  C
  C242     1.0000 0.42310  0.80970  0.96500  Biso   1.000  C
  O45      1.0000 0.88701  0.19154  0.23537  Biso   1.000  O
  O46      1.0000 0.90071  0.17809  0.14113  Biso   1.000  O
  C243     1.0000 0.91165  0.19063  0.19400  Biso   1.000  C
  C244     1.0000 0.95850  0.20609  0.21198  Biso   1.000  C
  C245     1.0000 0.98875  0.20856  0.16943  Biso   1.000  C
  H111     1.0000 0.97987  0.20003  0.12993  Biso   1.000  H
  C246     1.0000 0.03188  0.22358  0.18561  Biso   1.000  C
  H112     1.0000 0.05167  0.22483  0.15693  Biso   1.000  H
  C247     1.0000 0.04608  0.23679  0.24342  Biso   1.000  C
  C248     1.0000 0.01586  0.23407  0.28636  Biso   1.000  C
  H113     1.0000 0.02477  0.24233  0.32593  Biso   1.000  H
  C249     1.0000 0.97236  0.21908  0.26981  Biso   1.000  C
  H114     1.0000 0.95247  0.21783  0.29843  Biso   1.000  H
  C250     1.0000 0.09306  0.25542  0.26192  Biso   1.000  C
  C251     1.0000 0.11272  0.29301  0.29619  Biso   1.000  C
  H115     1.0000 0.09607  0.30563  0.30763  Biso   1.000  H
  C252     1.0000 0.04807  0.12303  0.19053  Biso   1.000  C
  C253     1.0000 0.08977  0.14303  0.29833  Biso   1.000  C
  O47      1.0000 0.55367  0.52488  0.56871  Biso   1.000  O
  O48      1.0000 0.56737  0.51143  0.47447  Biso   1.000  O
  C254     1.0000 0.57831  0.52397  0.52734  Biso   1.000  C
  C255     1.0000 0.62516  0.53943  0.54532  Biso   1.000  C
  C256     1.0000 0.65541  0.54190  0.50277  Biso   1.000  C
  H116     1.0000 0.64653  0.53337  0.46327  Biso   1.000  H
  C257     1.0000 0.69854  0.55692  0.51895  Biso   1.000  C
  H117     1.0000 0.71833  0.55817  0.49027  Biso   1.000  H
  C258     1.0000 0.71274  0.57013  0.57676  Biso   1.000  C
  C259     1.0000 0.68252  0.56741  0.61970  Biso   1.000  C
  H118     1.0000 0.69143  0.57567  0.65927  Biso   1.000  H
  C260     1.0000 0.63902  0.55242  0.60315  Biso   1.000  C
  H119     1.0000 0.61913  0.55117  0.63177  Biso   1.000  H
  C261     1.0000 0.75972  0.58876  0.59526  Biso   1.000  C
  C262     1.0000 0.77938  0.62635  0.62953  Biso   1.000  C
  H120     1.0000 0.76273  0.63897  0.64097  Biso   1.000  H
  C263     1.0000 0.71473  0.45637  0.52387  Biso   1.000  C
  C264     1.0000 0.75643  0.47637  0.63167  Biso   1.000  C
  O49      1.0000 0.14179  0.36213  0.90204  Biso   1.000  O
  O50      1.0000 0.15524  0.38928  0.80780  Biso   1.000  O
  C265     1.0000 0.14270  0.38768  0.86067  Biso   1.000  C
  C266     1.0000 0.12724  0.41907  0.87865  Biso   1.000  C
  C267     1.0000 0.12477  0.44685  0.83610  Biso   1.000  C
  H121     1.0000 0.13330  0.44650  0.79660  Biso   1.000  H
  C268     1.0000 0.10975  0.47496  0.85228  Biso   1.000  C
  H122     1.0000 0.10850  0.49350  0.82360  Biso   1.000  H
  C269     1.0000 0.09654  0.47595  0.91009  Biso   1.000  C
  C270     1.0000 0.09926  0.44845  0.95303  Biso   1.000  C
  H123     1.0000 0.09100  0.44910  0.99260  Biso   1.000  H
  C271     1.0000 0.11425  0.41994  0.93648  Biso   1.000  C
  H124     1.0000 0.11550  0.40130  0.96510  Biso   1.000  H
  C272     1.0000 0.07791  0.50430  0.92859  Biso   1.000  C
  C273     1.0000 0.04032  0.48637  0.96286  Biso   1.000  C
  H125     1.0000 0.02770  0.45710  0.97430  Biso   1.000  H
  C274     1.0000 0.21030  0.59170  0.85720  Biso   1.000  C
  C275     1.0000 0.19030  0.61340  0.96500  Biso   1.000  C
  O51      1.0000 0.80846  0.69546  0.23537  Biso   1.000  O
  O52      1.0000 0.82191  0.72261  0.14113  Biso   1.000  O
  C276     1.0000 0.80937  0.72101  0.19400  Biso   1.000  C
  C277     1.0000 0.79391  0.75240  0.21198  Biso   1.000  C
  C278     1.0000 0.79144  0.78018  0.16943  Biso   1.000  C
  H126     1.0000 0.79997  0.77983  0.12993  Biso   1.000  H
  C279     1.0000 0.77642  0.80829  0.18561  Biso   1.000  C
  H127     1.0000 0.77517  0.82683  0.15693  Biso   1.000  H
  C280     1.0000 0.76321  0.80928  0.24342  Biso   1.000  C
  C281     1.0000 0.76593  0.78178  0.28636  Biso   1.000  C
  H128     1.0000 0.75767  0.78243  0.32593  Biso   1.000  H
  C282     1.0000 0.78092  0.75327  0.26981  Biso   1.000  C
  H129     1.0000 0.78217  0.73463  0.29843  Biso   1.000  H
  C283     1.0000 0.74458  0.83763  0.26192  Biso   1.000  C
  C284     1.0000 0.70699  0.81970  0.29619  Biso   1.000  C
  H130     1.0000 0.69437  0.79043  0.30763  Biso   1.000  H
  C285     1.0000 0.87697  0.92503  0.19053  Biso   1.000  C
  C286     1.0000 0.85697  0.94673  0.29833  Biso   1.000  C
  O53      1.0000 0.47512  0.02880  0.56871  Biso   1.000  O
  O54      1.0000 0.48857  0.05595  0.47447  Biso   1.000  O
  C287     1.0000 0.47603  0.05435  0.52734  Biso   1.000  C
  C288     1.0000 0.46057  0.08574  0.54532  Biso   1.000  C
  C289     1.0000 0.45810  0.11352  0.50277  Biso   1.000  C
  H131     1.0000 0.46663  0.11317  0.46327  Biso   1.000  H
  C290     1.0000 0.44308  0.14163  0.51895  Biso   1.000  C
  H132     1.0000 0.44183  0.16017  0.49027  Biso   1.000  H
  C291     1.0000 0.42987  0.14262  0.57676  Biso   1.000  C
  C292     1.0000 0.43259  0.11512  0.61970  Biso   1.000  C
  H133     1.0000 0.42433  0.11577  0.65927  Biso   1.000  H
  C293     1.0000 0.44758  0.08661  0.60315  Biso   1.000  C
  H134     1.0000 0.44883  0.06797  0.63177  Biso   1.000  H
  C294     1.0000 0.41124  0.17097  0.59526  Biso   1.000  C
  C295     1.0000 0.37365  0.15304  0.62953  Biso   1.000  C
  H135     1.0000 0.36103  0.12377  0.64097  Biso   1.000  H
  C296     1.0000 0.54363  0.25837  0.52387  Biso   1.000  C
  C297     1.0000 0.52363  0.28007  0.63167  Biso   1.000  C
  O55      1.0000 0.77966  0.63787  0.09796  Biso   1.000  O
  O56      1.0000 0.76596  0.61072  0.19220  Biso   1.000  O
  C298     1.0000 0.75502  0.61232  0.13933  Biso   1.000  C
  C299     1.0000 0.70817  0.58093  0.12135  Biso   1.000  C
  C300     1.0000 0.67792  0.55315  0.16390  Biso   1.000  C
  H136     1.0000 0.68680  0.55350  0.20340  Biso   1.000  H
  C301     1.0000 0.63479  0.52504  0.14772  Biso   1.000  C
  H137     1.0000 0.61500  0.50650  0.17640  Biso   1.000  H
  C302     1.0000 0.62059  0.52405  0.08991  Biso   1.000  C
  C303     1.0000 0.65081  0.55155  0.04697  Biso   1.000  C
  H138     1.0000 0.64190  0.55090  0.00740  Biso   1.000  H
  C304     1.0000 0.69431  0.58006  0.06352  Biso   1.000  C
  H139     1.0000 0.71420  0.59870  0.03490  Biso   1.000  H
  C305     1.0000 0.57361  0.49570  0.07141  Biso   1.000  C
  C306     1.0000 0.55395  0.51363  0.03714  Biso   1.000  C
  H140     1.0000 0.57060  0.54290  0.02570  Biso   1.000  H
  C307     1.0000 0.61860  0.40830  0.14280  Biso   1.000  C
  C308     1.0000 0.57690  0.38660  0.03500  Biso   1.000  C
  O57      1.0000 0.44633  0.97120  0.43129  Biso   1.000  O
  O58      1.0000 0.43263  0.94405  0.52553  Biso   1.000  O
  C309     1.0000 0.42169  0.94565  0.47266  Biso   1.000  C
  C310     1.0000 0.37484  0.91426  0.45468  Biso   1.000  C
  C311     1.0000 0.34459  0.88648  0.49723  Biso   1.000  C
  H141     1.0000 0.35347  0.88683  0.53673  Biso   1.000  H
  C312     1.0000 0.30146  0.85837  0.48105  Biso   1.000  C
  H142     1.0000 0.28167  0.83983  0.50973  Biso   1.000  H
  C313     1.0000 0.28726  0.85738  0.42324  Biso   1.000  C
  C314     1.0000 0.31748  0.88488  0.38030  Biso   1.000  C
  H143     1.0000 0.30857  0.88423  0.34073  Biso   1.000  H
  C315     1.0000 0.36098  0.91339  0.39685  Biso   1.000  C
  H144     1.0000 0.38087  0.93203  0.36823  Biso   1.000  H
  C316     1.0000 0.24028  0.82903  0.40474  Biso   1.000  C
  C317     1.0000 0.22062  0.84696  0.37047  Biso   1.000  C
  H145     1.0000 0.23727  0.87623  0.35903  Biso   1.000  H
  C318     1.0000 0.28527  0.74163  0.47613  Biso   1.000  C
  C319     1.0000 0.24357  0.71993  0.36833  Biso   1.000  C
  O59      1.0000 0.11299  0.30454  0.76463  Biso   1.000  O
  O60      1.0000 0.09929  0.27739  0.85887  Biso   1.000  O
  C320     1.0000 0.08835  0.27899  0.80600  Biso   1.000  C
  C321     1.0000 0.04150  0.24760  0.78802  Biso   1.000  C
  C322     1.0000 0.01125  0.21982  0.83057  Biso   1.000  C
  H146     1.0000 0.02013  0.22017  0.87007  Biso   1.000  H
  C323     1.0000 0.96812  0.19171  0.81439  Biso   1.000  C
  H147     1.0000 0.94833  0.17317  0.84307  Biso   1.000  H
  C324     1.0000 0.95392  0.19072  0.75658  Biso   1.000  C
  C325     1.0000 0.98414  0.21822  0.71364  Biso   1.000  C
  H148     1.0000 0.97523  0.21757  0.67407  Biso   1.000  H
  C326     1.0000 0.02764  0.24673  0.73019  Biso   1.000  C
  H149     1.0000 0.04753  0.26537  0.70157  Biso   1.000  H
  C327     1.0000 0.90694  0.16237  0.73808  Biso   1.000  C
  C328     1.0000 0.88728  0.18030  0.70381  Biso   1.000  C
  H150     1.0000 0.90393  0.20957  0.69237  Biso   1.000  H
  C329     1.0000 0.95193  0.07497  0.80947  Biso   1.000  C
  C330     1.0000 0.91023  0.05327  0.70167  Biso   1.000  C
  O61      1.0000 0.85821  0.22034  0.09796  Biso   1.000  O
  O62      1.0000 0.84476  0.23404  0.19220  Biso   1.000  O
  C331     1.0000 0.85730  0.24498  0.13933  Biso   1.000  C
  C332     1.0000 0.87276  0.29183  0.12135  Biso   1.000  C
  C333     1.0000 0.87523  0.32208  0.16390  Biso   1.000  C
  H151     1.0000 0.86670  0.31320  0.20340  Biso   1.000  H
  C334     1.0000 0.89025  0.36521  0.14772  Biso   1.000  C
  H152     1.0000 0.89150  0.38500  0.17640  Biso   1.000  H
  C335     1.0000 0.90346  0.37941  0.08991  Biso   1.000  C
  C336     1.0000 0.90074  0.34919  0.04697  Biso   1.000  C
  H153     1.0000 0.90900  0.35810  0.00740  Biso   1.000  H
  C337     1.0000 0.88575  0.30569  0.06352  Biso   1.000  C
  H154     1.0000 0.88450  0.28580  0.03490  Biso   1.000  H
  C338     1.0000 0.92209  0.42639  0.07141  Biso   1.000  C
  C339     1.0000 0.95968  0.44605  0.03714  Biso   1.000  C
  H155     1.0000 0.97230  0.42940  0.02570  Biso   1.000  H
  C340     1.0000 0.78970  0.38140  0.14280  Biso   1.000  C
  C341     1.0000 0.80970  0.42310  0.03500  Biso   1.000  C
  O63      1.0000 0.52488  0.55367  0.43129  Biso   1.000  O
  O64      1.0000 0.51143  0.56737  0.52553  Biso   1.000  O
  C342     1.0000 0.52397  0.57831  0.47266  Biso   1.000  C
  C343     1.0000 0.53943  0.62516  0.45468  Biso   1.000  C
  C344     1.0000 0.54190  0.65541  0.49723  Biso   1.000  C
  H156     1.0000 0.53337  0.64653  0.53673  Biso   1.000  H
  C345     1.0000 0.55692  0.69854  0.48105  Biso   1.000  C
  H157     1.0000 0.55817  0.71833  0.50973  Biso   1.000  H
  C346     1.0000 0.57013  0.71274  0.42324  Biso   1.000  C
  C347     1.0000 0.56741  0.68252  0.38030  Biso   1.000  C
  H158     1.0000 0.57567  0.69143  0.34073  Biso   1.000  H
  C348     1.0000 0.55242  0.63902  0.39685  Biso   1.000  C
  H159     1.0000 0.55117  0.61913  0.36823  Biso   1.000  H
  C349     1.0000 0.58876  0.75972  0.40474  Biso   1.000  C
  C350     1.0000 0.62635  0.77938  0.37047  Biso   1.000  C
  H160     1.0000 0.63897  0.76273  0.35903  Biso   1.000  H
  C351     1.0000 0.45637  0.71473  0.47613  Biso   1.000  C
  C352     1.0000 0.47637  0.75643  0.36833  Biso   1.000  C
  O65      1.0000 0.19154  0.88701  0.76463  Biso   1.000  O
  O66      1.0000 0.17809  0.90071  0.85887  Biso   1.000  O
  C353     1.0000 0.19063  0.91165  0.80600  Biso   1.000  C
  C354     1.0000 0.20609  0.95850  0.78802  Biso   1.000  C
  C355     1.0000 0.20856  0.98875  0.83057  Biso   1.000  C
  H161     1.0000 0.20003  0.97987  0.87007  Biso   1.000  H
  C356     1.0000 0.22358  0.03188  0.81439  Biso   1.000  C
  H162     1.0000 0.22483  0.05167  0.84307  Biso   1.000  H
  C357     1.0000 0.23679  0.04608  0.75658  Biso   1.000  C
  C358     1.0000 0.23407  0.01586  0.71364  Biso   1.000  C
  H163     1.0000 0.24233  0.02477  0.67407  Biso   1.000  H
  C359     1.0000 0.21908  0.97236  0.73019  Biso   1.000  C
  H164     1.0000 0.21783  0.95247  0.70157  Biso   1.000  H
  C360     1.0000 0.25542  0.09306  0.73808  Biso   1.000  C
  C361     1.0000 0.29301  0.11272  0.70381  Biso   1.000  C
  H165     1.0000 0.30563  0.09607  0.69237  Biso   1.000  H
  C362     1.0000 0.12303  0.04807  0.80947  Biso   1.000  C
  C363     1.0000 0.14303  0.08977  0.70167  Biso   1.000  C
  O67      1.0000 0.36213  0.14179  0.09796  Biso   1.000  O
  O68      1.0000 0.38928  0.15524  0.19220  Biso   1.000  O
  C364     1.0000 0.38768  0.14270  0.13933  Biso   1.000  C
  C365     1.0000 0.41907  0.12724  0.12135  Biso   1.000  C
  C366     1.0000 0.44685  0.12477  0.16390  Biso   1.000  C
  H166     1.0000 0.44650  0.13330  0.20340  Biso   1.000  H
  C367     1.0000 0.47496  0.10975  0.14772  Biso   1.000  C
  H167     1.0000 0.49350  0.10850  0.17640  Biso   1.000  H
  C368     1.0000 0.47595  0.09654  0.08991  Biso   1.000  C
  C369     1.0000 0.44845  0.09926  0.04697  Biso   1.000  C
  H168     1.0000 0.44910  0.09100  0.00740  Biso   1.000  H
  C370     1.0000 0.41994  0.11425  0.06352  Biso   1.000  C
  H169     1.0000 0.40130  0.11550  0.03490  Biso   1.000  H
  C371     1.0000 0.50430  0.07791  0.07141  Biso   1.000  C
  C372     1.0000 0.48637  0.04032  0.03714  Biso   1.000  C
  H170     1.0000 0.45710  0.02770  0.02570  Biso   1.000  H
  C373     1.0000 0.59170  0.21030  0.14280  Biso   1.000  C
  C374     1.0000 0.61340  0.19030  0.03500  Biso   1.000  C
  O69      1.0000 0.02880  0.47512  0.43129  Biso   1.000  O
  O70      1.0000 0.05595  0.48857  0.52553  Biso   1.000  O
  C375     1.0000 0.05435  0.47603  0.47266  Biso   1.000  C
  C376     1.0000 0.08574  0.46057  0.45468  Biso   1.000  C
  C377     1.0000 0.11352  0.45810  0.49723  Biso   1.000  C
  H171     1.0000 0.11317  0.46663  0.53673  Biso   1.000  H
  C378     1.0000 0.14163  0.44308  0.48105  Biso   1.000  C
  H172     1.0000 0.16017  0.44183  0.50973  Biso   1.000  H
  C379     1.0000 0.14262  0.42987  0.42324  Biso   1.000  C
  C380     1.0000 0.11512  0.43259  0.38030  Biso   1.000  C
  H173     1.0000 0.11577  0.42433  0.34073  Biso   1.000  H
  C381     1.0000 0.08661  0.44758  0.39685  Biso   1.000  C
  H174     1.0000 0.06797  0.44883  0.36823  Biso   1.000  H
  C382     1.0000 0.17097  0.41124  0.40474  Biso   1.000  C
  C383     1.0000 0.15304  0.37365  0.37047  Biso   1.000  C
  H175     1.0000 0.12377  0.36103  0.35903  Biso   1.000  H
  C384     1.0000 0.25837  0.54363  0.47613  Biso   1.000  C
  C385     1.0000 0.28007  0.52363  0.36833  Biso   1.000  C
  O71      1.0000 0.69546  0.80846  0.76463  Biso   1.000  O
  O72      1.0000 0.72261  0.82191  0.85887  Biso   1.000  O
  C386     1.0000 0.72101  0.80937  0.80600  Biso   1.000  C
  C387     1.0000 0.75240  0.79391  0.78802  Biso   1.000  C
  C388     1.0000 0.78018  0.79144  0.83057  Biso   1.000  C
  H176     1.0000 0.77983  0.79997  0.87007  Biso   1.000  H
  C389     1.0000 0.80829  0.77642  0.81439  Biso   1.000  C
  H177     1.0000 0.82683  0.77517  0.84307  Biso   1.000  H
  C390     1.0000 0.80928  0.76321  0.75658  Biso   1.000  C
  C391     1.0000 0.78178  0.76593  0.71364  Biso   1.000  C
  H178     1.0000 0.78243  0.75767  0.67407  Biso   1.000  H
  C392     1.0000 0.75327  0.78092  0.73019  Biso   1.000  C
  H179     1.0000 0.73463  0.78217  0.70157  Biso   1.000  H
  C393     1.0000 0.83763  0.74458  0.73808  Biso   1.000  C
  C394     1.0000 0.81970  0.70699  0.70381  Biso   1.000  C
  H180     1.0000 0.79043  0.69437  0.69237  Biso   1.000  H
  C395     1.0000 0.92503  0.87697  0.80947  Biso   1.000  C
  C396     1.0000 0.94673  0.85697  0.70167  Biso   1.000  C
  Cu1      1.0000 0.31757  0.15878  0.11130  Biso   1.000  Cu
  Cu2      1.0000 0.98424  0.49212  0.44463  Biso   1.000  Cu
  Cu3      1.0000 0.65090  0.82545  0.77797  Biso   1.000  Cu
  Cu4      1.0000 0.84122  0.15878  0.11130  Biso   1.000  Cu
  Cu5      1.0000 0.50788  0.49212  0.44463  Biso   1.000  Cu
  Cu6      1.0000 0.17455  0.82545  0.77797  Biso   1.000  Cu
  Cu7      1.0000 0.84122  0.68243  0.11130  Biso   1.000  Cu
  Cu8      1.0000 0.50788  0.01576  0.44463  Biso   1.000  Cu
  Cu9      1.0000 0.17455  0.34910  0.77797  Biso   1.000  Cu
  Cu10     1.0000 0.15878  0.31757  0.88870  Biso   1.000  Cu
  Cu11     1.0000 0.82545  0.65090  0.22203  Biso   1.000  Cu
  Cu12     1.0000 0.49212  0.98424  0.55537  Biso   1.000  Cu
  Cu13     1.0000 0.15878  0.84122  0.88870  Biso   1.000  Cu
  Cu14     1.0000 0.82545  0.17455  0.22203  Biso   1.000  Cu
  Cu15     1.0000 0.49212  0.50788  0.55537  Biso   1.000  Cu
  Cu16     1.0000 0.68243  0.84122  0.88870  Biso   1.000  Cu
  Cu17     1.0000 0.34910  0.17455  0.22203  Biso   1.000  Cu
  Cu18     1.0000 0.01576  0.50788  0.55537  Biso   1.000  Cu
  O73      1.0000 0.56732  0.43268  0.12372  Biso   1.000  O
  C397     1.0000 0.51019  0.48981  0.01881  Biso   1.000  C
  C398     1.0000 0.54859  0.45141  0.08900  Biso   1.000  C
  C399     1.0000 0.58854  0.41146  0.09090  Biso   1.000  C
  O74      1.0000 0.23399  0.76601  0.45705  Biso   1.000  O
  C400     1.0000 0.17686  0.82314  0.35214  Biso   1.000  C
  C401     1.0000 0.21526  0.78474  0.42233  Biso   1.000  C
  C402     1.0000 0.25521  0.74479  0.42423  Biso   1.000  C
  O75      1.0000 0.90065  0.09935  0.79039  Biso   1.000  O
  C403     1.0000 0.84352  0.15648  0.68548  Biso   1.000  C
  C404     1.0000 0.88192  0.11808  0.75567  Biso   1.000  C
  C405     1.0000 0.92187  0.07813  0.75757  Biso   1.000  C
  O76      1.0000 0.56732  0.13464  0.12372  Biso   1.000  O
  C406     1.0000 0.51019  0.02038  0.01881  Biso   1.000  C
  C407     1.0000 0.54859  0.09718  0.08900  Biso   1.000  C
  C408     1.0000 0.58854  0.17708  0.09090  Biso   1.000  C
  O77      1.0000 0.23399  0.46797  0.45705  Biso   1.000  O
  C409     1.0000 0.17686  0.35371  0.35214  Biso   1.000  C
  C410     1.0000 0.21526  0.43051  0.42233  Biso   1.000  C
  C411     1.0000 0.25521  0.51041  0.42423  Biso   1.000  C
  O78      1.0000 0.90065  0.80131  0.79039  Biso   1.000  O
  C412     1.0000 0.84352  0.68705  0.68548  Biso   1.000  C
  C413     1.0000 0.88192  0.76385  0.75567  Biso   1.000  C
  C414     1.0000 0.92187  0.84375  0.75757  Biso   1.000  C
  O79      1.0000 0.86536  0.43268  0.12372  Biso   1.000  O
  C415     1.0000 0.97962  0.48981  0.01881  Biso   1.000  C
  C416     1.0000 0.90282  0.45141  0.08900  Biso   1.000  C
  C417     1.0000 0.82292  0.41146  0.09090  Biso   1.000  C
  O80      1.0000 0.53203  0.76601  0.45705  Biso   1.000  O
  C418     1.0000 0.64629  0.82314  0.35214  Biso   1.000  C
  C419     1.0000 0.56949  0.78474  0.42233  Biso   1.000  C
  C420     1.0000 0.48959  0.74479  0.42423  Biso   1.000  C
  O81      1.0000 0.19869  0.09935  0.79039  Biso   1.000  O
  C421     1.0000 0.31295  0.15648  0.68548  Biso   1.000  C
  C422     1.0000 0.23615  0.11808  0.75567  Biso   1.000  C
  C423     1.0000 0.15625  0.07813  0.75757  Biso   1.000  C
  O82      1.0000 0.43268  0.56732  0.87628  Biso   1.000  O
  C424     1.0000 0.48981  0.51019  0.98119  Biso   1.000  C
  C425     1.0000 0.45141  0.54859  0.91100  Biso   1.000  C
  C426     1.0000 0.41146  0.58854  0.90910  Biso   1.000  C
  O83      1.0000 0.09935  0.90065  0.20961  Biso   1.000  O
  C427     1.0000 0.15648  0.84352  0.31452  Biso   1.000  C
  C428     1.0000 0.11808  0.88192  0.24433  Biso   1.000  C
  C429     1.0000 0.07813  0.92187  0.24243  Biso   1.000  C
  O84      1.0000 0.76601  0.23399  0.54295  Biso   1.000  O
  C430     1.0000 0.82314  0.17686  0.64786  Biso   1.000  C
  C431     1.0000 0.78474  0.21526  0.57767  Biso   1.000  C
  C432     1.0000 0.74479  0.25521  0.57577  Biso   1.000  C
  O85      1.0000 0.13464  0.56732  0.87628  Biso   1.000  O
  C433     1.0000 0.02038  0.51019  0.98119  Biso   1.000  C
  C434     1.0000 0.09718  0.54859  0.91100  Biso   1.000  C
  C435     1.0000 0.17708  0.58854  0.90910  Biso   1.000  C
  O86      1.0000 0.80131  0.90065  0.20961  Biso   1.000  O
  C436     1.0000 0.68705  0.84352  0.31452  Biso   1.000  C
  C437     1.0000 0.76385  0.88192  0.24433  Biso   1.000  C
  C438     1.0000 0.84375  0.92187  0.24243  Biso   1.000  C
  O87      1.0000 0.46797  0.23399  0.54295  Biso   1.000  O
  C439     1.0000 0.35371  0.17686  0.64786  Biso   1.000  C
  C440     1.0000 0.43051  0.21526  0.57767  Biso   1.000  C
  C441     1.0000 0.51041  0.25521  0.57577  Biso   1.000  C
  O88      1.0000 0.43268  0.86536  0.87628  Biso   1.000  O
  C442     1.0000 0.48981  0.97962  0.98119  Biso   1.000  C
  C443     1.0000 0.45141  0.90282  0.91100  Biso   1.000  C
  C444     1.0000 0.41146  0.82292  0.90910  Biso   1.000  C
  O89      1.0000 0.09935  0.19869  0.20961  Biso   1.000  O
  C445     1.0000 0.15648  0.31295  0.31452  Biso   1.000  C
  C446     1.0000 0.11808  0.23615  0.24433  Biso   1.000  C
  C447     1.0000 0.07813  0.15625  0.24243  Biso   1.000  C
  O90      1.0000 0.76601  0.53203  0.54295  Biso   1.000  O
  C448     1.0000 0.82314  0.64629  0.64786  Biso   1.000  C
  C449     1.0000 0.78474  0.56949  0.57767  Biso   1.000  C
  C450     1.0000 0.74479  0.48959  0.57577  Biso   1.000  C
