data_image0
_cell_length_a       35.6971
_cell_length_b       35.6971
_cell_length_c       17.3243
_cell_angle_alpha    90
_cell_angle_beta     90
_cell_angle_gamma    120

_symmetry_space_group_name_H-M    "P 1"
_symmetry_int_tables_number       1

loop_
  _symmetry_equiv_pos_as_xyz
  'x, y, z'

loop_
  _atom_site_label
  _atom_site_occupancy
  _atom_site_fract_x
  _atom_site_fract_y
  _atom_site_fract_z
  _atom_site_thermal_displace_type
  _atom_site_B_iso_or_equiv
  _atom_site_type_symbol
  O1       1.0000 0.44495  0.47807  0.41832  Biso   1.000  O
  O2       1.0000 0.43448  0.48820  0.54387  Biso   1.000  O
  C1       1.0000 0.42222  0.47830  0.47650  Biso   1.000  C
  C2       1.0000 0.37575  0.46450  0.45570  Biso   1.000  C
  C3       1.0000 0.34836  0.46323  0.51300  Biso   1.000  C
  H1       1.0000 0.35830  0.47110  0.56320  Biso   1.000  H
  C4       1.0000 0.30516  0.44987  0.49440  Biso   1.000  C
  H2       1.0000 0.28730  0.45100  0.53220  Biso   1.000  H
  C5       1.0000 0.28915  0.43564  0.42450  Biso   1.000  C
  C6       1.0000 0.31680  0.43721  0.36660  Biso   1.000  C
  H3       1.0000 0.30630  0.42850  0.31690  Biso   1.000  H
  C7       1.0000 0.36049  0.45189  0.38270  Biso   1.000  C
  H4       1.0000 0.37890  0.45300  0.34370  Biso   1.000  H
  C8       1.0000 0.24209  0.41606  0.40480  Biso   1.000  C
  C9       1.0000 0.22151  0.37646  0.37160  Biso   1.000  C
  H5       1.0000 0.23740  0.36290  0.36120  Biso   1.000  H
  C10      1.0000 0.26280  0.55470  0.44880  Biso   1.000  C
  C11      1.0000 0.27520  0.51390  0.33040  Biso   1.000  C
  O3       1.0000 0.11162  0.81140  0.75165  Biso   1.000  O
  O4       1.0000 0.10115  0.82153  0.87720  Biso   1.000  O
  C12      1.0000 0.08889  0.81163  0.80983  Biso   1.000  C
  C13      1.0000 0.04242  0.79783  0.78903  Biso   1.000  C
  C14      1.0000 0.01503  0.79656  0.84633  Biso   1.000  C
  H6       1.0000 0.02497  0.80443  0.89653  Biso   1.000  H
  C15      1.0000 0.97183  0.78320  0.82773  Biso   1.000  C
  H7       1.0000 0.95397  0.78433  0.86553  Biso   1.000  H
  C16      1.0000 0.95582  0.76897  0.75783  Biso   1.000  C
  C17      1.0000 0.98347  0.77054  0.69993  Biso   1.000  C
  H8       1.0000 0.97297  0.76183  0.65023  Biso   1.000  H
  C18      1.0000 0.02716  0.78522  0.71603  Biso   1.000  C
  H9       1.0000 0.04557  0.78633  0.67703  Biso   1.000  H
  C19      1.0000 0.90876  0.74939  0.73813  Biso   1.000  C
  C20      1.0000 0.88818  0.70979  0.70493  Biso   1.000  C
  H10      1.0000 0.90407  0.69623  0.69453  Biso   1.000  H
  C21      1.0000 0.92947  0.88803  0.78213  Biso   1.000  C
  C22      1.0000 0.94187  0.84723  0.66373  Biso   1.000  C
  O5       1.0000 0.77828  0.14474  0.08499  Biso   1.000  O
  O6       1.0000 0.76781  0.15487  0.21054  Biso   1.000  O
  C23      1.0000 0.75555  0.14497  0.14317  Biso   1.000  C
  C24      1.0000 0.70908  0.13117  0.12237  Biso   1.000  C
  C25      1.0000 0.68169  0.12990  0.17967  Biso   1.000  C
  H11      1.0000 0.69163  0.13777  0.22987  Biso   1.000  H
  C26      1.0000 0.63849  0.11654  0.16107  Biso   1.000  C
  H12      1.0000 0.62063  0.11767  0.19887  Biso   1.000  H
  C27      1.0000 0.62248  0.10231  0.09117  Biso   1.000  C
  C28      1.0000 0.65013  0.10388  0.03327  Biso   1.000  C
  H13      1.0000 0.63963  0.09517  0.98357  Biso   1.000  H
  C29      1.0000 0.69382  0.11856  0.04937  Biso   1.000  C
  H14      1.0000 0.71223  0.11967  0.01037  Biso   1.000  H
  C30      1.0000 0.57542  0.08273  0.07147  Biso   1.000  C
  C31      1.0000 0.55484  0.04313  0.03827  Biso   1.000  C
  H15      1.0000 0.57073  0.02957  0.02787  Biso   1.000  H
  C32      1.0000 0.59613  0.22137  0.11547  Biso   1.000  C
  C33      1.0000 0.60853  0.18057  0.99707  Biso   1.000  C
  O7       1.0000 0.52193  0.96688  0.41832  Biso   1.000  O
  O8       1.0000 0.51180  0.94628  0.54387  Biso   1.000  O
  C34      1.0000 0.52170  0.94392  0.47650  Biso   1.000  C
  C35      1.0000 0.53550  0.91125  0.45570  Biso   1.000  C
  C36      1.0000 0.53677  0.88513  0.51300  Biso   1.000  C
  H16      1.0000 0.52890  0.88720  0.56320  Biso   1.000  H
  C37      1.0000 0.55013  0.85529  0.49440  Biso   1.000  C
  H17      1.0000 0.54900  0.83630  0.53220  Biso   1.000  H
  C38      1.0000 0.56436  0.85351  0.42450  Biso   1.000  C
  C39      1.0000 0.56279  0.87959  0.36660  Biso   1.000  C
  H18      1.0000 0.57150  0.87780  0.31690  Biso   1.000  H
  C40      1.0000 0.54811  0.90860  0.38270  Biso   1.000  C
  H19      1.0000 0.54700  0.92590  0.34370  Biso   1.000  H
  C41      1.0000 0.58394  0.82603  0.40480  Biso   1.000  C
  C42      1.0000 0.62354  0.84505  0.37160  Biso   1.000  C
  H20      1.0000 0.63710  0.87450  0.36120  Biso   1.000  H
  C43      1.0000 0.44530  0.70810  0.44880  Biso   1.000  C
  C44      1.0000 0.48610  0.76130  0.33040  Biso   1.000  C
  O9       1.0000 0.18860  0.30021  0.75165  Biso   1.000  O
  O10      1.0000 0.17847  0.27961  0.87720  Biso   1.000  O
  C45      1.0000 0.18837  0.27725  0.80983  Biso   1.000  C
  C46      1.0000 0.20217  0.24458  0.78903  Biso   1.000  C
  C47      1.0000 0.20344  0.21846  0.84633  Biso   1.000  C
  H21      1.0000 0.19557  0.22053  0.89653  Biso   1.000  H
  C48      1.0000 0.21680  0.18862  0.82773  Biso   1.000  C
  H22      1.0000 0.21567  0.16963  0.86553  Biso   1.000  H
  C49      1.0000 0.23103  0.18684  0.75783  Biso   1.000  C
  C50      1.0000 0.22946  0.21292  0.69993  Biso   1.000  C
  H23      1.0000 0.23817  0.21113  0.65023  Biso   1.000  H
  C51      1.0000 0.21478  0.24193  0.71603  Biso   1.000  C
  H24      1.0000 0.21367  0.25923  0.67703  Biso   1.000  H
  C52      1.0000 0.25061  0.15936  0.73813  Biso   1.000  C
  C53      1.0000 0.29021  0.17838  0.70493  Biso   1.000  C
  H25      1.0000 0.30377  0.20783  0.69453  Biso   1.000  H
  C54      1.0000 0.11197  0.04143  0.78213  Biso   1.000  C
  C55      1.0000 0.15277  0.09463  0.66373  Biso   1.000  C
  O11      1.0000 0.85526  0.63355  0.08499  Biso   1.000  O
  O12      1.0000 0.84513  0.61295  0.21054  Biso   1.000  O
  C56      1.0000 0.85503  0.61059  0.14317  Biso   1.000  C
  C57      1.0000 0.86883  0.57792  0.12237  Biso   1.000  C
  C58      1.0000 0.87010  0.55180  0.17967  Biso   1.000  C
  H26      1.0000 0.86223  0.55387  0.22987  Biso   1.000  H
  C59      1.0000 0.88346  0.52196  0.16107  Biso   1.000  C
  H27      1.0000 0.88233  0.50297  0.19887  Biso   1.000  H
  C60      1.0000 0.89769  0.52018  0.09117  Biso   1.000  C
  C61      1.0000 0.89612  0.54626  0.03327  Biso   1.000  C
  H28      1.0000 0.90483  0.54447  0.98357  Biso   1.000  H
  C62      1.0000 0.88144  0.57527  0.04937  Biso   1.000  C
  H29      1.0000 0.88033  0.59257  0.01037  Biso   1.000  H
  C63      1.0000 0.91727  0.49270  0.07147  Biso   1.000  C
  C64      1.0000 0.95687  0.51172  0.03827  Biso   1.000  C
  H30      1.0000 0.97043  0.54117  0.02787  Biso   1.000  H
  C65      1.0000 0.77863  0.37477  0.11547  Biso   1.000  C
  C66      1.0000 0.81943  0.42797  0.99707  Biso   1.000  C
  O13      1.0000 0.03312  0.55505  0.41832  Biso   1.000  O
  O14      1.0000 0.05372  0.56552  0.54387  Biso   1.000  O
  C67      1.0000 0.05608  0.57778  0.47650  Biso   1.000  C
  C68      1.0000 0.08875  0.62425  0.45570  Biso   1.000  C
  C69      1.0000 0.11487  0.65164  0.51300  Biso   1.000  C
  H31      1.0000 0.11280  0.64170  0.56320  Biso   1.000  H
  C70      1.0000 0.14471  0.69484  0.49440  Biso   1.000  C
  H32      1.0000 0.16370  0.71270  0.53220  Biso   1.000  H
  C71      1.0000 0.14649  0.71085  0.42450  Biso   1.000  C
  C72      1.0000 0.12041  0.68320  0.36660  Biso   1.000  C
  H33      1.0000 0.12220  0.69370  0.31690  Biso   1.000  H
  C73      1.0000 0.09140  0.63951  0.38270  Biso   1.000  C
  H34      1.0000 0.07410  0.62110  0.34370  Biso   1.000  H
  C74      1.0000 0.17397  0.75791  0.40480  Biso   1.000  C
  C75      1.0000 0.15495  0.77849  0.37160  Biso   1.000  C
  H35      1.0000 0.12550  0.76260  0.36120  Biso   1.000  H
  C76      1.0000 0.29190  0.73720  0.44880  Biso   1.000  C
  C77      1.0000 0.23870  0.72480  0.33040  Biso   1.000  C
  O15      1.0000 0.69979  0.88838  0.75165  Biso   1.000  O
  O16      1.0000 0.72039  0.89885  0.87720  Biso   1.000  O
  C78      1.0000 0.72275  0.91111  0.80983  Biso   1.000  C
  C79      1.0000 0.75542  0.95758  0.78903  Biso   1.000  C
  C80      1.0000 0.78154  0.98497  0.84633  Biso   1.000  C
  H36      1.0000 0.77947  0.97503  0.89653  Biso   1.000  H
  C81      1.0000 0.81138  0.02817  0.82773  Biso   1.000  C
  H37      1.0000 0.83037  0.04603  0.86553  Biso   1.000  H
  C82      1.0000 0.81316  0.04418  0.75783  Biso   1.000  C
  C83      1.0000 0.78708  0.01653  0.69993  Biso   1.000  C
  H38      1.0000 0.78887  0.02703  0.65023  Biso   1.000  H
  C84      1.0000 0.75807  0.97284  0.71603  Biso   1.000  C
  H39      1.0000 0.74077  0.95443  0.67703  Biso   1.000  H
  C85      1.0000 0.84064  0.09124  0.73813  Biso   1.000  C
  C86      1.0000 0.82162  0.11182  0.70493  Biso   1.000  C
  H40      1.0000 0.79217  0.09593  0.69453  Biso   1.000  H
  C87      1.0000 0.95857  0.07053  0.78213  Biso   1.000  C
  C88      1.0000 0.90537  0.05813  0.66373  Biso   1.000  C
  O17      1.0000 0.36645  0.22172  0.08499  Biso   1.000  O
  O18      1.0000 0.38705  0.23219  0.21054  Biso   1.000  O
  C89      1.0000 0.38941  0.24445  0.14317  Biso   1.000  C
  C90      1.0000 0.42208  0.29092  0.12237  Biso   1.000  C
  C91      1.0000 0.44820  0.31831  0.17967  Biso   1.000  C
  H41      1.0000 0.44613  0.30837  0.22987  Biso   1.000  H
  C92      1.0000 0.47804  0.36151  0.16107  Biso   1.000  C
  H42      1.0000 0.49703  0.37937  0.19887  Biso   1.000  H
  C93      1.0000 0.47982  0.37752  0.09117  Biso   1.000  C
  C94      1.0000 0.45374  0.34987  0.03327  Biso   1.000  C
  H43      1.0000 0.45553  0.36037  0.98357  Biso   1.000  H
  C95      1.0000 0.42473  0.30618  0.04937  Biso   1.000  C
  H44      1.0000 0.40743  0.28777  0.01037  Biso   1.000  H
  C96      1.0000 0.50730  0.42458  0.07147  Biso   1.000  C
  C97      1.0000 0.48828  0.44516  0.03827  Biso   1.000  C
  H45      1.0000 0.45883  0.42927  0.02787  Biso   1.000  H
  C98      1.0000 0.62523  0.40387  0.11547  Biso   1.000  C
  C99      1.0000 0.57203  0.39147  0.99707  Biso   1.000  C
  O19      1.0000 0.47807  0.44495  0.58168  Biso   1.000  O
  O20      1.0000 0.48820  0.43448  0.45613  Biso   1.000  O
  C100     1.0000 0.47830  0.42222  0.52350  Biso   1.000  C
  C101     1.0000 0.46450  0.37575  0.54430  Biso   1.000  C
  C102     1.0000 0.46323  0.34836  0.48700  Biso   1.000  C
  H46      1.0000 0.47110  0.35830  0.43680  Biso   1.000  H
  C103     1.0000 0.44987  0.30516  0.50560  Biso   1.000  C
  H47      1.0000 0.45100  0.28730  0.46780  Biso   1.000  H
  C104     1.0000 0.43564  0.28915  0.57550  Biso   1.000  C
  C105     1.0000 0.43721  0.31680  0.63340  Biso   1.000  C
  H48      1.0000 0.42850  0.30630  0.68310  Biso   1.000  H
  C106     1.0000 0.45189  0.36049  0.61730  Biso   1.000  C
  H49      1.0000 0.45300  0.37890  0.65630  Biso   1.000  H
  C107     1.0000 0.41606  0.24209  0.59520  Biso   1.000  C
  C108     1.0000 0.37646  0.22151  0.62840  Biso   1.000  C
  H50      1.0000 0.36290  0.23740  0.63880  Biso   1.000  H
  C109     1.0000 0.55470  0.26280  0.55120  Biso   1.000  C
  C110     1.0000 0.51390  0.27520  0.66960  Biso   1.000  C
  O21      1.0000 0.14474  0.77828  0.91501  Biso   1.000  O
  O22      1.0000 0.15487  0.76781  0.78946  Biso   1.000  O
  C111     1.0000 0.14497  0.75555  0.85683  Biso   1.000  C
  C112     1.0000 0.13117  0.70908  0.87763  Biso   1.000  C
  C113     1.0000 0.12990  0.68169  0.82033  Biso   1.000  C
  H51      1.0000 0.13777  0.69163  0.77013  Biso   1.000  H
  C114     1.0000 0.11654  0.63849  0.83893  Biso   1.000  C
  H52      1.0000 0.11767  0.62063  0.80113  Biso   1.000  H
  C115     1.0000 0.10231  0.62248  0.90883  Biso   1.000  C
  C116     1.0000 0.10388  0.65013  0.96673  Biso   1.000  C
  H53      1.0000 0.09517  0.63963  0.01643  Biso   1.000  H
  C117     1.0000 0.11856  0.69382  0.95063  Biso   1.000  C
  H54      1.0000 0.11967  0.71223  0.98963  Biso   1.000  H
  C118     1.0000 0.08273  0.57542  0.92853  Biso   1.000  C
  C119     1.0000 0.04313  0.55484  0.96173  Biso   1.000  C
  H55      1.0000 0.02957  0.57073  0.97213  Biso   1.000  H
  C120     1.0000 0.22137  0.59613  0.88453  Biso   1.000  C
  C121     1.0000 0.18057  0.60853  0.00293  Biso   1.000  C
  O23      1.0000 0.81140  0.11162  0.24835  Biso   1.000  O
  O24      1.0000 0.82153  0.10115  0.12280  Biso   1.000  O
  C122     1.0000 0.81163  0.08889  0.19017  Biso   1.000  C
  C123     1.0000 0.79783  0.04242  0.21097  Biso   1.000  C
  C124     1.0000 0.79656  0.01503  0.15367  Biso   1.000  C
  H56      1.0000 0.80443  0.02497  0.10347  Biso   1.000  H
  C125     1.0000 0.78320  0.97183  0.17227  Biso   1.000  C
  H57      1.0000 0.78433  0.95397  0.13447  Biso   1.000  H
  C126     1.0000 0.76897  0.95582  0.24217  Biso   1.000  C
  C127     1.0000 0.77054  0.98347  0.30007  Biso   1.000  C
  H58      1.0000 0.76183  0.97297  0.34977  Biso   1.000  H
  C128     1.0000 0.78522  0.02716  0.28397  Biso   1.000  C
  H59      1.0000 0.78633  0.04557  0.32297  Biso   1.000  H
  C129     1.0000 0.74939  0.90876  0.26187  Biso   1.000  C
  C130     1.0000 0.70979  0.88818  0.29507  Biso   1.000  C
  H60      1.0000 0.69623  0.90407  0.30547  Biso   1.000  H
  C131     1.0000 0.88803  0.92947  0.21787  Biso   1.000  C
  C132     1.0000 0.84723  0.94187  0.33627  Biso   1.000  C
  O25      1.0000 0.96688  0.52193  0.58168  Biso   1.000  O
  O26      1.0000 0.94628  0.51180  0.45613  Biso   1.000  O
  C133     1.0000 0.94392  0.52170  0.52350  Biso   1.000  C
  C134     1.0000 0.91125  0.53550  0.54430  Biso   1.000  C
  C135     1.0000 0.88513  0.53677  0.48700  Biso   1.000  C
  H61      1.0000 0.88720  0.52890  0.43680  Biso   1.000  H
  C136     1.0000 0.85529  0.55013  0.50560  Biso   1.000  C
  H62      1.0000 0.83630  0.54900  0.46780  Biso   1.000  H
  C137     1.0000 0.85351  0.56436  0.57550  Biso   1.000  C
  C138     1.0000 0.87959  0.56279  0.63340  Biso   1.000  C
  H63      1.0000 0.87780  0.57150  0.68310  Biso   1.000  H
  C139     1.0000 0.90860  0.54811  0.61730  Biso   1.000  C
  H64      1.0000 0.92590  0.54700  0.65630  Biso   1.000  H
  C140     1.0000 0.82603  0.58394  0.59520  Biso   1.000  C
  C141     1.0000 0.84505  0.62354  0.62840  Biso   1.000  C
  H65      1.0000 0.87450  0.63710  0.63880  Biso   1.000  H
  C142     1.0000 0.70810  0.44530  0.55120  Biso   1.000  C
  C143     1.0000 0.76130  0.48610  0.66960  Biso   1.000  C
  O27      1.0000 0.63355  0.85526  0.91501  Biso   1.000  O
  O28      1.0000 0.61295  0.84513  0.78946  Biso   1.000  O
  C144     1.0000 0.61059  0.85503  0.85683  Biso   1.000  C
  C145     1.0000 0.57792  0.86883  0.87763  Biso   1.000  C
  C146     1.0000 0.55180  0.87010  0.82033  Biso   1.000  C
  H66      1.0000 0.55387  0.86223  0.77013  Biso   1.000  H
  C147     1.0000 0.52196  0.88346  0.83893  Biso   1.000  C
  H67      1.0000 0.50297  0.88233  0.80113  Biso   1.000  H
  C148     1.0000 0.52018  0.89769  0.90883  Biso   1.000  C
  C149     1.0000 0.54626  0.89612  0.96673  Biso   1.000  C
  H68      1.0000 0.54447  0.90483  0.01643  Biso   1.000  H
  C150     1.0000 0.57527  0.88144  0.95063  Biso   1.000  C
  H69      1.0000 0.59257  0.88033  0.98963  Biso   1.000  H
  C151     1.0000 0.49270  0.91727  0.92853  Biso   1.000  C
  C152     1.0000 0.51172  0.95687  0.96173  Biso   1.000  C
  H70      1.0000 0.54117  0.97043  0.97213  Biso   1.000  H
  C153     1.0000 0.37477  0.77863  0.88453  Biso   1.000  C
  C154     1.0000 0.42797  0.81943  0.00293  Biso   1.000  C
  O29      1.0000 0.30021  0.18860  0.24835  Biso   1.000  O
  O30      1.0000 0.27961  0.17847  0.12280  Biso   1.000  O
  C155     1.0000 0.27725  0.18837  0.19017  Biso   1.000  C
  C156     1.0000 0.24458  0.20217  0.21097  Biso   1.000  C
  C157     1.0000 0.21846  0.20344  0.15367  Biso   1.000  C
  H71      1.0000 0.22053  0.19557  0.10347  Biso   1.000  H
  C158     1.0000 0.18862  0.21680  0.17227  Biso   1.000  C
  H72      1.0000 0.16963  0.21567  0.13447  Biso   1.000  H
  C159     1.0000 0.18684  0.23103  0.24217  Biso   1.000  C
  C160     1.0000 0.21292  0.22946  0.30007  Biso   1.000  C
  H73      1.0000 0.21113  0.23817  0.34977  Biso   1.000  H
  C161     1.0000 0.24193  0.21478  0.28397  Biso   1.000  C
  H74      1.0000 0.25923  0.21367  0.32297  Biso   1.000  H
  C162     1.0000 0.15936  0.25061  0.26187  Biso   1.000  C
  C163     1.0000 0.17838  0.29021  0.29507  Biso   1.000  C
  H75      1.0000 0.20783  0.30377  0.30547  Biso   1.000  H
  C164     1.0000 0.04143  0.11197  0.21787  Biso   1.000  C
  C165     1.0000 0.09463  0.15277  0.33627  Biso   1.000  C
  O31      1.0000 0.55505  0.03312  0.58168  Biso   1.000  O
  O32      1.0000 0.56552  0.05372  0.45613  Biso   1.000  O
  C166     1.0000 0.57778  0.05608  0.52350  Biso   1.000  C
  C167     1.0000 0.62425  0.08875  0.54430  Biso   1.000  C
  C168     1.0000 0.65164  0.11487  0.48700  Biso   1.000  C
  H76      1.0000 0.64170  0.11280  0.43680  Biso   1.000  H
  C169     1.0000 0.69484  0.14471  0.50560  Biso   1.000  C
  H77      1.0000 0.71270  0.16370  0.46780  Biso   1.000  H
  C170     1.0000 0.71085  0.14649  0.57550  Biso   1.000  C
  C171     1.0000 0.68320  0.12041  0.63340  Biso   1.000  C
  H78      1.0000 0.69370  0.12220  0.68310  Biso   1.000  H
  C172     1.0000 0.63951  0.09140  0.61730  Biso   1.000  C
  H79      1.0000 0.62110  0.07410  0.65630  Biso   1.000  H
  C173     1.0000 0.75791  0.17397  0.59520  Biso   1.000  C
  C174     1.0000 0.77849  0.15495  0.62840  Biso   1.000  C
  H80      1.0000 0.76260  0.12550  0.63880  Biso   1.000  H
  C175     1.0000 0.73720  0.29190  0.55120  Biso   1.000  C
  C176     1.0000 0.72480  0.23870  0.66960  Biso   1.000  C
  O33      1.0000 0.22172  0.36645  0.91501  Biso   1.000  O
  O34      1.0000 0.23219  0.38705  0.78946  Biso   1.000  O
  C177     1.0000 0.24445  0.38941  0.85683  Biso   1.000  C
  C178     1.0000 0.29092  0.42208  0.87763  Biso   1.000  C
  C179     1.0000 0.31831  0.44820  0.82033  Biso   1.000  C
  H81      1.0000 0.30837  0.44613  0.77013  Biso   1.000  H
  C180     1.0000 0.36151  0.47804  0.83893  Biso   1.000  C
  H82      1.0000 0.37937  0.49703  0.80113  Biso   1.000  H
  C181     1.0000 0.37752  0.47982  0.90883  Biso   1.000  C
  C182     1.0000 0.34987  0.45374  0.96673  Biso   1.000  C
  H83      1.0000 0.36037  0.45553  0.01643  Biso   1.000  H
  C183     1.0000 0.30618  0.42473  0.95063  Biso   1.000  C
  H84      1.0000 0.28777  0.40743  0.98963  Biso   1.000  H
  C184     1.0000 0.42458  0.50730  0.92853  Biso   1.000  C
  C185     1.0000 0.44516  0.48828  0.96173  Biso   1.000  C
  H85      1.0000 0.42927  0.45883  0.97213  Biso   1.000  H
  C186     1.0000 0.40387  0.62523  0.88453  Biso   1.000  C
  C187     1.0000 0.39147  0.57203  0.00293  Biso   1.000  C
  O35      1.0000 0.88838  0.69979  0.24835  Biso   1.000  O
  O36      1.0000 0.89885  0.72039  0.12280  Biso   1.000  O
  C188     1.0000 0.91111  0.72275  0.19017  Biso   1.000  C
  C189     1.0000 0.95758  0.75542  0.21097  Biso   1.000  C
  C190     1.0000 0.98497  0.78154  0.15367  Biso   1.000  C
  H86      1.0000 0.97503  0.77947  0.10347  Biso   1.000  H
  C191     1.0000 0.02817  0.81138  0.17227  Biso   1.000  C
  H87      1.0000 0.04603  0.83037  0.13447  Biso   1.000  H
  C192     1.0000 0.04418  0.81316  0.24217  Biso   1.000  C
  C193     1.0000 0.01653  0.78708  0.30007  Biso   1.000  C
  H88      1.0000 0.02703  0.78887  0.34977  Biso   1.000  H
  C194     1.0000 0.97284  0.75807  0.28397  Biso   1.000  C
  H89      1.0000 0.95443  0.74077  0.32297  Biso   1.000  H
  C195     1.0000 0.09124  0.84064  0.26187  Biso   1.000  C
  C196     1.0000 0.11182  0.82162  0.29507  Biso   1.000  C
  H90      1.0000 0.09593  0.79217  0.30547  Biso   1.000  H
  C197     1.0000 0.07053  0.95857  0.21787  Biso   1.000  C
  C198     1.0000 0.05813  0.90537  0.33627  Biso   1.000  C
  O37      1.0000 0.55505  0.52193  0.58168  Biso   1.000  O
  O38      1.0000 0.56552  0.51180  0.45613  Biso   1.000  O
  C199     1.0000 0.57778  0.52170  0.52350  Biso   1.000  C
  C200     1.0000 0.62425  0.53550  0.54430  Biso   1.000  C
  C201     1.0000 0.65164  0.53677  0.48700  Biso   1.000  C
  H91      1.0000 0.64170  0.52890  0.43680  Biso   1.000  H
  C202     1.0000 0.69484  0.55013  0.50560  Biso   1.000  C
  H92      1.0000 0.71270  0.54900  0.46780  Biso   1.000  H
  C203     1.0000 0.71085  0.56436  0.57550  Biso   1.000  C
  C204     1.0000 0.68320  0.56279  0.63340  Biso   1.000  C
  H93      1.0000 0.69370  0.57150  0.68310  Biso   1.000  H
  C205     1.0000 0.63951  0.54811  0.61730  Biso   1.000  C
  H94      1.0000 0.62110  0.54700  0.65630  Biso   1.000  H
  C206     1.0000 0.75791  0.58394  0.59520  Biso   1.000  C
  C207     1.0000 0.77849  0.62354  0.62840  Biso   1.000  C
  H95      1.0000 0.76260  0.63710  0.63880  Biso   1.000  H
  C208     1.0000 0.73720  0.44530  0.55120  Biso   1.000  C
  C209     1.0000 0.72480  0.48610  0.66960  Biso   1.000  C
  O39      1.0000 0.22172  0.85526  0.91501  Biso   1.000  O
  O40      1.0000 0.23219  0.84513  0.78946  Biso   1.000  O
  C210     1.0000 0.24445  0.85503  0.85683  Biso   1.000  C
  C211     1.0000 0.29092  0.86883  0.87763  Biso   1.000  C
  C212     1.0000 0.31831  0.87010  0.82033  Biso   1.000  C
  H96      1.0000 0.30837  0.86223  0.77013  Biso   1.000  H
  C213     1.0000 0.36151  0.88346  0.83893  Biso   1.000  C
  H97      1.0000 0.37937  0.88233  0.80113  Biso   1.000  H
  C214     1.0000 0.37752  0.89769  0.90883  Biso   1.000  C
  C215     1.0000 0.34987  0.89612  0.96673  Biso   1.000  C
  H98      1.0000 0.36037  0.90483  0.01643  Biso   1.000  H
  C216     1.0000 0.30618  0.88144  0.95063  Biso   1.000  C
  H99      1.0000 0.28777  0.88033  0.98963  Biso   1.000  H
  C217     1.0000 0.42458  0.91727  0.92853  Biso   1.000  C
  C218     1.0000 0.44516  0.95687  0.96173  Biso   1.000  C
  H100     1.0000 0.42927  0.97043  0.97213  Biso   1.000  H
  C219     1.0000 0.40387  0.77863  0.88453  Biso   1.000  C
  C220     1.0000 0.39147  0.81943  0.00293  Biso   1.000  C
  O41      1.0000 0.88838  0.18860  0.24835  Biso   1.000  O
  O42      1.0000 0.89885  0.17847  0.12280  Biso   1.000  O
  C221     1.0000 0.91111  0.18837  0.19017  Biso   1.000  C
  C222     1.0000 0.95758  0.20217  0.21097  Biso   1.000  C
  C223     1.0000 0.98497  0.20344  0.15367  Biso   1.000  C
  H101     1.0000 0.97503  0.19557  0.10347  Biso   1.000  H
  C224     1.0000 0.02817  0.21680  0.17227  Biso   1.000  C
  H102     1.0000 0.04603  0.21567  0.13447  Biso   1.000  H
  C225     1.0000 0.04418  0.23103  0.24217  Biso   1.000  C
  C226     1.0000 0.01653  0.22946  0.30007  Biso   1.000  C
  H103     1.0000 0.02703  0.23817  0.34977  Biso   1.000  H
  C227     1.0000 0.97284  0.21478  0.28397  Biso   1.000  C
  H104     1.0000 0.95443  0.21367  0.32297  Biso   1.000  H
  C228     1.0000 0.09124  0.25061  0.26187  Biso   1.000  C
  C229     1.0000 0.11182  0.29021  0.29507  Biso   1.000  C
  H105     1.0000 0.09593  0.30377  0.30547  Biso   1.000  H
  C230     1.0000 0.07053  0.11197  0.21787  Biso   1.000  C
  C231     1.0000 0.05813  0.15277  0.33627  Biso   1.000  C
  O43      1.0000 0.47807  0.03312  0.58168  Biso   1.000  O
  O44      1.0000 0.48820  0.05372  0.45613  Biso   1.000  O
  C232     1.0000 0.47830  0.05608  0.52350  Biso   1.000  C
  C233     1.0000 0.46450  0.08875  0.54430  Biso   1.000  C
  C234     1.0000 0.46323  0.11487  0.48700  Biso   1.000  C
  H106     1.0000 0.47110  0.11280  0.43680  Biso   1.000  H
  C235     1.0000 0.44987  0.14471  0.50560  Biso   1.000  C
  H107     1.0000 0.45100  0.16370  0.46780  Biso   1.000  H
  C236     1.0000 0.43564  0.14649  0.57550  Biso   1.000  C
  C237     1.0000 0.43721  0.12041  0.63340  Biso   1.000  C
  H108     1.0000 0.42850  0.12220  0.68310  Biso   1.000  H
  C238     1.0000 0.45189  0.09140  0.61730  Biso   1.000  C
  H109     1.0000 0.45300  0.07410  0.65630  Biso   1.000  H
  C239     1.0000 0.41606  0.17397  0.59520  Biso   1.000  C
  C240     1.0000 0.37646  0.15495  0.62840  Biso   1.000  C
  H110     1.0000 0.36290  0.12550  0.63880  Biso   1.000  H
  C241     1.0000 0.55470  0.29190  0.55120  Biso   1.000  C
  C242     1.0000 0.51390  0.23870  0.66960  Biso   1.000  C
  O45      1.0000 0.14474  0.36645  0.91501  Biso   1.000  O
  O46      1.0000 0.15487  0.38705  0.78946  Biso   1.000  O
  C243     1.0000 0.14497  0.38941  0.85683  Biso   1.000  C
  C244     1.0000 0.13117  0.42208  0.87763  Biso   1.000  C
  C245     1.0000 0.12990  0.44820  0.82033  Biso   1.000  C
  H111     1.0000 0.13777  0.44613  0.77013  Biso   1.000  H
  C246     1.0000 0.11654  0.47804  0.83893  Biso   1.000  C
  H112     1.0000 0.11767  0.49703  0.80113  Biso   1.000  H
  C247     1.0000 0.10231  0.47982  0.90883  Biso   1.000  C
  C248     1.0000 0.10388  0.45374  0.96673  Biso   1.000  C
  H113     1.0000 0.09517  0.45553  0.01643  Biso   1.000  H
  C249     1.0000 0.11856  0.42473  0.95063  Biso   1.000  C
  H114     1.0000 0.11967  0.40743  0.98963  Biso   1.000  H
  C250     1.0000 0.08273  0.50730  0.92853  Biso   1.000  C
  C251     1.0000 0.04313  0.48828  0.96173  Biso   1.000  C
  H115     1.0000 0.02957  0.45883  0.97213  Biso   1.000  H
  C252     1.0000 0.22137  0.62523  0.88453  Biso   1.000  C
  C253     1.0000 0.18057  0.57203  0.00293  Biso   1.000  C
  O47      1.0000 0.81140  0.69979  0.24835  Biso   1.000  O
  O48      1.0000 0.82153  0.72039  0.12280  Biso   1.000  O
  C254     1.0000 0.81163  0.72275  0.19017  Biso   1.000  C
  C255     1.0000 0.79783  0.75542  0.21097  Biso   1.000  C
  C256     1.0000 0.79656  0.78154  0.15367  Biso   1.000  C
  H116     1.0000 0.80443  0.77947  0.10347  Biso   1.000  H
  C257     1.0000 0.78320  0.81138  0.17227  Biso   1.000  C
  H117     1.0000 0.78433  0.83037  0.13447  Biso   1.000  H
  C258     1.0000 0.76897  0.81316  0.24217  Biso   1.000  C
  C259     1.0000 0.77054  0.78708  0.30007  Biso   1.000  C
  H118     1.0000 0.76183  0.78887  0.34977  Biso   1.000  H
  C260     1.0000 0.78522  0.75807  0.28397  Biso   1.000  C
  H119     1.0000 0.78633  0.74077  0.32297  Biso   1.000  H
  C261     1.0000 0.74939  0.84064  0.26187  Biso   1.000  C
  C262     1.0000 0.70979  0.82162  0.29507  Biso   1.000  C
  H120     1.0000 0.69623  0.79217  0.30547  Biso   1.000  H
  C263     1.0000 0.88803  0.95857  0.21787  Biso   1.000  C
  C264     1.0000 0.84723  0.90537  0.33627  Biso   1.000  C
  O49      1.0000 0.96688  0.44495  0.58168  Biso   1.000  O
  O50      1.0000 0.94628  0.43448  0.45613  Biso   1.000  O
  C265     1.0000 0.94392  0.42222  0.52350  Biso   1.000  C
  C266     1.0000 0.91125  0.37575  0.54430  Biso   1.000  C
  C267     1.0000 0.88513  0.34836  0.48700  Biso   1.000  C
  H121     1.0000 0.88720  0.35830  0.43680  Biso   1.000  H
  C268     1.0000 0.85529  0.30516  0.50560  Biso   1.000  C
  H122     1.0000 0.83630  0.28730  0.46780  Biso   1.000  H
  C269     1.0000 0.85351  0.28915  0.57550  Biso   1.000  C
  C270     1.0000 0.87959  0.31680  0.63340  Biso   1.000  C
  H123     1.0000 0.87780  0.30630  0.68310  Biso   1.000  H
  C271     1.0000 0.90860  0.36049  0.61730  Biso   1.000  C
  H124     1.0000 0.92590  0.37890  0.65630  Biso   1.000  H
  C272     1.0000 0.82603  0.24209  0.59520  Biso   1.000  C
  C273     1.0000 0.84505  0.22151  0.62840  Biso   1.000  C
  H125     1.0000 0.87450  0.23740  0.63880  Biso   1.000  H
  C274     1.0000 0.70810  0.26280  0.55120  Biso   1.000  C
  C275     1.0000 0.76130  0.27520  0.66960  Biso   1.000  C
  O51      1.0000 0.63355  0.77828  0.91501  Biso   1.000  O
  O52      1.0000 0.61295  0.76781  0.78946  Biso   1.000  O
  C276     1.0000 0.61059  0.75555  0.85683  Biso   1.000  C
  C277     1.0000 0.57792  0.70908  0.87763  Biso   1.000  C
  C278     1.0000 0.55180  0.68169  0.82033  Biso   1.000  C
  H126     1.0000 0.55387  0.69163  0.77013  Biso   1.000  H
  C279     1.0000 0.52196  0.63849  0.83893  Biso   1.000  C
  H127     1.0000 0.50297  0.62063  0.80113  Biso   1.000  H
  C280     1.0000 0.52018  0.62248  0.90883  Biso   1.000  C
  C281     1.0000 0.54626  0.65013  0.96673  Biso   1.000  C
  H128     1.0000 0.54447  0.63963  0.01643  Biso   1.000  H
  C282     1.0000 0.57527  0.69382  0.95063  Biso   1.000  C
  H129     1.0000 0.59257  0.71223  0.98963  Biso   1.000  H
  C283     1.0000 0.49270  0.57542  0.92853  Biso   1.000  C
  C284     1.0000 0.51172  0.55484  0.96173  Biso   1.000  C
  H130     1.0000 0.54117  0.57073  0.97213  Biso   1.000  H
  C285     1.0000 0.37477  0.59613  0.88453  Biso   1.000  C
  C286     1.0000 0.42797  0.60853  0.00293  Biso   1.000  C
  O53      1.0000 0.30021  0.11162  0.24835  Biso   1.000  O
  O54      1.0000 0.27961  0.10115  0.12280  Biso   1.000  O
  C287     1.0000 0.27725  0.08889  0.19017  Biso   1.000  C
  C288     1.0000 0.24458  0.04242  0.21097  Biso   1.000  C
  C289     1.0000 0.21846  0.01503  0.15367  Biso   1.000  C
  H131     1.0000 0.22053  0.02497  0.10347  Biso   1.000  H
  C290     1.0000 0.18862  0.97183  0.17227  Biso   1.000  C
  H132     1.0000 0.16963  0.95397  0.13447  Biso   1.000  H
  C291     1.0000 0.18684  0.95582  0.24217  Biso   1.000  C
  C292     1.0000 0.21292  0.98347  0.30007  Biso   1.000  C
  H133     1.0000 0.21113  0.97297  0.34977  Biso   1.000  H
  C293     1.0000 0.24193  0.02716  0.28397  Biso   1.000  C
  H134     1.0000 0.25923  0.04557  0.32297  Biso   1.000  H
  C294     1.0000 0.15936  0.90876  0.26187  Biso   1.000  C
  C295     1.0000 0.17838  0.88818  0.29507  Biso   1.000  C
  H135     1.0000 0.20783  0.90407  0.30547  Biso   1.000  H
  C296     1.0000 0.04143  0.92947  0.21787  Biso   1.000  C
  C297     1.0000 0.09463  0.94187  0.33627  Biso   1.000  C
  O55      1.0000 0.52193  0.55505  0.41832  Biso   1.000  O
  O56      1.0000 0.51180  0.56552  0.54387  Biso   1.000  O
  C298     1.0000 0.52170  0.57778  0.47650  Biso   1.000  C
  C299     1.0000 0.53550  0.62425  0.45570  Biso   1.000  C
  C300     1.0000 0.53677  0.65164  0.51300  Biso   1.000  C
  H136     1.0000 0.52890  0.64170  0.56320  Biso   1.000  H
  C301     1.0000 0.55013  0.69484  0.49440  Biso   1.000  C
  H137     1.0000 0.54900  0.71270  0.53220  Biso   1.000  H
  C302     1.0000 0.56436  0.71085  0.42450  Biso   1.000  C
  C303     1.0000 0.56279  0.68320  0.36660  Biso   1.000  C
  H138     1.0000 0.57150  0.69370  0.31690  Biso   1.000  H
  C304     1.0000 0.54811  0.63951  0.38270  Biso   1.000  C
  H139     1.0000 0.54700  0.62110  0.34370  Biso   1.000  H
  C305     1.0000 0.58394  0.75791  0.40480  Biso   1.000  C
  C306     1.0000 0.62354  0.77849  0.37160  Biso   1.000  C
  H140     1.0000 0.63710  0.76260  0.36120  Biso   1.000  H
  C307     1.0000 0.44530  0.73720  0.44880  Biso   1.000  C
  C308     1.0000 0.48610  0.72480  0.33040  Biso   1.000  C
  O57      1.0000 0.18860  0.88838  0.75165  Biso   1.000  O
  O58      1.0000 0.17847  0.89885  0.87720  Biso   1.000  O
  C309     1.0000 0.18837  0.91111  0.80983  Biso   1.000  C
  C310     1.0000 0.20217  0.95758  0.78903  Biso   1.000  C
  C311     1.0000 0.20344  0.98497  0.84633  Biso   1.000  C
  H141     1.0000 0.19557  0.97503  0.89653  Biso   1.000  H
  C312     1.0000 0.21680  0.02817  0.82773  Biso   1.000  C
  H142     1.0000 0.21567  0.04603  0.86553  Biso   1.000  H
  C313     1.0000 0.23103  0.04418  0.75783  Biso   1.000  C
  C314     1.0000 0.22946  0.01653  0.69993  Biso   1.000  C
  H143     1.0000 0.23817  0.02703  0.65023  Biso   1.000  H
  C315     1.0000 0.21478  0.97284  0.71603  Biso   1.000  C
  H144     1.0000 0.21367  0.95443  0.67703  Biso   1.000  H
  C316     1.0000 0.25061  0.09124  0.73813  Biso   1.000  C
  C317     1.0000 0.29021  0.11182  0.70493  Biso   1.000  C
  H145     1.0000 0.30377  0.09593  0.69453  Biso   1.000  H
  C318     1.0000 0.11197  0.07053  0.78213  Biso   1.000  C
  C319     1.0000 0.15277  0.05813  0.66373  Biso   1.000  C
  O59      1.0000 0.85526  0.22172  0.08499  Biso   1.000  O
  O60      1.0000 0.84513  0.23219  0.21054  Biso   1.000  O
  C320     1.0000 0.85503  0.24445  0.14317  Biso   1.000  C
  C321     1.0000 0.86883  0.29092  0.12237  Biso   1.000  C
  C322     1.0000 0.87010  0.31831  0.17967  Biso   1.000  C
  H146     1.0000 0.86223  0.30837  0.22987  Biso   1.000  H
  C323     1.0000 0.88346  0.36151  0.16107  Biso   1.000  C
  H147     1.0000 0.88233  0.37937  0.19887  Biso   1.000  H
  C324     1.0000 0.89769  0.37752  0.09117  Biso   1.000  C
  C325     1.0000 0.89612  0.34987  0.03327  Biso   1.000  C
  H148     1.0000 0.90483  0.36037  0.98357  Biso   1.000  H
  C326     1.0000 0.88144  0.30618  0.04937  Biso   1.000  C
  H149     1.0000 0.88033  0.28777  0.01037  Biso   1.000  H
  C327     1.0000 0.91727  0.42458  0.07147  Biso   1.000  C
  C328     1.0000 0.95687  0.44516  0.03827  Biso   1.000  C
  H150     1.0000 0.97043  0.42927  0.02787  Biso   1.000  H
  C329     1.0000 0.77863  0.40387  0.11547  Biso   1.000  C
  C330     1.0000 0.81943  0.39147  0.99707  Biso   1.000  C
  O61      1.0000 0.03312  0.47807  0.41832  Biso   1.000  O
  O62      1.0000 0.05372  0.48820  0.54387  Biso   1.000  O
  C331     1.0000 0.05608  0.47830  0.47650  Biso   1.000  C
  C332     1.0000 0.08875  0.46450  0.45570  Biso   1.000  C
  C333     1.0000 0.11487  0.46323  0.51300  Biso   1.000  C
  H151     1.0000 0.11280  0.47110  0.56320  Biso   1.000  H
  C334     1.0000 0.14471  0.44987  0.49440  Biso   1.000  C
  H152     1.0000 0.16370  0.45100  0.53220  Biso   1.000  H
  C335     1.0000 0.14649  0.43564  0.42450  Biso   1.000  C
  C336     1.0000 0.12041  0.43721  0.36660  Biso   1.000  C
  H153     1.0000 0.12220  0.42850  0.31690  Biso   1.000  H
  C337     1.0000 0.09140  0.45189  0.38270  Biso   1.000  C
  H154     1.0000 0.07410  0.45300  0.34370  Biso   1.000  H
  C338     1.0000 0.17397  0.41606  0.40480  Biso   1.000  C
  C339     1.0000 0.15495  0.37646  0.37160  Biso   1.000  C
  H155     1.0000 0.12550  0.36290  0.36120  Biso   1.000  H
  C340     1.0000 0.29190  0.55470  0.44880  Biso   1.000  C
  C341     1.0000 0.23870  0.51390  0.33040  Biso   1.000  C
  O63      1.0000 0.69979  0.81140  0.75165  Biso   1.000  O
  O64      1.0000 0.72039  0.82153  0.87720  Biso   1.000  O
  C342     1.0000 0.72275  0.81163  0.80983  Biso   1.000  C
  C343     1.0000 0.75542  0.79783  0.78903  Biso   1.000  C
  C344     1.0000 0.78154  0.79656  0.84633  Biso   1.000  C
  H156     1.0000 0.77947  0.80443  0.89653  Biso   1.000  H
  C345     1.0000 0.81138  0.78320  0.82773  Biso   1.000  C
  H157     1.0000 0.83037  0.78433  0.86553  Biso   1.000  H
  C346     1.0000 0.81316  0.76897  0.75783  Biso   1.000  C
  C347     1.0000 0.78708  0.77054  0.69993  Biso   1.000  C
  H158     1.0000 0.78887  0.76183  0.65023  Biso   1.000  H
  C348     1.0000 0.75807  0.78522  0.71603  Biso   1.000  C
  H159     1.0000 0.74077  0.78633  0.67703  Biso   1.000  H
  C349     1.0000 0.84064  0.74939  0.73813  Biso   1.000  C
  C350     1.0000 0.82162  0.70979  0.70493  Biso   1.000  C
  H160     1.0000 0.79217  0.69623  0.69453  Biso   1.000  H
  C351     1.0000 0.95857  0.88803  0.78213  Biso   1.000  C
  C352     1.0000 0.90537  0.84723  0.66373  Biso   1.000  C
  O65      1.0000 0.36645  0.14474  0.08499  Biso   1.000  O
  O66      1.0000 0.38705  0.15487  0.21054  Biso   1.000  O
  C353     1.0000 0.38941  0.14497  0.14317  Biso   1.000  C
  C354     1.0000 0.42208  0.13117  0.12237  Biso   1.000  C
  C355     1.0000 0.44820  0.12990  0.17967  Biso   1.000  C
  H161     1.0000 0.44613  0.13777  0.22987  Biso   1.000  H
  C356     1.0000 0.47804  0.11654  0.16107  Biso   1.000  C
  H162     1.0000 0.49703  0.11767  0.19887  Biso   1.000  H
  C357     1.0000 0.47982  0.10231  0.09117  Biso   1.000  C
  C358     1.0000 0.45374  0.10388  0.03327  Biso   1.000  C
  H163     1.0000 0.45553  0.09517  0.98357  Biso   1.000  H
  C359     1.0000 0.42473  0.11856  0.04937  Biso   1.000  C
  H164     1.0000 0.40743  0.11967  0.01037  Biso   1.000  H
  C360     1.0000 0.50730  0.08273  0.07147  Biso   1.000  C
  C361     1.0000 0.48828  0.04313  0.03827  Biso   1.000  C
  H165     1.0000 0.45883  0.02957  0.02787  Biso   1.000  H
  C362     1.0000 0.62523  0.22137  0.11547  Biso   1.000  C
  C363     1.0000 0.57203  0.18057  0.99707  Biso   1.000  C
  O67      1.0000 0.44495  0.96688  0.41832  Biso   1.000  O
  O68      1.0000 0.43448  0.94628  0.54387  Biso   1.000  O
  C364     1.0000 0.42222  0.94392  0.47650  Biso   1.000  C
  C365     1.0000 0.37575  0.91125  0.45570  Biso   1.000  C
  C366     1.0000 0.34836  0.88513  0.51300  Biso   1.000  C
  H166     1.0000 0.35830  0.88720  0.56320  Biso   1.000  H
  C367     1.0000 0.30516  0.85529  0.49440  Biso   1.000  C
  H167     1.0000 0.28730  0.83630  0.53220  Biso   1.000  H
  C368     1.0000 0.28915  0.85351  0.42450  Biso   1.000  C
  C369     1.0000 0.31680  0.87959  0.36660  Biso   1.000  C
  H168     1.0000 0.30630  0.87780  0.31690  Biso   1.000  H
  C370     1.0000 0.36049  0.90860  0.38270  Biso   1.000  C
  H169     1.0000 0.37890  0.92590  0.34370  Biso   1.000  H
  C371     1.0000 0.24209  0.82603  0.40480  Biso   1.000  C
  C372     1.0000 0.22151  0.84505  0.37160  Biso   1.000  C
  H170     1.0000 0.23740  0.87450  0.36120  Biso   1.000  H
  C373     1.0000 0.26280  0.70810  0.44880  Biso   1.000  C
  C374     1.0000 0.27520  0.76130  0.33040  Biso   1.000  C
  O69      1.0000 0.11162  0.30021  0.75165  Biso   1.000  O
  O70      1.0000 0.10115  0.27961  0.87720  Biso   1.000  O
  C375     1.0000 0.08889  0.27725  0.80983  Biso   1.000  C
  C376     1.0000 0.04242  0.24458  0.78903  Biso   1.000  C
  C377     1.0000 0.01503  0.21846  0.84633  Biso   1.000  C
  H171     1.0000 0.02497  0.22053  0.89653  Biso   1.000  H
  C378     1.0000 0.97183  0.18862  0.82773  Biso   1.000  C
  H172     1.0000 0.95397  0.16963  0.86553  Biso   1.000  H
  C379     1.0000 0.95582  0.18684  0.75783  Biso   1.000  C
  C380     1.0000 0.98347  0.21292  0.69993  Biso   1.000  C
  H173     1.0000 0.97297  0.21113  0.65023  Biso   1.000  H
  C381     1.0000 0.02716  0.24193  0.71603  Biso   1.000  C
  H174     1.0000 0.04557  0.25923  0.67703  Biso   1.000  H
  C382     1.0000 0.90876  0.15936  0.73813  Biso   1.000  C
  C383     1.0000 0.88818  0.17838  0.70493  Biso   1.000  C
  H175     1.0000 0.90407  0.20783  0.69453  Biso   1.000  H
  C384     1.0000 0.92947  0.04143  0.78213  Biso   1.000  C
  C385     1.0000 0.94187  0.09463  0.66373  Biso   1.000  C
  O71      1.0000 0.77828  0.63355  0.08499  Biso   1.000  O
  O72      1.0000 0.76781  0.61295  0.21054  Biso   1.000  O
  C386     1.0000 0.75555  0.61059  0.14317  Biso   1.000  C
  C387     1.0000 0.70908  0.57792  0.12237  Biso   1.000  C
  C388     1.0000 0.68169  0.55180  0.17967  Biso   1.000  C
  H176     1.0000 0.69163  0.55387  0.22987  Biso   1.000  H
  C389     1.0000 0.63849  0.52196  0.16107  Biso   1.000  C
  H177     1.0000 0.62063  0.50297  0.19887  Biso   1.000  H
  C390     1.0000 0.62248  0.52018  0.09117  Biso   1.000  C
  C391     1.0000 0.65013  0.54626  0.03327  Biso   1.000  C
  H178     1.0000 0.63963  0.54447  0.98357  Biso   1.000  H
  C392     1.0000 0.69382  0.57527  0.04937  Biso   1.000  C
  H179     1.0000 0.71223  0.59257  0.01037  Biso   1.000  H
  C393     1.0000 0.57542  0.49270  0.07147  Biso   1.000  C
  C394     1.0000 0.55484  0.51172  0.03827  Biso   1.000  C
  H180     1.0000 0.57073  0.54117  0.02787  Biso   1.000  H
  C395     1.0000 0.59613  0.37477  0.11547  Biso   1.000  C
  C396     1.0000 0.60853  0.42797  0.99707  Biso   1.000  C
  Cu1      1.0000 0.49404  0.50596  0.57305  Biso   1.000  Cu
  Cu2      1.0000 0.16071  0.83929  0.90638  Biso   1.000  Cu
  Cu3      1.0000 0.82737  0.17263  0.23972  Biso   1.000  Cu
  Cu4      1.0000 0.49404  0.98808  0.57305  Biso   1.000  Cu
  Cu5      1.0000 0.16071  0.32141  0.90638  Biso   1.000  Cu
  Cu6      1.0000 0.82737  0.65475  0.23972  Biso   1.000  Cu
  Cu7      1.0000 0.01192  0.50596  0.57305  Biso   1.000  Cu
  Cu8      1.0000 0.67859  0.83929  0.90638  Biso   1.000  Cu
  Cu9      1.0000 0.34525  0.17263  0.23972  Biso   1.000  Cu
  Cu10     1.0000 0.50596  0.49404  0.42695  Biso   1.000  Cu
  Cu11     1.0000 0.17263  0.82737  0.76028  Biso   1.000  Cu
  Cu12     1.0000 0.83929  0.16071  0.09362  Biso   1.000  Cu
  Cu13     1.0000 0.98808  0.49404  0.42695  Biso   1.000  Cu
  Cu14     1.0000 0.65475  0.82737  0.76028  Biso   1.000  Cu
  Cu15     1.0000 0.32141  0.16071  0.09362  Biso   1.000  Cu
  Cu16     1.0000 0.50596  0.01192  0.42695  Biso   1.000  Cu
  Cu17     1.0000 0.17263  0.34525  0.76028  Biso   1.000  Cu
  Cu18     1.0000 0.83929  0.67859  0.09362  Biso   1.000  Cu
  O73      1.0000 0.23820  0.47641  0.45880  Biso   1.000  O
  C397     1.0000 0.17731  0.35463  0.35190  Biso   1.000  C
  C398     1.0000 0.21844  0.43689  0.42340  Biso   1.000  C
  C399     1.0000 0.25705  0.51410  0.40630  Biso   1.000  C
  O74      1.0000 0.90487  0.80974  0.79213  Biso   1.000  O
  C400     1.0000 0.84398  0.68796  0.68523  Biso   1.000  C
  C401     1.0000 0.88511  0.77022  0.75673  Biso   1.000  C
  C402     1.0000 0.92372  0.84743  0.73963  Biso   1.000  C
  O75      1.0000 0.57154  0.14308  0.12547  Biso   1.000  O
  C403     1.0000 0.51065  0.02130  0.01857  Biso   1.000  C
  C404     1.0000 0.55178  0.10356  0.09007  Biso   1.000  C
  C405     1.0000 0.59038  0.18077  0.07297  Biso   1.000  C
  O76      1.0000 0.52359  0.76180  0.45880  Biso   1.000  O
  C406     1.0000 0.64537  0.82269  0.35190  Biso   1.000  C
  C407     1.0000 0.56311  0.78156  0.42340  Biso   1.000  C
  C408     1.0000 0.48590  0.74295  0.40630  Biso   1.000  C
  O77      1.0000 0.19026  0.09513  0.79213  Biso   1.000  O
  C409     1.0000 0.31204  0.15602  0.68523  Biso   1.000  C
  C410     1.0000 0.22978  0.11489  0.75673  Biso   1.000  C
  C411     1.0000 0.15257  0.07628  0.73963  Biso   1.000  C
  O78      1.0000 0.85692  0.42846  0.12547  Biso   1.000  O
  C412     1.0000 0.97870  0.48935  0.01857  Biso   1.000  C
  C413     1.0000 0.89644  0.44822  0.09007  Biso   1.000  C
  C414     1.0000 0.81923  0.40962  0.07297  Biso   1.000  C
  O79      1.0000 0.23820  0.76180  0.45880  Biso   1.000  O
  C415     1.0000 0.17731  0.82269  0.35190  Biso   1.000  C
  C416     1.0000 0.21844  0.78156  0.42340  Biso   1.000  C
  C417     1.0000 0.25705  0.74295  0.40630  Biso   1.000  C
  O80      1.0000 0.90487  0.09513  0.79213  Biso   1.000  O
  C418     1.0000 0.84398  0.15602  0.68523  Biso   1.000  C
  C419     1.0000 0.88511  0.11489  0.75673  Biso   1.000  C
  C420     1.0000 0.92372  0.07628  0.73963  Biso   1.000  C
  O81      1.0000 0.57154  0.42846  0.12547  Biso   1.000  O
  C421     1.0000 0.51065  0.48935  0.01857  Biso   1.000  C
  C422     1.0000 0.55178  0.44822  0.09007  Biso   1.000  C
  C423     1.0000 0.59038  0.40962  0.07297  Biso   1.000  C
  O82      1.0000 0.47641  0.23820  0.54120  Biso   1.000  O
  C424     1.0000 0.35463  0.17731  0.64810  Biso   1.000  C
  C425     1.0000 0.43689  0.21844  0.57660  Biso   1.000  C
  C426     1.0000 0.51410  0.25705  0.59370  Biso   1.000  C
  O83      1.0000 0.14308  0.57154  0.87453  Biso   1.000  O
  C427     1.0000 0.02130  0.51065  0.98143  Biso   1.000  C
  C428     1.0000 0.10356  0.55178  0.90993  Biso   1.000  C
  C429     1.0000 0.18077  0.59038  0.92703  Biso   1.000  C
  O84      1.0000 0.80974  0.90487  0.20787  Biso   1.000  O
  C430     1.0000 0.68796  0.84398  0.31477  Biso   1.000  C
  C431     1.0000 0.77022  0.88511  0.24327  Biso   1.000  C
  C432     1.0000 0.84743  0.92372  0.26037  Biso   1.000  C
  O85      1.0000 0.76180  0.52359  0.54120  Biso   1.000  O
  C433     1.0000 0.82269  0.64537  0.64810  Biso   1.000  C
  C434     1.0000 0.78156  0.56311  0.57660  Biso   1.000  C
  C435     1.0000 0.74295  0.48590  0.59370  Biso   1.000  C
  O86      1.0000 0.42846  0.85692  0.87453  Biso   1.000  O
  C436     1.0000 0.48935  0.97870  0.98143  Biso   1.000  C
  C437     1.0000 0.44822  0.89644  0.90993  Biso   1.000  C
  C438     1.0000 0.40962  0.81923  0.92703  Biso   1.000  C
  O87      1.0000 0.09513  0.19026  0.20787  Biso   1.000  O
  C439     1.0000 0.15602  0.31204  0.31477  Biso   1.000  C
  C440     1.0000 0.11489  0.22978  0.24327  Biso   1.000  C
  C441     1.0000 0.07628  0.15257  0.26037  Biso   1.000  C
  O88      1.0000 0.76180  0.23820  0.54120  Biso   1.000  O
  C442     1.0000 0.82269  0.17731  0.64810  Biso   1.000  C
  C443     1.0000 0.78156  0.21844  0.57660  Biso   1.000  C
  C444     1.0000 0.74295  0.25705  0.59370  Biso   1.000  C
  O89      1.0000 0.42846  0.57154  0.87453  Biso   1.000  O
  C445     1.0000 0.48935  0.51065  0.98143  Biso   1.000  C
  C446     1.0000 0.44822  0.55178  0.90993  Biso   1.000  C
  C447     1.0000 0.40962  0.59038  0.92703  Biso   1.000  C
  O90      1.0000 0.09513  0.90487  0.20787  Biso   1.000  O
  C448     1.0000 0.15602  0.84398  0.31477  Biso   1.000  C
  C449     1.0000 0.11489  0.88511  0.24327  Biso   1.000  C
  C450     1.0000 0.07628  0.92372  0.26037  Biso   1.000  C
