data_image0
_cell_length_a       35.3007
_cell_length_b       35.3007
_cell_length_c       20.75
_cell_angle_alpha    90
_cell_angle_beta     90
_cell_angle_gamma    120

_symmetry_space_group_name_H-M    "P 1"
_symmetry_int_tables_number       1

loop_
  _symmetry_equiv_pos_as_xyz
  'x, y, z'

loop_
  _atom_site_label
  _atom_site_occupancy
  _atom_site_fract_x
  _atom_site_fract_y
  _atom_site_fract_z
  _atom_site_thermal_displace_type
  _atom_site_B_iso_or_equiv
  _atom_site_type_symbol
  O1       1.0000 0.77932  0.63690  0.59466  Biso   1.000  O
  O2       1.0000 0.76655  0.61132  0.69576  Biso   1.000  O
  C1       1.0000 0.75541  0.61192  0.63852  Biso   1.000  C
  C2       1.0000 0.70883  0.57973  0.62061  Biso   1.000  C
  C3       1.0000 0.67958  0.55208  0.66659  Biso   1.000  C
  H1       1.0000 0.68940  0.55250  0.70930  Biso   1.000  H
  C4       1.0000 0.63611  0.52372  0.65109  Biso   1.000  C
  H2       1.0000 0.61640  0.50510  0.68320  Biso   1.000  H
  C5       1.0000 0.62156  0.52257  0.58901  Biso   1.000  C
  C6       1.0000 0.65069  0.54990  0.54260  Biso   1.000  C
  H3       1.0000 0.64100  0.54900  0.49960  Biso   1.000  H
  C7       1.0000 0.69446  0.57888  0.55896  Biso   1.000  C
  H4       1.0000 0.71420  0.59800  0.52720  Biso   1.000  H
  C8       1.0000 0.57425  0.49454  0.57191  Biso   1.000  C
  C9       1.0000 0.55436  0.51276  0.53577  Biso   1.000  C
  H5       1.0000 0.57160  0.54240  0.52250  Biso   1.000  H
  C10      1.0000 0.57710  0.39890  0.58770  Biso   1.000  C
  C11      1.0000 0.61660  0.42610  0.53550  Biso   1.000  C
  C12      1.0000 0.58780  0.37660  0.64420  Biso   1.000  C
  O3       1.0000 0.44599  0.97023  0.92799  Biso   1.000  O
  O4       1.0000 0.43322  0.94465  0.02909  Biso   1.000  O
  C13      1.0000 0.42208  0.94525  0.97185  Biso   1.000  C
  C14      1.0000 0.37550  0.91306  0.95394  Biso   1.000  C
  C15      1.0000 0.34625  0.88541  0.99992  Biso   1.000  C
  H6       1.0000 0.35607  0.88583  0.04263  Biso   1.000  H
  C16      1.0000 0.30278  0.85705  0.98442  Biso   1.000  C
  H7       1.0000 0.28307  0.83843  0.01653  Biso   1.000  H
  C17      1.0000 0.28823  0.85590  0.92234  Biso   1.000  C
  C18      1.0000 0.31736  0.88323  0.87593  Biso   1.000  C
  H8       1.0000 0.30767  0.88233  0.83293  Biso   1.000  H
  C19      1.0000 0.36113  0.91221  0.89229  Biso   1.000  C
  H9       1.0000 0.38087  0.93133  0.86053  Biso   1.000  H
  C20      1.0000 0.24092  0.82787  0.90524  Biso   1.000  C
  C21      1.0000 0.22103  0.84609  0.86910  Biso   1.000  C
  H10      1.0000 0.23827  0.87573  0.85583  Biso   1.000  H
  C22      1.0000 0.24377  0.73223  0.92103  Biso   1.000  C
  C23      1.0000 0.28327  0.75943  0.86883  Biso   1.000  C
  C24      1.0000 0.25447  0.70993  0.97753  Biso   1.000  C
  O5       1.0000 0.11265  0.30357  0.26133  Biso   1.000  O
  O6       1.0000 0.09988  0.27799  0.36243  Biso   1.000  O
  C25      1.0000 0.08874  0.27859  0.30519  Biso   1.000  C
  C26      1.0000 0.04216  0.24640  0.28728  Biso   1.000  C
  C27      1.0000 0.01291  0.21875  0.33326  Biso   1.000  C
  H11      1.0000 0.02273  0.21917  0.37597  Biso   1.000  H
  C28      1.0000 0.96944  0.19039  0.31776  Biso   1.000  C
  H12      1.0000 0.94973  0.17177  0.34987  Biso   1.000  H
  C29      1.0000 0.95489  0.18924  0.25568  Biso   1.000  C
  C30      1.0000 0.98402  0.21657  0.20927  Biso   1.000  C
  H13      1.0000 0.97433  0.21567  0.16627  Biso   1.000  H
  C31      1.0000 0.02779  0.24555  0.22563  Biso   1.000  C
  H14      1.0000 0.04753  0.26467  0.19387  Biso   1.000  H
  C32      1.0000 0.90758  0.16121  0.23858  Biso   1.000  C
  C33      1.0000 0.88769  0.17943  0.20244  Biso   1.000  C
  H15      1.0000 0.90493  0.20907  0.18917  Biso   1.000  H
  C34      1.0000 0.91043  0.06557  0.25437  Biso   1.000  C
  C35      1.0000 0.94993  0.09277  0.20217  Biso   1.000  C
  C36      1.0000 0.92113  0.04327  0.31087  Biso   1.000  C
  O7       1.0000 0.36310  0.14242  0.59466  Biso   1.000  O
  O8       1.0000 0.38868  0.15523  0.69576  Biso   1.000  O
  C37      1.0000 0.38808  0.14349  0.63852  Biso   1.000  C
  C38      1.0000 0.42027  0.12910  0.62061  Biso   1.000  C
  C39      1.0000 0.44792  0.12750  0.66659  Biso   1.000  C
  H16      1.0000 0.44750  0.13690  0.70930  Biso   1.000  H
  C40      1.0000 0.47628  0.11239  0.65109  Biso   1.000  C
  H17      1.0000 0.49490  0.11130  0.68320  Biso   1.000  H
  C41      1.0000 0.47743  0.09899  0.58901  Biso   1.000  C
  C42      1.0000 0.45010  0.10079  0.54260  Biso   1.000  C
  H18      1.0000 0.45100  0.09200  0.49960  Biso   1.000  H
  C43      1.0000 0.42112  0.11558  0.55896  Biso   1.000  C
  H19      1.0000 0.40200  0.11620  0.52720  Biso   1.000  H
  C44      1.0000 0.50546  0.07971  0.57191  Biso   1.000  C
  C45      1.0000 0.48724  0.04160  0.53577  Biso   1.000  C
  H20      1.0000 0.45760  0.02920  0.52250  Biso   1.000  H
  C46      1.0000 0.60110  0.17820  0.58770  Biso   1.000  C
  C47      1.0000 0.57390  0.19050  0.53550  Biso   1.000  C
  C48      1.0000 0.62340  0.21120  0.64420  Biso   1.000  C
  O9       1.0000 0.02977  0.47575  0.92799  Biso   1.000  O
  O10      1.0000 0.05535  0.48856  0.02909  Biso   1.000  O
  C49      1.0000 0.05475  0.47682  0.97185  Biso   1.000  C
  C50      1.0000 0.08694  0.46243  0.95394  Biso   1.000  C
  C51      1.0000 0.11459  0.46083  0.99992  Biso   1.000  C
  H21      1.0000 0.11417  0.47023  0.04263  Biso   1.000  H
  C52      1.0000 0.14295  0.44572  0.98442  Biso   1.000  C
  H22      1.0000 0.16157  0.44463  0.01653  Biso   1.000  H
  C53      1.0000 0.14410  0.43232  0.92234  Biso   1.000  C
  C54      1.0000 0.11677  0.43412  0.87593  Biso   1.000  C
  H23      1.0000 0.11767  0.42533  0.83293  Biso   1.000  H
  C55      1.0000 0.08779  0.44891  0.89229  Biso   1.000  C
  H24      1.0000 0.06867  0.44953  0.86053  Biso   1.000  H
  C56      1.0000 0.17213  0.41304  0.90524  Biso   1.000  C
  C57      1.0000 0.15391  0.37493  0.86910  Biso   1.000  C
  H25      1.0000 0.12427  0.36253  0.85583  Biso   1.000  H
  C58      1.0000 0.26777  0.51153  0.92103  Biso   1.000  C
  C59      1.0000 0.24057  0.52383  0.86883  Biso   1.000  C
  C60      1.0000 0.29007  0.54453  0.97753  Biso   1.000  C
  O11      1.0000 0.69643  0.80909  0.26133  Biso   1.000  O
  O12      1.0000 0.72201  0.82190  0.36243  Biso   1.000  O
  C61      1.0000 0.72141  0.81016  0.30519  Biso   1.000  C
  C62      1.0000 0.75360  0.79577  0.28728  Biso   1.000  C
  C63      1.0000 0.78125  0.79417  0.33326  Biso   1.000  C
  H26      1.0000 0.78083  0.80357  0.37597  Biso   1.000  H
  C64      1.0000 0.80961  0.77906  0.31776  Biso   1.000  C
  H27      1.0000 0.82823  0.77797  0.34987  Biso   1.000  H
  C65      1.0000 0.81076  0.76566  0.25568  Biso   1.000  C
  C66      1.0000 0.78343  0.76746  0.20927  Biso   1.000  C
  H28      1.0000 0.78433  0.75867  0.16627  Biso   1.000  H
  C67      1.0000 0.75445  0.78225  0.22563  Biso   1.000  C
  H29      1.0000 0.73533  0.78287  0.19387  Biso   1.000  H
  C68      1.0000 0.83879  0.74638  0.23858  Biso   1.000  C
  C69      1.0000 0.82057  0.70827  0.20244  Biso   1.000  C
  H30      1.0000 0.79093  0.69587  0.18917  Biso   1.000  H
  C70      1.0000 0.93443  0.84487  0.25437  Biso   1.000  C
  C71      1.0000 0.90723  0.85717  0.20217  Biso   1.000  C
  C72      1.0000 0.95673  0.87787  0.31087  Biso   1.000  C
  O13      1.0000 0.85758  0.22068  0.59466  Biso   1.000  O
  O14      1.0000 0.84477  0.23345  0.69576  Biso   1.000  O
  C73      1.0000 0.85651  0.24459  0.63852  Biso   1.000  C
  C74      1.0000 0.87090  0.29117  0.62061  Biso   1.000  C
  C75      1.0000 0.87250  0.32042  0.66659  Biso   1.000  C
  H31      1.0000 0.86310  0.31060  0.70930  Biso   1.000  H
  C76      1.0000 0.88761  0.36389  0.65109  Biso   1.000  C
  H32      1.0000 0.88870  0.38360  0.68320  Biso   1.000  H
  C77      1.0000 0.90101  0.37844  0.58901  Biso   1.000  C
  C78      1.0000 0.89921  0.34931  0.54260  Biso   1.000  C
  H33      1.0000 0.90800  0.35900  0.49960  Biso   1.000  H
  C79      1.0000 0.88442  0.30554  0.55896  Biso   1.000  C
  H34      1.0000 0.88380  0.28580  0.52720  Biso   1.000  H
  C80      1.0000 0.92029  0.42575  0.57191  Biso   1.000  C
  C81      1.0000 0.95840  0.44564  0.53577  Biso   1.000  C
  H35      1.0000 0.97080  0.42840  0.52250  Biso   1.000  H
  C82      1.0000 0.82180  0.42290  0.58770  Biso   1.000  C
  C83      1.0000 0.80950  0.38340  0.53550  Biso   1.000  C
  C84      1.0000 0.78880  0.41220  0.64420  Biso   1.000  C
  O15      1.0000 0.52425  0.55401  0.92799  Biso   1.000  O
  O16      1.0000 0.51144  0.56678  0.02909  Biso   1.000  O
  C85      1.0000 0.52318  0.57792  0.97185  Biso   1.000  C
  C86      1.0000 0.53757  0.62450  0.95394  Biso   1.000  C
  C87      1.0000 0.53917  0.65375  0.99992  Biso   1.000  C
  H36      1.0000 0.52977  0.64393  0.04263  Biso   1.000  H
  C88      1.0000 0.55428  0.69722  0.98442  Biso   1.000  C
  H37      1.0000 0.55537  0.71693  0.01653  Biso   1.000  H
  C89      1.0000 0.56768  0.71177  0.92234  Biso   1.000  C
  C90      1.0000 0.56588  0.68264  0.87593  Biso   1.000  C
  H38      1.0000 0.57467  0.69233  0.83293  Biso   1.000  H
  C91      1.0000 0.55109  0.63887  0.89229  Biso   1.000  C
  H39      1.0000 0.55047  0.61913  0.86053  Biso   1.000  H
  C92      1.0000 0.58696  0.75908  0.90524  Biso   1.000  C
  C93      1.0000 0.62507  0.77897  0.86910  Biso   1.000  C
  H40      1.0000 0.63747  0.76173  0.85583  Biso   1.000  H
  C94      1.0000 0.48847  0.75623  0.92103  Biso   1.000  C
  C95      1.0000 0.47617  0.71673  0.86883  Biso   1.000  C
  C96      1.0000 0.45547  0.74553  0.97753  Biso   1.000  C
  O17      1.0000 0.19091  0.88735  0.26133  Biso   1.000  O
  O18      1.0000 0.17810  0.90012  0.36243  Biso   1.000  O
  C97      1.0000 0.18984  0.91126  0.30519  Biso   1.000  C
  C98      1.0000 0.20423  0.95784  0.28728  Biso   1.000  C
  C99      1.0000 0.20583  0.98709  0.33326  Biso   1.000  C
  H41      1.0000 0.19643  0.97727  0.37597  Biso   1.000  H
  C100     1.0000 0.22094  0.03056  0.31776  Biso   1.000  C
  H42      1.0000 0.22203  0.05027  0.34987  Biso   1.000  H
  C101     1.0000 0.23434  0.04511  0.25568  Biso   1.000  C
  C102     1.0000 0.23254  0.01598  0.20927  Biso   1.000  C
  H43      1.0000 0.24133  0.02567  0.16627  Biso   1.000  H
  C103     1.0000 0.21775  0.97221  0.22563  Biso   1.000  C
  H44      1.0000 0.21713  0.95247  0.19387  Biso   1.000  H
  C104     1.0000 0.25362  0.09242  0.23858  Biso   1.000  C
  C105     1.0000 0.29173  0.11231  0.20244  Biso   1.000  C
  H45      1.0000 0.30413  0.09507  0.18917  Biso   1.000  H
  C106     1.0000 0.15513  0.08957  0.25437  Biso   1.000  C
  C107     1.0000 0.14283  0.05007  0.20217  Biso   1.000  C
  C108     1.0000 0.12213  0.07887  0.31087  Biso   1.000  C
  O19      1.0000 0.63690  0.77932  0.40534  Biso   1.000  O
  O20      1.0000 0.61132  0.76655  0.30424  Biso   1.000  O
  C109     1.0000 0.61192  0.75541  0.36148  Biso   1.000  C
  C110     1.0000 0.57973  0.70883  0.37939  Biso   1.000  C
  C111     1.0000 0.55208  0.67958  0.33341  Biso   1.000  C
  H46      1.0000 0.55250  0.68940  0.29070  Biso   1.000  H
  C112     1.0000 0.52372  0.63611  0.34891  Biso   1.000  C
  H47      1.0000 0.50510  0.61640  0.31680  Biso   1.000  H
  C113     1.0000 0.52257  0.62156  0.41099  Biso   1.000  C
  C114     1.0000 0.54990  0.65069  0.45740  Biso   1.000  C
  H48      1.0000 0.54900  0.64100  0.50040  Biso   1.000  H
  C115     1.0000 0.57888  0.69446  0.44104  Biso   1.000  C
  H49      1.0000 0.59800  0.71420  0.47280  Biso   1.000  H
  C116     1.0000 0.49454  0.57425  0.42809  Biso   1.000  C
  C117     1.0000 0.51276  0.55436  0.46423  Biso   1.000  C
  H50      1.0000 0.54240  0.57160  0.47750  Biso   1.000  H
  C118     1.0000 0.39890  0.57710  0.41230  Biso   1.000  C
  C119     1.0000 0.42610  0.61660  0.46450  Biso   1.000  C
  C120     1.0000 0.37660  0.58780  0.35580  Biso   1.000  C
  O21      1.0000 0.30357  0.11265  0.73867  Biso   1.000  O
  O22      1.0000 0.27799  0.09988  0.63757  Biso   1.000  O
  C121     1.0000 0.27859  0.08874  0.69481  Biso   1.000  C
  C122     1.0000 0.24640  0.04216  0.71272  Biso   1.000  C
  C123     1.0000 0.21875  0.01291  0.66674  Biso   1.000  C
  H51      1.0000 0.21917  0.02273  0.62403  Biso   1.000  H
  C124     1.0000 0.19039  0.96944  0.68224  Biso   1.000  C
  H52      1.0000 0.17177  0.94973  0.65013  Biso   1.000  H
  C125     1.0000 0.18924  0.95489  0.74432  Biso   1.000  C
  C126     1.0000 0.21657  0.98402  0.79073  Biso   1.000  C
  H53      1.0000 0.21567  0.97433  0.83373  Biso   1.000  H
  C127     1.0000 0.24555  0.02779  0.77437  Biso   1.000  C
  H54      1.0000 0.26467  0.04753  0.80613  Biso   1.000  H
  C128     1.0000 0.16121  0.90758  0.76142  Biso   1.000  C
  C129     1.0000 0.17943  0.88769  0.79756  Biso   1.000  C
  H55      1.0000 0.20907  0.90493  0.81083  Biso   1.000  H
  C130     1.0000 0.06557  0.91043  0.74563  Biso   1.000  C
  C131     1.0000 0.09277  0.94993  0.79783  Biso   1.000  C
  C132     1.0000 0.04327  0.92113  0.68913  Biso   1.000  C
  O23      1.0000 0.97023  0.44599  0.07201  Biso   1.000  O
  O24      1.0000 0.94465  0.43322  0.97091  Biso   1.000  O
  C133     1.0000 0.94525  0.42208  0.02815  Biso   1.000  C
  C134     1.0000 0.91306  0.37550  0.04606  Biso   1.000  C
  C135     1.0000 0.88541  0.34625  0.00008  Biso   1.000  C
  H56      1.0000 0.88583  0.35607  0.95737  Biso   1.000  H
  C136     1.0000 0.85705  0.30278  0.01558  Biso   1.000  C
  H57      1.0000 0.83843  0.28307  0.98347  Biso   1.000  H
  C137     1.0000 0.85590  0.28823  0.07766  Biso   1.000  C
  C138     1.0000 0.88323  0.31736  0.12407  Biso   1.000  C
  H58      1.0000 0.88233  0.30767  0.16707  Biso   1.000  H
  C139     1.0000 0.91221  0.36113  0.10771  Biso   1.000  C
  H59      1.0000 0.93133  0.38087  0.13947  Biso   1.000  H
  C140     1.0000 0.82787  0.24092  0.09476  Biso   1.000  C
  C141     1.0000 0.84609  0.22103  0.13090  Biso   1.000  C
  H60      1.0000 0.87573  0.23827  0.14417  Biso   1.000  H
  C142     1.0000 0.73223  0.24377  0.07897  Biso   1.000  C
  C143     1.0000 0.75943  0.28327  0.13117  Biso   1.000  C
  C144     1.0000 0.70993  0.25447  0.02247  Biso   1.000  C
  O25      1.0000 0.14242  0.36310  0.40534  Biso   1.000  O
  O26      1.0000 0.15523  0.38868  0.30424  Biso   1.000  O
  C145     1.0000 0.14349  0.38808  0.36148  Biso   1.000  C
  C146     1.0000 0.12910  0.42027  0.37939  Biso   1.000  C
  C147     1.0000 0.12750  0.44792  0.33341  Biso   1.000  C
  H61      1.0000 0.13690  0.44750  0.29070  Biso   1.000  H
  C148     1.0000 0.11239  0.47628  0.34891  Biso   1.000  C
  H62      1.0000 0.11130  0.49490  0.31680  Biso   1.000  H
  C149     1.0000 0.09899  0.47743  0.41099  Biso   1.000  C
  C150     1.0000 0.10079  0.45010  0.45740  Biso   1.000  C
  H63      1.0000 0.09200  0.45100  0.50040  Biso   1.000  H
  C151     1.0000 0.11558  0.42112  0.44104  Biso   1.000  C
  H64      1.0000 0.11620  0.40200  0.47280  Biso   1.000  H
  C152     1.0000 0.07971  0.50546  0.42809  Biso   1.000  C
  C153     1.0000 0.04160  0.48724  0.46423  Biso   1.000  C
  H65      1.0000 0.02920  0.45760  0.47750  Biso   1.000  H
  C154     1.0000 0.17820  0.60110  0.41230  Biso   1.000  C
  C155     1.0000 0.19050  0.57390  0.46450  Biso   1.000  C
  C156     1.0000 0.21120  0.62340  0.35580  Biso   1.000  C
  O27      1.0000 0.80909  0.69643  0.73867  Biso   1.000  O
  O28      1.0000 0.82190  0.72201  0.63757  Biso   1.000  O
  C157     1.0000 0.81016  0.72141  0.69481  Biso   1.000  C
  C158     1.0000 0.79577  0.75360  0.71272  Biso   1.000  C
  C159     1.0000 0.79417  0.78125  0.66674  Biso   1.000  C
  H66      1.0000 0.80357  0.78083  0.62403  Biso   1.000  H
  C160     1.0000 0.77906  0.80961  0.68224  Biso   1.000  C
  H67      1.0000 0.77797  0.82823  0.65013  Biso   1.000  H
  C161     1.0000 0.76566  0.81076  0.74432  Biso   1.000  C
  C162     1.0000 0.76746  0.78343  0.79073  Biso   1.000  C
  H68      1.0000 0.75867  0.78433  0.83373  Biso   1.000  H
  C163     1.0000 0.78225  0.75445  0.77437  Biso   1.000  C
  H69      1.0000 0.78287  0.73533  0.80613  Biso   1.000  H
  C164     1.0000 0.74638  0.83879  0.76142  Biso   1.000  C
  C165     1.0000 0.70827  0.82057  0.79756  Biso   1.000  C
  H70      1.0000 0.69587  0.79093  0.81083  Biso   1.000  H
  C166     1.0000 0.84487  0.93443  0.74563  Biso   1.000  C
  C167     1.0000 0.85717  0.90723  0.79783  Biso   1.000  C
  C168     1.0000 0.87787  0.95673  0.68913  Biso   1.000  C
  O29      1.0000 0.47575  0.02977  0.07201  Biso   1.000  O
  O30      1.0000 0.48856  0.05535  0.97091  Biso   1.000  O
  C169     1.0000 0.47682  0.05475  0.02815  Biso   1.000  C
  C170     1.0000 0.46243  0.08694  0.04606  Biso   1.000  C
  C171     1.0000 0.46083  0.11459  0.00008  Biso   1.000  C
  H71      1.0000 0.47023  0.11417  0.95737  Biso   1.000  H
  C172     1.0000 0.44572  0.14295  0.01558  Biso   1.000  C
  H72      1.0000 0.44463  0.16157  0.98347  Biso   1.000  H
  C173     1.0000 0.43232  0.14410  0.07766  Biso   1.000  C
  C174     1.0000 0.43412  0.11677  0.12407  Biso   1.000  C
  H73      1.0000 0.42533  0.11767  0.16707  Biso   1.000  H
  C175     1.0000 0.44891  0.08779  0.10771  Biso   1.000  C
  H74      1.0000 0.44953  0.06867  0.13947  Biso   1.000  H
  C176     1.0000 0.41304  0.17213  0.09476  Biso   1.000  C
  C177     1.0000 0.37493  0.15391  0.13090  Biso   1.000  C
  H75      1.0000 0.36253  0.12427  0.14417  Biso   1.000  H
  C178     1.0000 0.51153  0.26777  0.07897  Biso   1.000  C
  C179     1.0000 0.52383  0.24057  0.13117  Biso   1.000  C
  C180     1.0000 0.54453  0.29007  0.02247  Biso   1.000  C
  O31      1.0000 0.22068  0.85758  0.40534  Biso   1.000  O
  O32      1.0000 0.23345  0.84477  0.30424  Biso   1.000  O
  C181     1.0000 0.24459  0.85651  0.36148  Biso   1.000  C
  C182     1.0000 0.29117  0.87090  0.37939  Biso   1.000  C
  C183     1.0000 0.32042  0.87250  0.33341  Biso   1.000  C
  H76      1.0000 0.31060  0.86310  0.29070  Biso   1.000  H
  C184     1.0000 0.36389  0.88761  0.34891  Biso   1.000  C
  H77      1.0000 0.38360  0.88870  0.31680  Biso   1.000  H
  C185     1.0000 0.37844  0.90101  0.41099  Biso   1.000  C
  C186     1.0000 0.34931  0.89921  0.45740  Biso   1.000  C
  H78      1.0000 0.35900  0.90800  0.50040  Biso   1.000  H
  C187     1.0000 0.30554  0.88442  0.44104  Biso   1.000  C
  H79      1.0000 0.28580  0.88380  0.47280  Biso   1.000  H
  C188     1.0000 0.42575  0.92029  0.42809  Biso   1.000  C
  C189     1.0000 0.44564  0.95840  0.46423  Biso   1.000  C
  H80      1.0000 0.42840  0.97080  0.47750  Biso   1.000  H
  C190     1.0000 0.42290  0.82180  0.41230  Biso   1.000  C
  C191     1.0000 0.38340  0.80950  0.46450  Biso   1.000  C
  C192     1.0000 0.41220  0.78880  0.35580  Biso   1.000  C
  O33      1.0000 0.88735  0.19091  0.73867  Biso   1.000  O
  O34      1.0000 0.90012  0.17810  0.63757  Biso   1.000  O
  C193     1.0000 0.91126  0.18984  0.69481  Biso   1.000  C
  C194     1.0000 0.95784  0.20423  0.71272  Biso   1.000  C
  C195     1.0000 0.98709  0.20583  0.66674  Biso   1.000  C
  H81      1.0000 0.97727  0.19643  0.62403  Biso   1.000  H
  C196     1.0000 0.03056  0.22094  0.68224  Biso   1.000  C
  H82      1.0000 0.05027  0.22203  0.65013  Biso   1.000  H
  C197     1.0000 0.04511  0.23434  0.74432  Biso   1.000  C
  C198     1.0000 0.01598  0.23254  0.79073  Biso   1.000  C
  H83      1.0000 0.02567  0.24133  0.83373  Biso   1.000  H
  C199     1.0000 0.97221  0.21775  0.77437  Biso   1.000  C
  H84      1.0000 0.95247  0.21713  0.80613  Biso   1.000  H
  C200     1.0000 0.09242  0.25362  0.76142  Biso   1.000  C
  C201     1.0000 0.11231  0.29173  0.79756  Biso   1.000  C
  H85      1.0000 0.09507  0.30413  0.81083  Biso   1.000  H
  C202     1.0000 0.08957  0.15513  0.74563  Biso   1.000  C
  C203     1.0000 0.05007  0.14283  0.79783  Biso   1.000  C
  C204     1.0000 0.07887  0.12213  0.68913  Biso   1.000  C
  O35      1.0000 0.55401  0.52425  0.07201  Biso   1.000  O
  O36      1.0000 0.56678  0.51144  0.97091  Biso   1.000  O
  C205     1.0000 0.57792  0.52318  0.02815  Biso   1.000  C
  C206     1.0000 0.62450  0.53757  0.04606  Biso   1.000  C
  C207     1.0000 0.65375  0.53917  0.00008  Biso   1.000  C
  H86      1.0000 0.64393  0.52977  0.95737  Biso   1.000  H
  C208     1.0000 0.69722  0.55428  0.01558  Biso   1.000  C
  H87      1.0000 0.71693  0.55537  0.98347  Biso   1.000  H
  C209     1.0000 0.71177  0.56768  0.07766  Biso   1.000  C
  C210     1.0000 0.68264  0.56588  0.12407  Biso   1.000  C
  H88      1.0000 0.69233  0.57467  0.16707  Biso   1.000  H
  C211     1.0000 0.63887  0.55109  0.10771  Biso   1.000  C
  H89      1.0000 0.61913  0.55047  0.13947  Biso   1.000  H
  C212     1.0000 0.75908  0.58696  0.09476  Biso   1.000  C
  C213     1.0000 0.77897  0.62507  0.13090  Biso   1.000  C
  H90      1.0000 0.76173  0.63747  0.14417  Biso   1.000  H
  C214     1.0000 0.75623  0.48847  0.07897  Biso   1.000  C
  C215     1.0000 0.71673  0.47617  0.13117  Biso   1.000  C
  C216     1.0000 0.74553  0.45547  0.02247  Biso   1.000  C
  O37      1.0000 0.22068  0.36310  0.40534  Biso   1.000  O
  O38      1.0000 0.23345  0.38868  0.30424  Biso   1.000  O
  C217     1.0000 0.24459  0.38808  0.36148  Biso   1.000  C
  C218     1.0000 0.29117  0.42027  0.37939  Biso   1.000  C
  C219     1.0000 0.32042  0.44792  0.33341  Biso   1.000  C
  H91      1.0000 0.31060  0.44750  0.29070  Biso   1.000  H
  C220     1.0000 0.36389  0.47628  0.34891  Biso   1.000  C
  H92      1.0000 0.38360  0.49490  0.31680  Biso   1.000  H
  C221     1.0000 0.37844  0.47743  0.41099  Biso   1.000  C
  C222     1.0000 0.34931  0.45010  0.45740  Biso   1.000  C
  H93      1.0000 0.35900  0.45100  0.50040  Biso   1.000  H
  C223     1.0000 0.30554  0.42112  0.44104  Biso   1.000  C
  H94      1.0000 0.28580  0.40200  0.47280  Biso   1.000  H
  C224     1.0000 0.42575  0.50546  0.42809  Biso   1.000  C
  C225     1.0000 0.44564  0.48724  0.46423  Biso   1.000  C
  H95      1.0000 0.42840  0.45760  0.47750  Biso   1.000  H
  C226     1.0000 0.42290  0.60110  0.41230  Biso   1.000  C
  C227     1.0000 0.38340  0.57390  0.46450  Biso   1.000  C
  C228     1.0000 0.41220  0.62340  0.35580  Biso   1.000  C
  O39      1.0000 0.88735  0.69643  0.73867  Biso   1.000  O
  O40      1.0000 0.90012  0.72201  0.63757  Biso   1.000  O
  C229     1.0000 0.91126  0.72141  0.69481  Biso   1.000  C
  C230     1.0000 0.95784  0.75360  0.71272  Biso   1.000  C
  C231     1.0000 0.98709  0.78125  0.66674  Biso   1.000  C
  H96      1.0000 0.97727  0.78083  0.62403  Biso   1.000  H
  C232     1.0000 0.03056  0.80961  0.68224  Biso   1.000  C
  H97      1.0000 0.05027  0.82823  0.65013  Biso   1.000  H
  C233     1.0000 0.04511  0.81076  0.74432  Biso   1.000  C
  C234     1.0000 0.01598  0.78343  0.79073  Biso   1.000  C
  H98      1.0000 0.02567  0.78433  0.83373  Biso   1.000  H
  C235     1.0000 0.97221  0.75445  0.77437  Biso   1.000  C
  H99      1.0000 0.95247  0.73533  0.80613  Biso   1.000  H
  C236     1.0000 0.09242  0.83879  0.76142  Biso   1.000  C
  C237     1.0000 0.11231  0.82057  0.79756  Biso   1.000  C
  H100     1.0000 0.09507  0.79093  0.81083  Biso   1.000  H
  C238     1.0000 0.08957  0.93443  0.74563  Biso   1.000  C
  C239     1.0000 0.05007  0.90723  0.79783  Biso   1.000  C
  C240     1.0000 0.07887  0.95673  0.68913  Biso   1.000  C
  O41      1.0000 0.55401  0.02977  0.07201  Biso   1.000  O
  O42      1.0000 0.56678  0.05535  0.97091  Biso   1.000  O
  C241     1.0000 0.57792  0.05475  0.02815  Biso   1.000  C
  C242     1.0000 0.62450  0.08694  0.04606  Biso   1.000  C
  C243     1.0000 0.65375  0.11459  0.00008  Biso   1.000  C
  H101     1.0000 0.64393  0.11417  0.95737  Biso   1.000  H
  C244     1.0000 0.69722  0.14295  0.01558  Biso   1.000  C
  H102     1.0000 0.71693  0.16157  0.98347  Biso   1.000  H
  C245     1.0000 0.71177  0.14410  0.07766  Biso   1.000  C
  C246     1.0000 0.68264  0.11677  0.12407  Biso   1.000  C
  H103     1.0000 0.69233  0.11767  0.16707  Biso   1.000  H
  C247     1.0000 0.63887  0.08779  0.10771  Biso   1.000  C
  H104     1.0000 0.61913  0.06867  0.13947  Biso   1.000  H
  C248     1.0000 0.75908  0.17213  0.09476  Biso   1.000  C
  C249     1.0000 0.77897  0.15391  0.13090  Biso   1.000  C
  H105     1.0000 0.76173  0.12427  0.14417  Biso   1.000  H
  C250     1.0000 0.75623  0.26777  0.07897  Biso   1.000  C
  C251     1.0000 0.71673  0.24057  0.13117  Biso   1.000  C
  C252     1.0000 0.74553  0.29007  0.02247  Biso   1.000  C
  O43      1.0000 0.63690  0.85758  0.40534  Biso   1.000  O
  O44      1.0000 0.61132  0.84477  0.30424  Biso   1.000  O
  C253     1.0000 0.61192  0.85651  0.36148  Biso   1.000  C
  C254     1.0000 0.57973  0.87090  0.37939  Biso   1.000  C
  C255     1.0000 0.55208  0.87250  0.33341  Biso   1.000  C
  H106     1.0000 0.55250  0.86310  0.29070  Biso   1.000  H
  C256     1.0000 0.52372  0.88761  0.34891  Biso   1.000  C
  H107     1.0000 0.50510  0.88870  0.31680  Biso   1.000  H
  C257     1.0000 0.52257  0.90101  0.41099  Biso   1.000  C
  C258     1.0000 0.54990  0.89921  0.45740  Biso   1.000  C
  H108     1.0000 0.54900  0.90800  0.50040  Biso   1.000  H
  C259     1.0000 0.57888  0.88442  0.44104  Biso   1.000  C
  H109     1.0000 0.59800  0.88380  0.47280  Biso   1.000  H
  C260     1.0000 0.49454  0.92029  0.42809  Biso   1.000  C
  C261     1.0000 0.51276  0.95840  0.46423  Biso   1.000  C
  H110     1.0000 0.54240  0.97080  0.47750  Biso   1.000  H
  C262     1.0000 0.39890  0.82180  0.41230  Biso   1.000  C
  C263     1.0000 0.42610  0.80950  0.46450  Biso   1.000  C
  C264     1.0000 0.37660  0.78880  0.35580  Biso   1.000  C
  O45      1.0000 0.30357  0.19091  0.73867  Biso   1.000  O
  O46      1.0000 0.27799  0.17810  0.63757  Biso   1.000  O
  C265     1.0000 0.27859  0.18984  0.69481  Biso   1.000  C
  C266     1.0000 0.24640  0.20423  0.71272  Biso   1.000  C
  C267     1.0000 0.21875  0.20583  0.66674  Biso   1.000  C
  H111     1.0000 0.21917  0.19643  0.62403  Biso   1.000  H
  C268     1.0000 0.19039  0.22094  0.68224  Biso   1.000  C
  H112     1.0000 0.17177  0.22203  0.65013  Biso   1.000  H
  C269     1.0000 0.18924  0.23434  0.74432  Biso   1.000  C
  C270     1.0000 0.21657  0.23254  0.79073  Biso   1.000  C
  H113     1.0000 0.21567  0.24133  0.83373  Biso   1.000  H
  C271     1.0000 0.24555  0.21775  0.77437  Biso   1.000  C
  H114     1.0000 0.26467  0.21713  0.80613  Biso   1.000  H
  C272     1.0000 0.16121  0.25362  0.76142  Biso   1.000  C
  C273     1.0000 0.17943  0.29173  0.79756  Biso   1.000  C
  H115     1.0000 0.20907  0.30413  0.81083  Biso   1.000  H
  C274     1.0000 0.06557  0.15513  0.74563  Biso   1.000  C
  C275     1.0000 0.09277  0.14283  0.79783  Biso   1.000  C
  C276     1.0000 0.04327  0.12213  0.68913  Biso   1.000  C
  O47      1.0000 0.97023  0.52425  0.07201  Biso   1.000  O
  O48      1.0000 0.94465  0.51144  0.97091  Biso   1.000  O
  C277     1.0000 0.94525  0.52318  0.02815  Biso   1.000  C
  C278     1.0000 0.91306  0.53757  0.04606  Biso   1.000  C
  C279     1.0000 0.88541  0.53917  0.00008  Biso   1.000  C
  H116     1.0000 0.88583  0.52977  0.95737  Biso   1.000  H
  C280     1.0000 0.85705  0.55428  0.01558  Biso   1.000  C
  H117     1.0000 0.83843  0.55537  0.98347  Biso   1.000  H
  C281     1.0000 0.85590  0.56768  0.07766  Biso   1.000  C
  C282     1.0000 0.88323  0.56588  0.12407  Biso   1.000  C
  H118     1.0000 0.88233  0.57467  0.16707  Biso   1.000  H
  C283     1.0000 0.91221  0.55109  0.10771  Biso   1.000  C
  H119     1.0000 0.93133  0.55047  0.13947  Biso   1.000  H
  C284     1.0000 0.82787  0.58696  0.09476  Biso   1.000  C
  C285     1.0000 0.84609  0.62507  0.13090  Biso   1.000  C
  H120     1.0000 0.87573  0.63747  0.14417  Biso   1.000  H
  C286     1.0000 0.73223  0.48847  0.07897  Biso   1.000  C
  C287     1.0000 0.75943  0.47617  0.13117  Biso   1.000  C
  C288     1.0000 0.70993  0.45547  0.02247  Biso   1.000  C
  O49      1.0000 0.14242  0.77932  0.40534  Biso   1.000  O
  O50      1.0000 0.15523  0.76655  0.30424  Biso   1.000  O
  C289     1.0000 0.14349  0.75541  0.36148  Biso   1.000  C
  C290     1.0000 0.12910  0.70883  0.37939  Biso   1.000  C
  C291     1.0000 0.12750  0.67958  0.33341  Biso   1.000  C
  H121     1.0000 0.13690  0.68940  0.29070  Biso   1.000  H
  C292     1.0000 0.11239  0.63611  0.34891  Biso   1.000  C
  H122     1.0000 0.11130  0.61640  0.31680  Biso   1.000  H
  C293     1.0000 0.09899  0.62156  0.41099  Biso   1.000  C
  C294     1.0000 0.10079  0.65069  0.45740  Biso   1.000  C
  H123     1.0000 0.09200  0.64100  0.50040  Biso   1.000  H
  C295     1.0000 0.11558  0.69446  0.44104  Biso   1.000  C
  H124     1.0000 0.11620  0.71420  0.47280  Biso   1.000  H
  C296     1.0000 0.07971  0.57425  0.42809  Biso   1.000  C
  C297     1.0000 0.04160  0.55436  0.46423  Biso   1.000  C
  H125     1.0000 0.02920  0.57160  0.47750  Biso   1.000  H
  C298     1.0000 0.17820  0.57710  0.41230  Biso   1.000  C
  C299     1.0000 0.19050  0.61660  0.46450  Biso   1.000  C
  C300     1.0000 0.21120  0.58780  0.35580  Biso   1.000  C
  O51      1.0000 0.80909  0.11265  0.73867  Biso   1.000  O
  O52      1.0000 0.82190  0.09988  0.63757  Biso   1.000  O
  C301     1.0000 0.81016  0.08874  0.69481  Biso   1.000  C
  C302     1.0000 0.79577  0.04216  0.71272  Biso   1.000  C
  C303     1.0000 0.79417  0.01291  0.66674  Biso   1.000  C
  H126     1.0000 0.80357  0.02273  0.62403  Biso   1.000  H
  C304     1.0000 0.77906  0.96944  0.68224  Biso   1.000  C
  H127     1.0000 0.77797  0.94973  0.65013  Biso   1.000  H
  C305     1.0000 0.76566  0.95489  0.74432  Biso   1.000  C
  C306     1.0000 0.76746  0.98402  0.79073  Biso   1.000  C
  H128     1.0000 0.75867  0.97433  0.83373  Biso   1.000  H
  C307     1.0000 0.78225  0.02779  0.77437  Biso   1.000  C
  H129     1.0000 0.78287  0.04753  0.80613  Biso   1.000  H
  C308     1.0000 0.74638  0.90758  0.76142  Biso   1.000  C
  C309     1.0000 0.70827  0.88769  0.79756  Biso   1.000  C
  H130     1.0000 0.69587  0.90493  0.81083  Biso   1.000  H
  C310     1.0000 0.84487  0.91043  0.74563  Biso   1.000  C
  C311     1.0000 0.85717  0.94993  0.79783  Biso   1.000  C
  C312     1.0000 0.87787  0.92113  0.68913  Biso   1.000  C
  O53      1.0000 0.47575  0.44599  0.07201  Biso   1.000  O
  O54      1.0000 0.48856  0.43322  0.97091  Biso   1.000  O
  C313     1.0000 0.47682  0.42208  0.02815  Biso   1.000  C
  C314     1.0000 0.46243  0.37550  0.04606  Biso   1.000  C
  C315     1.0000 0.46083  0.34625  0.00008  Biso   1.000  C
  H131     1.0000 0.47023  0.35607  0.95737  Biso   1.000  H
  C316     1.0000 0.44572  0.30278  0.01558  Biso   1.000  C
  H132     1.0000 0.44463  0.28307  0.98347  Biso   1.000  H
  C317     1.0000 0.43232  0.28823  0.07766  Biso   1.000  C
  C318     1.0000 0.43412  0.31736  0.12407  Biso   1.000  C
  H133     1.0000 0.42533  0.30767  0.16707  Biso   1.000  H
  C319     1.0000 0.44891  0.36113  0.10771  Biso   1.000  C
  H134     1.0000 0.44953  0.38087  0.13947  Biso   1.000  H
  C320     1.0000 0.41304  0.24092  0.09476  Biso   1.000  C
  C321     1.0000 0.37493  0.22103  0.13090  Biso   1.000  C
  H135     1.0000 0.36253  0.23827  0.14417  Biso   1.000  H
  C322     1.0000 0.51153  0.24377  0.07897  Biso   1.000  C
  C323     1.0000 0.52383  0.28327  0.13117  Biso   1.000  C
  C324     1.0000 0.54453  0.25447  0.02247  Biso   1.000  C
  O55      1.0000 0.36310  0.22068  0.59466  Biso   1.000  O
  O56      1.0000 0.38868  0.23345  0.69576  Biso   1.000  O
  C325     1.0000 0.38808  0.24459  0.63852  Biso   1.000  C
  C326     1.0000 0.42027  0.29117  0.62061  Biso   1.000  C
  C327     1.0000 0.44792  0.32042  0.66659  Biso   1.000  C
  H136     1.0000 0.44750  0.31060  0.70930  Biso   1.000  H
  C328     1.0000 0.47628  0.36389  0.65109  Biso   1.000  C
  H137     1.0000 0.49490  0.38360  0.68320  Biso   1.000  H
  C329     1.0000 0.47743  0.37844  0.58901  Biso   1.000  C
  C330     1.0000 0.45010  0.34931  0.54260  Biso   1.000  C
  H138     1.0000 0.45100  0.35900  0.49960  Biso   1.000  H
  C331     1.0000 0.42112  0.30554  0.55896  Biso   1.000  C
  H139     1.0000 0.40200  0.28580  0.52720  Biso   1.000  H
  C332     1.0000 0.50546  0.42575  0.57191  Biso   1.000  C
  C333     1.0000 0.48724  0.44564  0.53577  Biso   1.000  C
  H140     1.0000 0.45760  0.42840  0.52250  Biso   1.000  H
  C334     1.0000 0.60110  0.42290  0.58770  Biso   1.000  C
  C335     1.0000 0.57390  0.38340  0.53550  Biso   1.000  C
  C336     1.0000 0.62340  0.41220  0.64420  Biso   1.000  C
  O57      1.0000 0.02977  0.55401  0.92799  Biso   1.000  O
  O58      1.0000 0.05535  0.56678  0.02909  Biso   1.000  O
  C337     1.0000 0.05475  0.57792  0.97185  Biso   1.000  C
  C338     1.0000 0.08694  0.62450  0.95394  Biso   1.000  C
  C339     1.0000 0.11459  0.65375  0.99992  Biso   1.000  C
  H141     1.0000 0.11417  0.64393  0.04263  Biso   1.000  H
  C340     1.0000 0.14295  0.69722  0.98442  Biso   1.000  C
  H142     1.0000 0.16157  0.71693  0.01653  Biso   1.000  H
  C341     1.0000 0.14410  0.71177  0.92234  Biso   1.000  C
  C342     1.0000 0.11677  0.68264  0.87593  Biso   1.000  C
  H143     1.0000 0.11767  0.69233  0.83293  Biso   1.000  H
  C343     1.0000 0.08779  0.63887  0.89229  Biso   1.000  C
  H144     1.0000 0.06867  0.61913  0.86053  Biso   1.000  H
  C344     1.0000 0.17213  0.75908  0.90524  Biso   1.000  C
  C345     1.0000 0.15391  0.77897  0.86910  Biso   1.000  C
  H145     1.0000 0.12427  0.76173  0.85583  Biso   1.000  H
  C346     1.0000 0.26777  0.75623  0.92103  Biso   1.000  C
  C347     1.0000 0.24057  0.71673  0.86883  Biso   1.000  C
  C348     1.0000 0.29007  0.74553  0.97753  Biso   1.000  C
  O59      1.0000 0.69643  0.88735  0.26133  Biso   1.000  O
  O60      1.0000 0.72201  0.90012  0.36243  Biso   1.000  O
  C349     1.0000 0.72141  0.91126  0.30519  Biso   1.000  C
  C350     1.0000 0.75360  0.95784  0.28728  Biso   1.000  C
  C351     1.0000 0.78125  0.98709  0.33326  Biso   1.000  C
  H146     1.0000 0.78083  0.97727  0.37597  Biso   1.000  H
  C352     1.0000 0.80961  0.03056  0.31776  Biso   1.000  C
  H147     1.0000 0.82823  0.05027  0.34987  Biso   1.000  H
  C353     1.0000 0.81076  0.04511  0.25568  Biso   1.000  C
  C354     1.0000 0.78343  0.01598  0.20927  Biso   1.000  C
  H148     1.0000 0.78433  0.02567  0.16627  Biso   1.000  H
  C355     1.0000 0.75445  0.97221  0.22563  Biso   1.000  C
  H149     1.0000 0.73533  0.95247  0.19387  Biso   1.000  H
  C356     1.0000 0.83879  0.09242  0.23858  Biso   1.000  C
  C357     1.0000 0.82057  0.11231  0.20244  Biso   1.000  C
  H150     1.0000 0.79093  0.09507  0.18917  Biso   1.000  H
  C358     1.0000 0.93443  0.08957  0.25437  Biso   1.000  C
  C359     1.0000 0.90723  0.05007  0.20217  Biso   1.000  C
  C360     1.0000 0.95673  0.07887  0.31087  Biso   1.000  C
  O61      1.0000 0.85758  0.63690  0.59466  Biso   1.000  O
  O62      1.0000 0.84477  0.61132  0.69576  Biso   1.000  O
  C361     1.0000 0.85651  0.61192  0.63852  Biso   1.000  C
  C362     1.0000 0.87090  0.57973  0.62061  Biso   1.000  C
  C363     1.0000 0.87250  0.55208  0.66659  Biso   1.000  C
  H151     1.0000 0.86310  0.55250  0.70930  Biso   1.000  H
  C364     1.0000 0.88761  0.52372  0.65109  Biso   1.000  C
  H152     1.0000 0.88870  0.50510  0.68320  Biso   1.000  H
  C365     1.0000 0.90101  0.52257  0.58901  Biso   1.000  C
  C366     1.0000 0.89921  0.54990  0.54260  Biso   1.000  C
  H153     1.0000 0.90800  0.54900  0.49960  Biso   1.000  H
  C367     1.0000 0.88442  0.57888  0.55896  Biso   1.000  C
  H154     1.0000 0.88380  0.59800  0.52720  Biso   1.000  H
  C368     1.0000 0.92029  0.49454  0.57191  Biso   1.000  C
  C369     1.0000 0.95840  0.51276  0.53577  Biso   1.000  C
  H155     1.0000 0.97080  0.54240  0.52250  Biso   1.000  H
  C370     1.0000 0.82180  0.39890  0.58770  Biso   1.000  C
  C371     1.0000 0.80950  0.42610  0.53550  Biso   1.000  C
  C372     1.0000 0.78880  0.37660  0.64420  Biso   1.000  C
  O63      1.0000 0.52425  0.97023  0.92799  Biso   1.000  O
  O64      1.0000 0.51144  0.94465  0.02909  Biso   1.000  O
  C373     1.0000 0.52318  0.94525  0.97185  Biso   1.000  C
  C374     1.0000 0.53757  0.91306  0.95394  Biso   1.000  C
  C375     1.0000 0.53917  0.88541  0.99992  Biso   1.000  C
  H156     1.0000 0.52977  0.88583  0.04263  Biso   1.000  H
  C376     1.0000 0.55428  0.85705  0.98442  Biso   1.000  C
  H157     1.0000 0.55537  0.83843  0.01653  Biso   1.000  H
  C377     1.0000 0.56768  0.85590  0.92234  Biso   1.000  C
  C378     1.0000 0.56588  0.88323  0.87593  Biso   1.000  C
  H158     1.0000 0.57467  0.88233  0.83293  Biso   1.000  H
  C379     1.0000 0.55109  0.91221  0.89229  Biso   1.000  C
  H159     1.0000 0.55047  0.93133  0.86053  Biso   1.000  H
  C380     1.0000 0.58696  0.82787  0.90524  Biso   1.000  C
  C381     1.0000 0.62507  0.84609  0.86910  Biso   1.000  C
  H160     1.0000 0.63747  0.87573  0.85583  Biso   1.000  H
  C382     1.0000 0.48847  0.73223  0.92103  Biso   1.000  C
  C383     1.0000 0.47617  0.75943  0.86883  Biso   1.000  C
  C384     1.0000 0.45547  0.70993  0.97753  Biso   1.000  C
  O65      1.0000 0.19091  0.30357  0.26133  Biso   1.000  O
  O66      1.0000 0.17810  0.27799  0.36243  Biso   1.000  O
  C385     1.0000 0.18984  0.27859  0.30519  Biso   1.000  C
  C386     1.0000 0.20423  0.24640  0.28728  Biso   1.000  C
  C387     1.0000 0.20583  0.21875  0.33326  Biso   1.000  C
  H161     1.0000 0.19643  0.21917  0.37597  Biso   1.000  H
  C388     1.0000 0.22094  0.19039  0.31776  Biso   1.000  C
  H162     1.0000 0.22203  0.17177  0.34987  Biso   1.000  H
  C389     1.0000 0.23434  0.18924  0.25568  Biso   1.000  C
  C390     1.0000 0.23254  0.21657  0.20927  Biso   1.000  C
  H163     1.0000 0.24133  0.21567  0.16627  Biso   1.000  H
  C391     1.0000 0.21775  0.24555  0.22563  Biso   1.000  C
  H164     1.0000 0.21713  0.26467  0.19387  Biso   1.000  H
  C392     1.0000 0.25362  0.16121  0.23858  Biso   1.000  C
  C393     1.0000 0.29173  0.17943  0.20244  Biso   1.000  C
  H165     1.0000 0.30413  0.20907  0.18917  Biso   1.000  H
  C394     1.0000 0.15513  0.06557  0.25437  Biso   1.000  C
  C395     1.0000 0.14283  0.09277  0.20217  Biso   1.000  C
  C396     1.0000 0.12213  0.04327  0.31087  Biso   1.000  C
  O67      1.0000 0.77932  0.14242  0.59466  Biso   1.000  O
  O68      1.0000 0.76655  0.15523  0.69576  Biso   1.000  O
  C397     1.0000 0.75541  0.14349  0.63852  Biso   1.000  C
  C398     1.0000 0.70883  0.12910  0.62061  Biso   1.000  C
  C399     1.0000 0.67958  0.12750  0.66659  Biso   1.000  C
  H166     1.0000 0.68940  0.13690  0.70930  Biso   1.000  H
  C400     1.0000 0.63611  0.11239  0.65109  Biso   1.000  C
  H167     1.0000 0.61640  0.11130  0.68320  Biso   1.000  H
  C401     1.0000 0.62156  0.09899  0.58901  Biso   1.000  C
  C402     1.0000 0.65069  0.10079  0.54260  Biso   1.000  C
  H168     1.0000 0.64100  0.09200  0.49960  Biso   1.000  H
  C403     1.0000 0.69446  0.11558  0.55896  Biso   1.000  C
  H169     1.0000 0.71420  0.11620  0.52720  Biso   1.000  H
  C404     1.0000 0.57425  0.07971  0.57191  Biso   1.000  C
  C405     1.0000 0.55436  0.04160  0.53577  Biso   1.000  C
  H170     1.0000 0.57160  0.02920  0.52250  Biso   1.000  H
  C406     1.0000 0.57710  0.17820  0.58770  Biso   1.000  C
  C407     1.0000 0.61660  0.19050  0.53550  Biso   1.000  C
  C408     1.0000 0.58780  0.21120  0.64420  Biso   1.000  C
  O69      1.0000 0.44599  0.47575  0.92799  Biso   1.000  O
  O70      1.0000 0.43322  0.48856  0.02909  Biso   1.000  O
  C409     1.0000 0.42208  0.47682  0.97185  Biso   1.000  C
  C410     1.0000 0.37550  0.46243  0.95394  Biso   1.000  C
  C411     1.0000 0.34625  0.46083  0.99992  Biso   1.000  C
  H171     1.0000 0.35607  0.47023  0.04263  Biso   1.000  H
  C412     1.0000 0.30278  0.44572  0.98442  Biso   1.000  C
  H172     1.0000 0.28307  0.44463  0.01653  Biso   1.000  H
  C413     1.0000 0.28823  0.43232  0.92234  Biso   1.000  C
  C414     1.0000 0.31736  0.43412  0.87593  Biso   1.000  C
  H173     1.0000 0.30767  0.42533  0.83293  Biso   1.000  H
  C415     1.0000 0.36113  0.44891  0.89229  Biso   1.000  C
  H174     1.0000 0.38087  0.44953  0.86053  Biso   1.000  H
  C416     1.0000 0.24092  0.41304  0.90524  Biso   1.000  C
  C417     1.0000 0.22103  0.37493  0.86910  Biso   1.000  C
  H175     1.0000 0.23827  0.36253  0.85583  Biso   1.000  H
  C418     1.0000 0.24377  0.51153  0.92103  Biso   1.000  C
  C419     1.0000 0.28327  0.52383  0.86883  Biso   1.000  C
  C420     1.0000 0.25447  0.54453  0.97753  Biso   1.000  C
  O71      1.0000 0.11265  0.80909  0.26133  Biso   1.000  O
  O72      1.0000 0.09988  0.82190  0.36243  Biso   1.000  O
  C421     1.0000 0.08874  0.81016  0.30519  Biso   1.000  C
  C422     1.0000 0.04216  0.79577  0.28728  Biso   1.000  C
  C423     1.0000 0.01291  0.79417  0.33326  Biso   1.000  C
  H176     1.0000 0.02273  0.80357  0.37597  Biso   1.000  H
  C424     1.0000 0.96944  0.77906  0.31776  Biso   1.000  C
  H177     1.0000 0.94973  0.77797  0.34987  Biso   1.000  H
  C425     1.0000 0.95489  0.76566  0.25568  Biso   1.000  C
  C426     1.0000 0.98402  0.76746  0.20927  Biso   1.000  C
  H178     1.0000 0.97433  0.75867  0.16627  Biso   1.000  H
  C427     1.0000 0.02779  0.78225  0.22563  Biso   1.000  C
  H179     1.0000 0.04753  0.78287  0.19387  Biso   1.000  H
  C428     1.0000 0.90758  0.74638  0.23858  Biso   1.000  C
  C429     1.0000 0.88769  0.70827  0.20244  Biso   1.000  C
  H180     1.0000 0.90493  0.69587  0.18917  Biso   1.000  H
  C430     1.0000 0.91043  0.84487  0.25437  Biso   1.000  C
  C431     1.0000 0.94993  0.85717  0.20217  Biso   1.000  C
  C432     1.0000 0.92113  0.87787  0.31087  Biso   1.000  C
  Cu1      1.0000 0.84073  0.68147  0.60702  Biso   1.000  Cu
  Cu2      1.0000 0.50740  0.01480  0.94035  Biso   1.000  Cu
  Cu3      1.0000 0.17407  0.34814  0.27369  Biso   1.000  Cu
  Cu4      1.0000 0.31853  0.15927  0.60702  Biso   1.000  Cu
  Cu5      1.0000 0.98520  0.49260  0.94035  Biso   1.000  Cu
  Cu6      1.0000 0.65186  0.82593  0.27369  Biso   1.000  Cu
  Cu7      1.0000 0.84073  0.15927  0.60702  Biso   1.000  Cu
  Cu8      1.0000 0.50740  0.49260  0.94035  Biso   1.000  Cu
  Cu9      1.0000 0.17407  0.82593  0.27369  Biso   1.000  Cu
  Cu10     1.0000 0.68147  0.84073  0.39298  Biso   1.000  Cu
  Cu11     1.0000 0.34814  0.17407  0.72631  Biso   1.000  Cu
  Cu12     1.0000 0.01480  0.50740  0.05965  Biso   1.000  Cu
  Cu13     1.0000 0.15927  0.31853  0.39298  Biso   1.000  Cu
  Cu14     1.0000 0.82593  0.65186  0.72631  Biso   1.000  Cu
  Cu15     1.0000 0.49260  0.98520  0.05965  Biso   1.000  Cu
  Cu16     1.0000 0.15927  0.84073  0.39298  Biso   1.000  Cu
  Cu17     1.0000 0.82593  0.17407  0.72631  Biso   1.000  Cu
  Cu18     1.0000 0.49260  0.50740  0.05965  Biso   1.000  Cu
  O73      1.0000 0.56873  0.43127  0.62429  Biso   1.000  O
  C433     1.0000 0.51024  0.48976  0.51780  Biso   1.000  C
  C434     1.0000 0.54978  0.45022  0.58900  Biso   1.000  C
  O74      1.0000 0.23540  0.76460  0.95762  Biso   1.000  O
  C435     1.0000 0.17691  0.82309  0.85113  Biso   1.000  C
  C436     1.0000 0.21645  0.78355  0.92233  Biso   1.000  C
  O75      1.0000 0.90206  0.09794  0.29096  Biso   1.000  O
  C437     1.0000 0.84357  0.15643  0.18447  Biso   1.000  C
  C438     1.0000 0.88311  0.11689  0.25567  Biso   1.000  C
  O76      1.0000 0.56873  0.13746  0.62429  Biso   1.000  O
  C439     1.0000 0.51024  0.02048  0.51780  Biso   1.000  C
  C440     1.0000 0.54978  0.09956  0.58900  Biso   1.000  C
  O77      1.0000 0.23540  0.47079  0.95762  Biso   1.000  O
  C441     1.0000 0.17691  0.35381  0.85113  Biso   1.000  C
  C442     1.0000 0.21645  0.43289  0.92233  Biso   1.000  C
  O78      1.0000 0.90206  0.80413  0.29096  Biso   1.000  O
  C443     1.0000 0.84357  0.68715  0.18447  Biso   1.000  C
  C444     1.0000 0.88311  0.76623  0.25567  Biso   1.000  C
  O79      1.0000 0.86254  0.43127  0.62429  Biso   1.000  O
  C445     1.0000 0.97952  0.48976  0.51780  Biso   1.000  C
  C446     1.0000 0.90044  0.45022  0.58900  Biso   1.000  C
  O80      1.0000 0.52921  0.76460  0.95762  Biso   1.000  O
  C447     1.0000 0.64619  0.82309  0.85113  Biso   1.000  C
  C448     1.0000 0.56711  0.78355  0.92233  Biso   1.000  C
  O81      1.0000 0.19587  0.09794  0.29096  Biso   1.000  O
  C449     1.0000 0.31285  0.15643  0.18447  Biso   1.000  C
  C450     1.0000 0.23377  0.11689  0.25567  Biso   1.000  C
  O82      1.0000 0.43127  0.56873  0.37571  Biso   1.000  O
  C451     1.0000 0.48976  0.51024  0.48220  Biso   1.000  C
  C452     1.0000 0.45022  0.54978  0.41100  Biso   1.000  C
  O83      1.0000 0.09794  0.90206  0.70904  Biso   1.000  O
  C453     1.0000 0.15643  0.84357  0.81553  Biso   1.000  C
  C454     1.0000 0.11689  0.88311  0.74433  Biso   1.000  C
  O84      1.0000 0.76460  0.23540  0.04238  Biso   1.000  O
  C455     1.0000 0.82309  0.17691  0.14887  Biso   1.000  C
  C456     1.0000 0.78355  0.21645  0.07767  Biso   1.000  C
  O85      1.0000 0.13746  0.56873  0.37571  Biso   1.000  O
  C457     1.0000 0.02048  0.51024  0.48220  Biso   1.000  C
  C458     1.0000 0.09956  0.54978  0.41100  Biso   1.000  C
  O86      1.0000 0.80413  0.90206  0.70904  Biso   1.000  O
  C459     1.0000 0.68715  0.84357  0.81553  Biso   1.000  C
  C460     1.0000 0.76623  0.88311  0.74433  Biso   1.000  C
  O87      1.0000 0.47079  0.23540  0.04238  Biso   1.000  O
  C461     1.0000 0.35381  0.17691  0.14887  Biso   1.000  C
  C462     1.0000 0.43289  0.21645  0.07767  Biso   1.000  C
  O88      1.0000 0.43127  0.86254  0.37571  Biso   1.000  O
  C463     1.0000 0.48976  0.97952  0.48220  Biso   1.000  C
  C464     1.0000 0.45022  0.90044  0.41100  Biso   1.000  C
  O89      1.0000 0.09794  0.19587  0.70904  Biso   1.000  O
  C465     1.0000 0.15643  0.31285  0.81553  Biso   1.000  C
  C466     1.0000 0.11689  0.23377  0.74433  Biso   1.000  C
  O90      1.0000 0.76460  0.52921  0.04238  Biso   1.000  O
  C467     1.0000 0.82309  0.64619  0.14887  Biso   1.000  C
  C468     1.0000 0.78355  0.56711  0.07767  Biso   1.000  C
