data_image0
_cell_length_a       35.802
_cell_length_b       35.802
_cell_length_c       15.509
_cell_angle_alpha    90
_cell_angle_beta     90
_cell_angle_gamma    120

_symmetry_space_group_name_H-M    "P 1"
_symmetry_int_tables_number       1

loop_
  _symmetry_equiv_pos_as_xyz
  'x, y, z'

loop_
  _atom_site_label
  _atom_site_occupancy
  _atom_site_fract_x
  _atom_site_fract_y
  _atom_site_fract_z
  _atom_site_thermal_displace_type
  _atom_site_B_iso_or_equiv
  _atom_site_type_symbol
  O1       1.0000 0.44301  0.47971  0.41970  Biso   1.000  O
  O2       1.0000 0.43566  0.48743  0.56090  Biso   1.000  O
  C1       1.0000 0.42133  0.47850  0.48720  Biso   1.000  C
  C2       1.0000 0.37491  0.46382  0.46950  Biso   1.000  C
  C3       1.0000 0.34849  0.46224  0.53790  Biso   1.000  C
  H1       1.0000 0.35960  0.47140  0.59300  Biso   1.000  H
  C4       1.0000 0.30437  0.44618  0.51990  Biso   1.000  C
  H2       1.0000 0.28620  0.44430  0.56460  Biso   1.000  H
  C5       1.0000 0.28764  0.43349  0.43990  Biso   1.000  C
  C6       1.0000 0.31512  0.43736  0.37440  Biso   1.000  C
  H3       1.0000 0.30450  0.42970  0.31860  Biso   1.000  H
  C7       1.0000 0.35854  0.45246  0.39010  Biso   1.000  C
  H4       1.0000 0.37650  0.45470  0.34460  Biso   1.000  H
  C8       1.0000 0.24080  0.41434  0.42310  Biso   1.000  C
  C9       1.0000 0.22063  0.37526  0.37680  Biso   1.000  C
  H5       1.0000 0.23700  0.36280  0.36090  Biso   1.000  H
  C10      1.0000 0.26600  0.51120  0.43450  Biso   1.000  C
  C11      1.0000 0.29050  0.54480  0.50690  Biso   1.000  C
  C12      1.0000 0.23780  0.52350  0.38140  Biso   1.000  C
  O3       1.0000 0.10968  0.81304  0.75303  Biso   1.000  O
  O4       1.0000 0.10233  0.82076  0.89423  Biso   1.000  O
  C13      1.0000 0.08800  0.81183  0.82053  Biso   1.000  C
  C14      1.0000 0.04158  0.79715  0.80283  Biso   1.000  C
  C15      1.0000 0.01516  0.79557  0.87123  Biso   1.000  C
  H6       1.0000 0.02627  0.80473  0.92633  Biso   1.000  H
  C16      1.0000 0.97104  0.77951  0.85323  Biso   1.000  C
  H7       1.0000 0.95287  0.77763  0.89793  Biso   1.000  H
  C17      1.0000 0.95431  0.76682  0.77323  Biso   1.000  C
  C18      1.0000 0.98179  0.77069  0.70773  Biso   1.000  C
  H8       1.0000 0.97117  0.76303  0.65193  Biso   1.000  H
  C19      1.0000 0.02521  0.78579  0.72343  Biso   1.000  C
  H9       1.0000 0.04317  0.78803  0.67793  Biso   1.000  H
  C20      1.0000 0.90747  0.74767  0.75643  Biso   1.000  C
  C21      1.0000 0.88730  0.70859  0.71013  Biso   1.000  C
  H10      1.0000 0.90367  0.69613  0.69423  Biso   1.000  H
  C22      1.0000 0.93267  0.84453  0.76783  Biso   1.000  C
  C23      1.0000 0.95717  0.87813  0.84023  Biso   1.000  C
  C24      1.0000 0.90447  0.85683  0.71473  Biso   1.000  C
  O5       1.0000 0.77634  0.14638  0.08637  Biso   1.000  O
  O6       1.0000 0.76899  0.15410  0.22757  Biso   1.000  O
  C25      1.0000 0.75466  0.14517  0.15387  Biso   1.000  C
  C26      1.0000 0.70824  0.13049  0.13617  Biso   1.000  C
  C27      1.0000 0.68182  0.12891  0.20457  Biso   1.000  C
  H11      1.0000 0.69293  0.13807  0.25967  Biso   1.000  H
  C28      1.0000 0.63770  0.11285  0.18657  Biso   1.000  C
  H12      1.0000 0.61953  0.11097  0.23127  Biso   1.000  H
  C29      1.0000 0.62097  0.10016  0.10657  Biso   1.000  C
  C30      1.0000 0.64845  0.10403  0.04107  Biso   1.000  C
  H13      1.0000 0.63783  0.09637  0.98527  Biso   1.000  H
  C31      1.0000 0.69187  0.11913  0.05677  Biso   1.000  C
  H14      1.0000 0.70983  0.12137  0.01127  Biso   1.000  H
  C32      1.0000 0.57413  0.08101  0.08977  Biso   1.000  C
  C33      1.0000 0.55396  0.04193  0.04347  Biso   1.000  C
  H15      1.0000 0.57033  0.02947  0.02757  Biso   1.000  H
  C34      1.0000 0.59933  0.17787  0.10117  Biso   1.000  C
  C35      1.0000 0.62383  0.21147  0.17357  Biso   1.000  C
  C36      1.0000 0.57113  0.19017  0.04807  Biso   1.000  C
  O7       1.0000 0.52029  0.96330  0.41970  Biso   1.000  O
  O8       1.0000 0.51257  0.94823  0.56090  Biso   1.000  O
  C37      1.0000 0.52150  0.94283  0.48720  Biso   1.000  C
  C38      1.0000 0.53618  0.91109  0.46950  Biso   1.000  C
  C39      1.0000 0.53776  0.88625  0.53790  Biso   1.000  C
  H16      1.0000 0.52860  0.88820  0.59300  Biso   1.000  H
  C40      1.0000 0.55382  0.85819  0.51990  Biso   1.000  C
  H17      1.0000 0.55570  0.84190  0.56460  Biso   1.000  H
  C41      1.0000 0.56651  0.85415  0.43990  Biso   1.000  C
  C42      1.0000 0.56264  0.87776  0.37440  Biso   1.000  C
  H18      1.0000 0.57030  0.87480  0.31860  Biso   1.000  H
  C43      1.0000 0.54754  0.90608  0.39010  Biso   1.000  C
  H19      1.0000 0.54530  0.92180  0.34460  Biso   1.000  H
  C44      1.0000 0.58566  0.82646  0.42310  Biso   1.000  C
  C45      1.0000 0.62474  0.84537  0.37680  Biso   1.000  C
  H20      1.0000 0.63720  0.87420  0.36090  Biso   1.000  H
  C46      1.0000 0.48880  0.75480  0.43450  Biso   1.000  C
  C47      1.0000 0.45520  0.74570  0.50690  Biso   1.000  C
  C48      1.0000 0.47650  0.71430  0.38140  Biso   1.000  C
  O9       1.0000 0.18696  0.29663  0.75303  Biso   1.000  O
  O10      1.0000 0.17924  0.28156  0.89423  Biso   1.000  O
  C49      1.0000 0.18817  0.27616  0.82053  Biso   1.000  C
  C50      1.0000 0.20285  0.24442  0.80283  Biso   1.000  C
  C51      1.0000 0.20443  0.21958  0.87123  Biso   1.000  C
  H21      1.0000 0.19527  0.22153  0.92633  Biso   1.000  H
  C52      1.0000 0.22049  0.19152  0.85323  Biso   1.000  C
  H22      1.0000 0.22237  0.17523  0.89793  Biso   1.000  H
  C53      1.0000 0.23318  0.18748  0.77323  Biso   1.000  C
  C54      1.0000 0.22931  0.21109  0.70773  Biso   1.000  C
  H23      1.0000 0.23697  0.20813  0.65193  Biso   1.000  H
  C55      1.0000 0.21421  0.23941  0.72343  Biso   1.000  C
  H24      1.0000 0.21197  0.25513  0.67793  Biso   1.000  H
  C56      1.0000 0.25233  0.15979  0.75643  Biso   1.000  C
  C57      1.0000 0.29141  0.17870  0.71013  Biso   1.000  C
  H25      1.0000 0.30387  0.20753  0.69423  Biso   1.000  H
  C58      1.0000 0.15547  0.08813  0.76783  Biso   1.000  C
  C59      1.0000 0.12187  0.07903  0.84023  Biso   1.000  C
  C60      1.0000 0.14317  0.04763  0.71473  Biso   1.000  C
  O11      1.0000 0.85362  0.62997  0.08637  Biso   1.000  O
  O12      1.0000 0.84590  0.61490  0.22757  Biso   1.000  O
  C61      1.0000 0.85483  0.60950  0.15387  Biso   1.000  C
  C62      1.0000 0.86951  0.57776  0.13617  Biso   1.000  C
  C63      1.0000 0.87109  0.55292  0.20457  Biso   1.000  C
  H26      1.0000 0.86193  0.55487  0.25967  Biso   1.000  H
  C64      1.0000 0.88715  0.52486  0.18657  Biso   1.000  C
  H27      1.0000 0.88903  0.50857  0.23127  Biso   1.000  H
  C65      1.0000 0.89984  0.52082  0.10657  Biso   1.000  C
  C66      1.0000 0.89597  0.54443  0.04107  Biso   1.000  C
  H28      1.0000 0.90363  0.54147  0.98527  Biso   1.000  H
  C67      1.0000 0.88087  0.57275  0.05677  Biso   1.000  C
  H29      1.0000 0.87863  0.58847  0.01127  Biso   1.000  H
  C68      1.0000 0.91899  0.49313  0.08977  Biso   1.000  C
  C69      1.0000 0.95807  0.51204  0.04347  Biso   1.000  C
  H30      1.0000 0.97053  0.54087  0.02757  Biso   1.000  H
  C70      1.0000 0.82213  0.42147  0.10117  Biso   1.000  C
  C71      1.0000 0.78853  0.41237  0.17357  Biso   1.000  C
  C72      1.0000 0.80983  0.38097  0.04807  Biso   1.000  C
  O13      1.0000 0.03670  0.55699  0.41970  Biso   1.000  O
  O14      1.0000 0.05177  0.56434  0.56090  Biso   1.000  O
  C73      1.0000 0.05717  0.57867  0.48720  Biso   1.000  C
  C74      1.0000 0.08891  0.62509  0.46950  Biso   1.000  C
  C75      1.0000 0.11375  0.65151  0.53790  Biso   1.000  C
  H31      1.0000 0.11180  0.64040  0.59300  Biso   1.000  H
  C76      1.0000 0.14181  0.69563  0.51990  Biso   1.000  C
  H32      1.0000 0.15810  0.71380  0.56460  Biso   1.000  H
  C77      1.0000 0.14585  0.71236  0.43990  Biso   1.000  C
  C78      1.0000 0.12224  0.68488  0.37440  Biso   1.000  C
  H33      1.0000 0.12520  0.69550  0.31860  Biso   1.000  H
  C79      1.0000 0.09392  0.64146  0.39010  Biso   1.000  C
  H34      1.0000 0.07820  0.62350  0.34460  Biso   1.000  H
  C80      1.0000 0.17354  0.75920  0.42310  Biso   1.000  C
  C81      1.0000 0.15463  0.77937  0.37680  Biso   1.000  C
  H35      1.0000 0.12580  0.76300  0.36090  Biso   1.000  H
  C82      1.0000 0.24520  0.73400  0.43450  Biso   1.000  C
  C83      1.0000 0.25430  0.70950  0.50690  Biso   1.000  C
  C84      1.0000 0.28570  0.76220  0.38140  Biso   1.000  C
  O15      1.0000 0.70337  0.89032  0.75303  Biso   1.000  O
  O16      1.0000 0.71844  0.89767  0.89423  Biso   1.000  O
  C85      1.0000 0.72384  0.91200  0.82053  Biso   1.000  C
  C86      1.0000 0.75558  0.95842  0.80283  Biso   1.000  C
  C87      1.0000 0.78042  0.98484  0.87123  Biso   1.000  C
  H36      1.0000 0.77847  0.97373  0.92633  Biso   1.000  H
  C88      1.0000 0.80848  0.02896  0.85323  Biso   1.000  C
  H37      1.0000 0.82477  0.04713  0.89793  Biso   1.000  H
  C89      1.0000 0.81252  0.04569  0.77323  Biso   1.000  C
  C90      1.0000 0.78891  0.01821  0.70773  Biso   1.000  C
  H38      1.0000 0.79187  0.02883  0.65193  Biso   1.000  H
  C91      1.0000 0.76059  0.97479  0.72343  Biso   1.000  C
  H39      1.0000 0.74487  0.95683  0.67793  Biso   1.000  H
  C92      1.0000 0.84021  0.09253  0.75643  Biso   1.000  C
  C93      1.0000 0.82130  0.11270  0.71013  Biso   1.000  C
  H40      1.0000 0.79247  0.09633  0.69423  Biso   1.000  H
  C94      1.0000 0.91187  0.06733  0.76783  Biso   1.000  C
  C95      1.0000 0.92097  0.04283  0.84023  Biso   1.000  C
  C96      1.0000 0.95237  0.09553  0.71473  Biso   1.000  C
  O17      1.0000 0.37003  0.22366  0.08637  Biso   1.000  O
  O18      1.0000 0.38510  0.23101  0.22757  Biso   1.000  O
  C97      1.0000 0.39050  0.24534  0.15387  Biso   1.000  C
  C98      1.0000 0.42224  0.29176  0.13617  Biso   1.000  C
  C99      1.0000 0.44708  0.31818  0.20457  Biso   1.000  C
  H41      1.0000 0.44513  0.30707  0.25967  Biso   1.000  H
  C100     1.0000 0.47514  0.36230  0.18657  Biso   1.000  C
  H42      1.0000 0.49143  0.38047  0.23127  Biso   1.000  H
  C101     1.0000 0.47918  0.37903  0.10657  Biso   1.000  C
  C102     1.0000 0.45557  0.35155  0.04107  Biso   1.000  C
  H43      1.0000 0.45853  0.36217  0.98527  Biso   1.000  H
  C103     1.0000 0.42725  0.30813  0.05677  Biso   1.000  C
  H44      1.0000 0.41153  0.29017  0.01127  Biso   1.000  H
  C104     1.0000 0.50687  0.42587  0.08977  Biso   1.000  C
  C105     1.0000 0.48796  0.44604  0.04347  Biso   1.000  C
  H45      1.0000 0.45913  0.42967  0.02757  Biso   1.000  H
  C106     1.0000 0.57853  0.40067  0.10117  Biso   1.000  C
  C107     1.0000 0.58763  0.37617  0.17357  Biso   1.000  C
  C108     1.0000 0.61903  0.42887  0.04807  Biso   1.000  C
  O19      1.0000 0.47971  0.44301  0.58030  Biso   1.000  O
  O20      1.0000 0.48743  0.43566  0.43910  Biso   1.000  O
  C109     1.0000 0.47850  0.42133  0.51280  Biso   1.000  C
  C110     1.0000 0.46382  0.37491  0.53050  Biso   1.000  C
  C111     1.0000 0.46224  0.34849  0.46210  Biso   1.000  C
  H46      1.0000 0.47140  0.35960  0.40700  Biso   1.000  H
  C112     1.0000 0.44618  0.30437  0.48010  Biso   1.000  C
  H47      1.0000 0.44430  0.28620  0.43540  Biso   1.000  H
  C113     1.0000 0.43349  0.28764  0.56010  Biso   1.000  C
  C114     1.0000 0.43736  0.31512  0.62560  Biso   1.000  C
  H48      1.0000 0.42970  0.30450  0.68140  Biso   1.000  H
  C115     1.0000 0.45246  0.35854  0.60990  Biso   1.000  C
  H49      1.0000 0.45470  0.37650  0.65540  Biso   1.000  H
  C116     1.0000 0.41434  0.24080  0.57690  Biso   1.000  C
  C117     1.0000 0.37526  0.22063  0.62320  Biso   1.000  C
  H50      1.0000 0.36280  0.23700  0.63910  Biso   1.000  H
  C118     1.0000 0.51120  0.26600  0.56550  Biso   1.000  C
  C119     1.0000 0.54480  0.29050  0.49310  Biso   1.000  C
  C120     1.0000 0.52350  0.23780  0.61860  Biso   1.000  C
  O21      1.0000 0.14638  0.77634  0.91363  Biso   1.000  O
  O22      1.0000 0.15410  0.76899  0.77243  Biso   1.000  O
  C121     1.0000 0.14517  0.75466  0.84613  Biso   1.000  C
  C122     1.0000 0.13049  0.70824  0.86383  Biso   1.000  C
  C123     1.0000 0.12891  0.68182  0.79543  Biso   1.000  C
  H51      1.0000 0.13807  0.69293  0.74033  Biso   1.000  H
  C124     1.0000 0.11285  0.63770  0.81343  Biso   1.000  C
  H52      1.0000 0.11097  0.61953  0.76873  Biso   1.000  H
  C125     1.0000 0.10016  0.62097  0.89343  Biso   1.000  C
  C126     1.0000 0.10403  0.64845  0.95893  Biso   1.000  C
  H53      1.0000 0.09637  0.63783  0.01473  Biso   1.000  H
  C127     1.0000 0.11913  0.69187  0.94323  Biso   1.000  C
  H54      1.0000 0.12137  0.70983  0.98873  Biso   1.000  H
  C128     1.0000 0.08101  0.57413  0.91023  Biso   1.000  C
  C129     1.0000 0.04193  0.55396  0.95653  Biso   1.000  C
  H55      1.0000 0.02947  0.57033  0.97243  Biso   1.000  H
  C130     1.0000 0.17787  0.59933  0.89883  Biso   1.000  C
  C131     1.0000 0.21147  0.62383  0.82643  Biso   1.000  C
  C132     1.0000 0.19017  0.57113  0.95193  Biso   1.000  C
  O23      1.0000 0.81304  0.10968  0.24697  Biso   1.000  O
  O24      1.0000 0.82076  0.10233  0.10577  Biso   1.000  O
  C133     1.0000 0.81183  0.08800  0.17947  Biso   1.000  C
  C134     1.0000 0.79715  0.04158  0.19717  Biso   1.000  C
  C135     1.0000 0.79557  0.01516  0.12877  Biso   1.000  C
  H56      1.0000 0.80473  0.02627  0.07367  Biso   1.000  H
  C136     1.0000 0.77951  0.97104  0.14677  Biso   1.000  C
  H57      1.0000 0.77763  0.95287  0.10207  Biso   1.000  H
  C137     1.0000 0.76682  0.95431  0.22677  Biso   1.000  C
  C138     1.0000 0.77069  0.98179  0.29227  Biso   1.000  C
  H58      1.0000 0.76303  0.97117  0.34807  Biso   1.000  H
  C139     1.0000 0.78579  0.02521  0.27657  Biso   1.000  C
  H59      1.0000 0.78803  0.04317  0.32207  Biso   1.000  H
  C140     1.0000 0.74767  0.90747  0.24357  Biso   1.000  C
  C141     1.0000 0.70859  0.88730  0.28987  Biso   1.000  C
  H60      1.0000 0.69613  0.90367  0.30577  Biso   1.000  H
  C142     1.0000 0.84453  0.93267  0.23217  Biso   1.000  C
  C143     1.0000 0.87813  0.95717  0.15977  Biso   1.000  C
  C144     1.0000 0.85683  0.90447  0.28527  Biso   1.000  C
  O25      1.0000 0.96330  0.52029  0.58030  Biso   1.000  O
  O26      1.0000 0.94823  0.51257  0.43910  Biso   1.000  O
  C145     1.0000 0.94283  0.52150  0.51280  Biso   1.000  C
  C146     1.0000 0.91109  0.53618  0.53050  Biso   1.000  C
  C147     1.0000 0.88625  0.53776  0.46210  Biso   1.000  C
  H61      1.0000 0.88820  0.52860  0.40700  Biso   1.000  H
  C148     1.0000 0.85819  0.55382  0.48010  Biso   1.000  C
  H62      1.0000 0.84190  0.55570  0.43540  Biso   1.000  H
  C149     1.0000 0.85415  0.56651  0.56010  Biso   1.000  C
  C150     1.0000 0.87776  0.56264  0.62560  Biso   1.000  C
  H63      1.0000 0.87480  0.57030  0.68140  Biso   1.000  H
  C151     1.0000 0.90608  0.54754  0.60990  Biso   1.000  C
  H64      1.0000 0.92180  0.54530  0.65540  Biso   1.000  H
  C152     1.0000 0.82646  0.58566  0.57690  Biso   1.000  C
  C153     1.0000 0.84537  0.62474  0.62320  Biso   1.000  C
  H65      1.0000 0.87420  0.63720  0.63910  Biso   1.000  H
  C154     1.0000 0.75480  0.48880  0.56550  Biso   1.000  C
  C155     1.0000 0.74570  0.45520  0.49310  Biso   1.000  C
  C156     1.0000 0.71430  0.47650  0.61860  Biso   1.000  C
  O27      1.0000 0.62997  0.85362  0.91363  Biso   1.000  O
  O28      1.0000 0.61490  0.84590  0.77243  Biso   1.000  O
  C157     1.0000 0.60950  0.85483  0.84613  Biso   1.000  C
  C158     1.0000 0.57776  0.86951  0.86383  Biso   1.000  C
  C159     1.0000 0.55292  0.87109  0.79543  Biso   1.000  C
  H66      1.0000 0.55487  0.86193  0.74033  Biso   1.000  H
  C160     1.0000 0.52486  0.88715  0.81343  Biso   1.000  C
  H67      1.0000 0.50857  0.88903  0.76873  Biso   1.000  H
  C161     1.0000 0.52082  0.89984  0.89343  Biso   1.000  C
  C162     1.0000 0.54443  0.89597  0.95893  Biso   1.000  C
  H68      1.0000 0.54147  0.90363  0.01473  Biso   1.000  H
  C163     1.0000 0.57275  0.88087  0.94323  Biso   1.000  C
  H69      1.0000 0.58847  0.87863  0.98873  Biso   1.000  H
  C164     1.0000 0.49313  0.91899  0.91023  Biso   1.000  C
  C165     1.0000 0.51204  0.95807  0.95653  Biso   1.000  C
  H70      1.0000 0.54087  0.97053  0.97243  Biso   1.000  H
  C166     1.0000 0.42147  0.82213  0.89883  Biso   1.000  C
  C167     1.0000 0.41237  0.78853  0.82643  Biso   1.000  C
  C168     1.0000 0.38097  0.80983  0.95193  Biso   1.000  C
  O29      1.0000 0.29663  0.18696  0.24697  Biso   1.000  O
  O30      1.0000 0.28156  0.17924  0.10577  Biso   1.000  O
  C169     1.0000 0.27616  0.18817  0.17947  Biso   1.000  C
  C170     1.0000 0.24442  0.20285  0.19717  Biso   1.000  C
  C171     1.0000 0.21958  0.20443  0.12877  Biso   1.000  C
  H71      1.0000 0.22153  0.19527  0.07367  Biso   1.000  H
  C172     1.0000 0.19152  0.22049  0.14677  Biso   1.000  C
  H72      1.0000 0.17523  0.22237  0.10207  Biso   1.000  H
  C173     1.0000 0.18748  0.23318  0.22677  Biso   1.000  C
  C174     1.0000 0.21109  0.22931  0.29227  Biso   1.000  C
  H73      1.0000 0.20813  0.23697  0.34807  Biso   1.000  H
  C175     1.0000 0.23941  0.21421  0.27657  Biso   1.000  C
  H74      1.0000 0.25513  0.21197  0.32207  Biso   1.000  H
  C176     1.0000 0.15979  0.25233  0.24357  Biso   1.000  C
  C177     1.0000 0.17870  0.29141  0.28987  Biso   1.000  C
  H75      1.0000 0.20753  0.30387  0.30577  Biso   1.000  H
  C178     1.0000 0.08813  0.15547  0.23217  Biso   1.000  C
  C179     1.0000 0.07903  0.12187  0.15977  Biso   1.000  C
  C180     1.0000 0.04763  0.14317  0.28527  Biso   1.000  C
  O31      1.0000 0.55699  0.03670  0.58030  Biso   1.000  O
  O32      1.0000 0.56434  0.05177  0.43910  Biso   1.000  O
  C181     1.0000 0.57867  0.05717  0.51280  Biso   1.000  C
  C182     1.0000 0.62509  0.08891  0.53050  Biso   1.000  C
  C183     1.0000 0.65151  0.11375  0.46210  Biso   1.000  C
  H76      1.0000 0.64040  0.11180  0.40700  Biso   1.000  H
  C184     1.0000 0.69563  0.14181  0.48010  Biso   1.000  C
  H77      1.0000 0.71380  0.15810  0.43540  Biso   1.000  H
  C185     1.0000 0.71236  0.14585  0.56010  Biso   1.000  C
  C186     1.0000 0.68488  0.12224  0.62560  Biso   1.000  C
  H78      1.0000 0.69550  0.12520  0.68140  Biso   1.000  H
  C187     1.0000 0.64146  0.09392  0.60990  Biso   1.000  C
  H79      1.0000 0.62350  0.07820  0.65540  Biso   1.000  H
  C188     1.0000 0.75920  0.17354  0.57690  Biso   1.000  C
  C189     1.0000 0.77937  0.15463  0.62320  Biso   1.000  C
  H80      1.0000 0.76300  0.12580  0.63910  Biso   1.000  H
  C190     1.0000 0.73400  0.24520  0.56550  Biso   1.000  C
  C191     1.0000 0.70950  0.25430  0.49310  Biso   1.000  C
  C192     1.0000 0.76220  0.28570  0.61860  Biso   1.000  C
  O33      1.0000 0.22366  0.37003  0.91363  Biso   1.000  O
  O34      1.0000 0.23101  0.38510  0.77243  Biso   1.000  O
  C193     1.0000 0.24534  0.39050  0.84613  Biso   1.000  C
  C194     1.0000 0.29176  0.42224  0.86383  Biso   1.000  C
  C195     1.0000 0.31818  0.44708  0.79543  Biso   1.000  C
  H81      1.0000 0.30707  0.44513  0.74033  Biso   1.000  H
  C196     1.0000 0.36230  0.47514  0.81343  Biso   1.000  C
  H82      1.0000 0.38047  0.49143  0.76873  Biso   1.000  H
  C197     1.0000 0.37903  0.47918  0.89343  Biso   1.000  C
  C198     1.0000 0.35155  0.45557  0.95893  Biso   1.000  C
  H83      1.0000 0.36217  0.45853  0.01473  Biso   1.000  H
  C199     1.0000 0.30813  0.42725  0.94323  Biso   1.000  C
  H84      1.0000 0.29017  0.41153  0.98873  Biso   1.000  H
  C200     1.0000 0.42587  0.50687  0.91023  Biso   1.000  C
  C201     1.0000 0.44604  0.48796  0.95653  Biso   1.000  C
  H85      1.0000 0.42967  0.45913  0.97243  Biso   1.000  H
  C202     1.0000 0.40067  0.57853  0.89883  Biso   1.000  C
  C203     1.0000 0.37617  0.58763  0.82643  Biso   1.000  C
  C204     1.0000 0.42887  0.61903  0.95193  Biso   1.000  C
  O35      1.0000 0.89032  0.70337  0.24697  Biso   1.000  O
  O36      1.0000 0.89767  0.71844  0.10577  Biso   1.000  O
  C205     1.0000 0.91200  0.72384  0.17947  Biso   1.000  C
  C206     1.0000 0.95842  0.75558  0.19717  Biso   1.000  C
  C207     1.0000 0.98484  0.78042  0.12877  Biso   1.000  C
  H86      1.0000 0.97373  0.77847  0.07367  Biso   1.000  H
  C208     1.0000 0.02896  0.80848  0.14677  Biso   1.000  C
  H87      1.0000 0.04713  0.82477  0.10207  Biso   1.000  H
  C209     1.0000 0.04569  0.81252  0.22677  Biso   1.000  C
  C210     1.0000 0.01821  0.78891  0.29227  Biso   1.000  C
  H88      1.0000 0.02883  0.79187  0.34807  Biso   1.000  H
  C211     1.0000 0.97479  0.76059  0.27657  Biso   1.000  C
  H89      1.0000 0.95683  0.74487  0.32207  Biso   1.000  H
  C212     1.0000 0.09253  0.84021  0.24357  Biso   1.000  C
  C213     1.0000 0.11270  0.82130  0.28987  Biso   1.000  C
  H90      1.0000 0.09633  0.79247  0.30577  Biso   1.000  H
  C214     1.0000 0.06733  0.91187  0.23217  Biso   1.000  C
  C215     1.0000 0.04283  0.92097  0.15977  Biso   1.000  C
  C216     1.0000 0.09553  0.95237  0.28527  Biso   1.000  C
  O37      1.0000 0.55699  0.52029  0.58030  Biso   1.000  O
  O38      1.0000 0.56434  0.51257  0.43910  Biso   1.000  O
  C217     1.0000 0.57867  0.52150  0.51280  Biso   1.000  C
  C218     1.0000 0.62509  0.53618  0.53050  Biso   1.000  C
  C219     1.0000 0.65151  0.53776  0.46210  Biso   1.000  C
  H91      1.0000 0.64040  0.52860  0.40700  Biso   1.000  H
  C220     1.0000 0.69563  0.55382  0.48010  Biso   1.000  C
  H92      1.0000 0.71380  0.55570  0.43540  Biso   1.000  H
  C221     1.0000 0.71236  0.56651  0.56010  Biso   1.000  C
  C222     1.0000 0.68488  0.56264  0.62560  Biso   1.000  C
  H93      1.0000 0.69550  0.57030  0.68140  Biso   1.000  H
  C223     1.0000 0.64146  0.54754  0.60990  Biso   1.000  C
  H94      1.0000 0.62350  0.54530  0.65540  Biso   1.000  H
  C224     1.0000 0.75920  0.58566  0.57690  Biso   1.000  C
  C225     1.0000 0.77937  0.62474  0.62320  Biso   1.000  C
  H95      1.0000 0.76300  0.63720  0.63910  Biso   1.000  H
  C226     1.0000 0.73400  0.48880  0.56550  Biso   1.000  C
  C227     1.0000 0.70950  0.45520  0.49310  Biso   1.000  C
  C228     1.0000 0.76220  0.47650  0.61860  Biso   1.000  C
  O39      1.0000 0.22366  0.85362  0.91363  Biso   1.000  O
  O40      1.0000 0.23101  0.84590  0.77243  Biso   1.000  O
  C229     1.0000 0.24534  0.85483  0.84613  Biso   1.000  C
  C230     1.0000 0.29176  0.86951  0.86383  Biso   1.000  C
  C231     1.0000 0.31818  0.87109  0.79543  Biso   1.000  C
  H96      1.0000 0.30707  0.86193  0.74033  Biso   1.000  H
  C232     1.0000 0.36230  0.88715  0.81343  Biso   1.000  C
  H97      1.0000 0.38047  0.88903  0.76873  Biso   1.000  H
  C233     1.0000 0.37903  0.89984  0.89343  Biso   1.000  C
  C234     1.0000 0.35155  0.89597  0.95893  Biso   1.000  C
  H98      1.0000 0.36217  0.90363  0.01473  Biso   1.000  H
  C235     1.0000 0.30813  0.88087  0.94323  Biso   1.000  C
  H99      1.0000 0.29017  0.87863  0.98873  Biso   1.000  H
  C236     1.0000 0.42587  0.91899  0.91023  Biso   1.000  C
  C237     1.0000 0.44604  0.95807  0.95653  Biso   1.000  C
  H100     1.0000 0.42967  0.97053  0.97243  Biso   1.000  H
  C238     1.0000 0.40067  0.82213  0.89883  Biso   1.000  C
  C239     1.0000 0.37617  0.78853  0.82643  Biso   1.000  C
  C240     1.0000 0.42887  0.80983  0.95193  Biso   1.000  C
  O41      1.0000 0.89032  0.18696  0.24697  Biso   1.000  O
  O42      1.0000 0.89767  0.17924  0.10577  Biso   1.000  O
  C241     1.0000 0.91200  0.18817  0.17947  Biso   1.000  C
  C242     1.0000 0.95842  0.20285  0.19717  Biso   1.000  C
  C243     1.0000 0.98484  0.20443  0.12877  Biso   1.000  C
  H101     1.0000 0.97373  0.19527  0.07367  Biso   1.000  H
  C244     1.0000 0.02896  0.22049  0.14677  Biso   1.000  C
  H102     1.0000 0.04713  0.22237  0.10207  Biso   1.000  H
  C245     1.0000 0.04569  0.23318  0.22677  Biso   1.000  C
  C246     1.0000 0.01821  0.22931  0.29227  Biso   1.000  C
  H103     1.0000 0.02883  0.23697  0.34807  Biso   1.000  H
  C247     1.0000 0.97479  0.21421  0.27657  Biso   1.000  C
  H104     1.0000 0.95683  0.21197  0.32207  Biso   1.000  H
  C248     1.0000 0.09253  0.25233  0.24357  Biso   1.000  C
  C249     1.0000 0.11270  0.29141  0.28987  Biso   1.000  C
  H105     1.0000 0.09633  0.30387  0.30577  Biso   1.000  H
  C250     1.0000 0.06733  0.15547  0.23217  Biso   1.000  C
  C251     1.0000 0.04283  0.12187  0.15977  Biso   1.000  C
  C252     1.0000 0.09553  0.14317  0.28527  Biso   1.000  C
  O43      1.0000 0.47971  0.03670  0.58030  Biso   1.000  O
  O44      1.0000 0.48743  0.05177  0.43910  Biso   1.000  O
  C253     1.0000 0.47850  0.05717  0.51280  Biso   1.000  C
  C254     1.0000 0.46382  0.08891  0.53050  Biso   1.000  C
  C255     1.0000 0.46224  0.11375  0.46210  Biso   1.000  C
  H106     1.0000 0.47140  0.11180  0.40700  Biso   1.000  H
  C256     1.0000 0.44618  0.14181  0.48010  Biso   1.000  C
  H107     1.0000 0.44430  0.15810  0.43540  Biso   1.000  H
  C257     1.0000 0.43349  0.14585  0.56010  Biso   1.000  C
  C258     1.0000 0.43736  0.12224  0.62560  Biso   1.000  C
  H108     1.0000 0.42970  0.12520  0.68140  Biso   1.000  H
  C259     1.0000 0.45246  0.09392  0.60990  Biso   1.000  C
  H109     1.0000 0.45470  0.07820  0.65540  Biso   1.000  H
  C260     1.0000 0.41434  0.17354  0.57690  Biso   1.000  C
  C261     1.0000 0.37526  0.15463  0.62320  Biso   1.000  C
  H110     1.0000 0.36280  0.12580  0.63910  Biso   1.000  H
  C262     1.0000 0.51120  0.24520  0.56550  Biso   1.000  C
  C263     1.0000 0.54480  0.25430  0.49310  Biso   1.000  C
  C264     1.0000 0.52350  0.28570  0.61860  Biso   1.000  C
  O45      1.0000 0.14638  0.37003  0.91363  Biso   1.000  O
  O46      1.0000 0.15410  0.38510  0.77243  Biso   1.000  O
  C265     1.0000 0.14517  0.39050  0.84613  Biso   1.000  C
  C266     1.0000 0.13049  0.42224  0.86383  Biso   1.000  C
  C267     1.0000 0.12891  0.44708  0.79543  Biso   1.000  C
  H111     1.0000 0.13807  0.44513  0.74033  Biso   1.000  H
  C268     1.0000 0.11285  0.47514  0.81343  Biso   1.000  C
  H112     1.0000 0.11097  0.49143  0.76873  Biso   1.000  H
  C269     1.0000 0.10016  0.47918  0.89343  Biso   1.000  C
  C270     1.0000 0.10403  0.45557  0.95893  Biso   1.000  C
  H113     1.0000 0.09637  0.45853  0.01473  Biso   1.000  H
  C271     1.0000 0.11913  0.42725  0.94323  Biso   1.000  C
  H114     1.0000 0.12137  0.41153  0.98873  Biso   1.000  H
  C272     1.0000 0.08101  0.50687  0.91023  Biso   1.000  C
  C273     1.0000 0.04193  0.48796  0.95653  Biso   1.000  C
  H115     1.0000 0.02947  0.45913  0.97243  Biso   1.000  H
  C274     1.0000 0.17787  0.57853  0.89883  Biso   1.000  C
  C275     1.0000 0.21147  0.58763  0.82643  Biso   1.000  C
  C276     1.0000 0.19017  0.61903  0.95193  Biso   1.000  C
  O47      1.0000 0.81304  0.70337  0.24697  Biso   1.000  O
  O48      1.0000 0.82076  0.71844  0.10577  Biso   1.000  O
  C277     1.0000 0.81183  0.72384  0.17947  Biso   1.000  C
  C278     1.0000 0.79715  0.75558  0.19717  Biso   1.000  C
  C279     1.0000 0.79557  0.78042  0.12877  Biso   1.000  C
  H116     1.0000 0.80473  0.77847  0.07367  Biso   1.000  H
  C280     1.0000 0.77951  0.80848  0.14677  Biso   1.000  C
  H117     1.0000 0.77763  0.82477  0.10207  Biso   1.000  H
  C281     1.0000 0.76682  0.81252  0.22677  Biso   1.000  C
  C282     1.0000 0.77069  0.78891  0.29227  Biso   1.000  C
  H118     1.0000 0.76303  0.79187  0.34807  Biso   1.000  H
  C283     1.0000 0.78579  0.76059  0.27657  Biso   1.000  C
  H119     1.0000 0.78803  0.74487  0.32207  Biso   1.000  H
  C284     1.0000 0.74767  0.84021  0.24357  Biso   1.000  C
  C285     1.0000 0.70859  0.82130  0.28987  Biso   1.000  C
  H120     1.0000 0.69613  0.79247  0.30577  Biso   1.000  H
  C286     1.0000 0.84453  0.91187  0.23217  Biso   1.000  C
  C287     1.0000 0.87813  0.92097  0.15977  Biso   1.000  C
  C288     1.0000 0.85683  0.95237  0.28527  Biso   1.000  C
  O49      1.0000 0.96330  0.44301  0.58030  Biso   1.000  O
  O50      1.0000 0.94823  0.43566  0.43910  Biso   1.000  O
  C289     1.0000 0.94283  0.42133  0.51280  Biso   1.000  C
  C290     1.0000 0.91109  0.37491  0.53050  Biso   1.000  C
  C291     1.0000 0.88625  0.34849  0.46210  Biso   1.000  C
  H121     1.0000 0.88820  0.35960  0.40700  Biso   1.000  H
  C292     1.0000 0.85819  0.30437  0.48010  Biso   1.000  C
  H122     1.0000 0.84190  0.28620  0.43540  Biso   1.000  H
  C293     1.0000 0.85415  0.28764  0.56010  Biso   1.000  C
  C294     1.0000 0.87776  0.31512  0.62560  Biso   1.000  C
  H123     1.0000 0.87480  0.30450  0.68140  Biso   1.000  H
  C295     1.0000 0.90608  0.35854  0.60990  Biso   1.000  C
  H124     1.0000 0.92180  0.37650  0.65540  Biso   1.000  H
  C296     1.0000 0.82646  0.24080  0.57690  Biso   1.000  C
  C297     1.0000 0.84537  0.22063  0.62320  Biso   1.000  C
  H125     1.0000 0.87420  0.23700  0.63910  Biso   1.000  H
  C298     1.0000 0.75480  0.26600  0.56550  Biso   1.000  C
  C299     1.0000 0.74570  0.29050  0.49310  Biso   1.000  C
  C300     1.0000 0.71430  0.23780  0.61860  Biso   1.000  C
  O51      1.0000 0.62997  0.77634  0.91363  Biso   1.000  O
  O52      1.0000 0.61490  0.76899  0.77243  Biso   1.000  O
  C301     1.0000 0.60950  0.75466  0.84613  Biso   1.000  C
  C302     1.0000 0.57776  0.70824  0.86383  Biso   1.000  C
  C303     1.0000 0.55292  0.68182  0.79543  Biso   1.000  C
  H126     1.0000 0.55487  0.69293  0.74033  Biso   1.000  H
  C304     1.0000 0.52486  0.63770  0.81343  Biso   1.000  C
  H127     1.0000 0.50857  0.61953  0.76873  Biso   1.000  H
  C305     1.0000 0.52082  0.62097  0.89343  Biso   1.000  C
  C306     1.0000 0.54443  0.64845  0.95893  Biso   1.000  C
  H128     1.0000 0.54147  0.63783  0.01473  Biso   1.000  H
  C307     1.0000 0.57275  0.69187  0.94323  Biso   1.000  C
  H129     1.0000 0.58847  0.70983  0.98873  Biso   1.000  H
  C308     1.0000 0.49313  0.57413  0.91023  Biso   1.000  C
  C309     1.0000 0.51204  0.55396  0.95653  Biso   1.000  C
  H130     1.0000 0.54087  0.57033  0.97243  Biso   1.000  H
  C310     1.0000 0.42147  0.59933  0.89883  Biso   1.000  C
  C311     1.0000 0.41237  0.62383  0.82643  Biso   1.000  C
  C312     1.0000 0.38097  0.57113  0.95193  Biso   1.000  C
  O53      1.0000 0.29663  0.10968  0.24697  Biso   1.000  O
  O54      1.0000 0.28156  0.10233  0.10577  Biso   1.000  O
  C313     1.0000 0.27616  0.08800  0.17947  Biso   1.000  C
  C314     1.0000 0.24442  0.04158  0.19717  Biso   1.000  C
  C315     1.0000 0.21958  0.01516  0.12877  Biso   1.000  C
  H131     1.0000 0.22153  0.02627  0.07367  Biso   1.000  H
  C316     1.0000 0.19152  0.97104  0.14677  Biso   1.000  C
  H132     1.0000 0.17523  0.95287  0.10207  Biso   1.000  H
  C317     1.0000 0.18748  0.95431  0.22677  Biso   1.000  C
  C318     1.0000 0.21109  0.98179  0.29227  Biso   1.000  C
  H133     1.0000 0.20813  0.97117  0.34807  Biso   1.000  H
  C319     1.0000 0.23941  0.02521  0.27657  Biso   1.000  C
  H134     1.0000 0.25513  0.04317  0.32207  Biso   1.000  H
  C320     1.0000 0.15979  0.90747  0.24357  Biso   1.000  C
  C321     1.0000 0.17870  0.88730  0.28987  Biso   1.000  C
  H135     1.0000 0.20753  0.90367  0.30577  Biso   1.000  H
  C322     1.0000 0.08813  0.93267  0.23217  Biso   1.000  C
  C323     1.0000 0.07903  0.95717  0.15977  Biso   1.000  C
  C324     1.0000 0.04763  0.90447  0.28527  Biso   1.000  C
  O55      1.0000 0.52029  0.55699  0.41970  Biso   1.000  O
  O56      1.0000 0.51257  0.56434  0.56090  Biso   1.000  O
  C325     1.0000 0.52150  0.57867  0.48720  Biso   1.000  C
  C326     1.0000 0.53618  0.62509  0.46950  Biso   1.000  C
  C327     1.0000 0.53776  0.65151  0.53790  Biso   1.000  C
  H136     1.0000 0.52860  0.64040  0.59300  Biso   1.000  H
  C328     1.0000 0.55382  0.69563  0.51990  Biso   1.000  C
  H137     1.0000 0.55570  0.71380  0.56460  Biso   1.000  H
  C329     1.0000 0.56651  0.71236  0.43990  Biso   1.000  C
  C330     1.0000 0.56264  0.68488  0.37440  Biso   1.000  C
  H138     1.0000 0.57030  0.69550  0.31860  Biso   1.000  H
  C331     1.0000 0.54754  0.64146  0.39010  Biso   1.000  C
  H139     1.0000 0.54530  0.62350  0.34460  Biso   1.000  H
  C332     1.0000 0.58566  0.75920  0.42310  Biso   1.000  C
  C333     1.0000 0.62474  0.77937  0.37680  Biso   1.000  C
  H140     1.0000 0.63720  0.76300  0.36090  Biso   1.000  H
  C334     1.0000 0.48880  0.73400  0.43450  Biso   1.000  C
  C335     1.0000 0.45520  0.70950  0.50690  Biso   1.000  C
  C336     1.0000 0.47650  0.76220  0.38140  Biso   1.000  C
  O57      1.0000 0.18696  0.89032  0.75303  Biso   1.000  O
  O58      1.0000 0.17924  0.89767  0.89423  Biso   1.000  O
  C337     1.0000 0.18817  0.91200  0.82053  Biso   1.000  C
  C338     1.0000 0.20285  0.95842  0.80283  Biso   1.000  C
  C339     1.0000 0.20443  0.98484  0.87123  Biso   1.000  C
  H141     1.0000 0.19527  0.97373  0.92633  Biso   1.000  H
  C340     1.0000 0.22049  0.02896  0.85323  Biso   1.000  C
  H142     1.0000 0.22237  0.04713  0.89793  Biso   1.000  H
  C341     1.0000 0.23318  0.04569  0.77323  Biso   1.000  C
  C342     1.0000 0.22931  0.01821  0.70773  Biso   1.000  C
  H143     1.0000 0.23697  0.02883  0.65193  Biso   1.000  H
  C343     1.0000 0.21421  0.97479  0.72343  Biso   1.000  C
  H144     1.0000 0.21197  0.95683  0.67793  Biso   1.000  H
  C344     1.0000 0.25233  0.09253  0.75643  Biso   1.000  C
  C345     1.0000 0.29141  0.11270  0.71013  Biso   1.000  C
  H145     1.0000 0.30387  0.09633  0.69423  Biso   1.000  H
  C346     1.0000 0.15547  0.06733  0.76783  Biso   1.000  C
  C347     1.0000 0.12187  0.04283  0.84023  Biso   1.000  C
  C348     1.0000 0.14317  0.09553  0.71473  Biso   1.000  C
  O59      1.0000 0.85362  0.22366  0.08637  Biso   1.000  O
  O60      1.0000 0.84590  0.23101  0.22757  Biso   1.000  O
  C349     1.0000 0.85483  0.24534  0.15387  Biso   1.000  C
  C350     1.0000 0.86951  0.29176  0.13617  Biso   1.000  C
  C351     1.0000 0.87109  0.31818  0.20457  Biso   1.000  C
  H146     1.0000 0.86193  0.30707  0.25967  Biso   1.000  H
  C352     1.0000 0.88715  0.36230  0.18657  Biso   1.000  C
  H147     1.0000 0.88903  0.38047  0.23127  Biso   1.000  H
  C353     1.0000 0.89984  0.37903  0.10657  Biso   1.000  C
  C354     1.0000 0.89597  0.35155  0.04107  Biso   1.000  C
  H148     1.0000 0.90363  0.36217  0.98527  Biso   1.000  H
  C355     1.0000 0.88087  0.30813  0.05677  Biso   1.000  C
  H149     1.0000 0.87863  0.29017  0.01127  Biso   1.000  H
  C356     1.0000 0.91899  0.42587  0.08977  Biso   1.000  C
  C357     1.0000 0.95807  0.44604  0.04347  Biso   1.000  C
  H150     1.0000 0.97053  0.42967  0.02757  Biso   1.000  H
  C358     1.0000 0.82213  0.40067  0.10117  Biso   1.000  C
  C359     1.0000 0.78853  0.37617  0.17357  Biso   1.000  C
  C360     1.0000 0.80983  0.42887  0.04807  Biso   1.000  C
  O61      1.0000 0.03670  0.47971  0.41970  Biso   1.000  O
  O62      1.0000 0.05177  0.48743  0.56090  Biso   1.000  O
  C361     1.0000 0.05717  0.47850  0.48720  Biso   1.000  C
  C362     1.0000 0.08891  0.46382  0.46950  Biso   1.000  C
  C363     1.0000 0.11375  0.46224  0.53790  Biso   1.000  C
  H151     1.0000 0.11180  0.47140  0.59300  Biso   1.000  H
  C364     1.0000 0.14181  0.44618  0.51990  Biso   1.000  C
  H152     1.0000 0.15810  0.44430  0.56460  Biso   1.000  H
  C365     1.0000 0.14585  0.43349  0.43990  Biso   1.000  C
  C366     1.0000 0.12224  0.43736  0.37440  Biso   1.000  C
  H153     1.0000 0.12520  0.42970  0.31860  Biso   1.000  H
  C367     1.0000 0.09392  0.45246  0.39010  Biso   1.000  C
  H154     1.0000 0.07820  0.45470  0.34460  Biso   1.000  H
  C368     1.0000 0.17354  0.41434  0.42310  Biso   1.000  C
  C369     1.0000 0.15463  0.37526  0.37680  Biso   1.000  C
  H155     1.0000 0.12580  0.36280  0.36090  Biso   1.000  H
  C370     1.0000 0.24520  0.51120  0.43450  Biso   1.000  C
  C371     1.0000 0.25430  0.54480  0.50690  Biso   1.000  C
  C372     1.0000 0.28570  0.52350  0.38140  Biso   1.000  C
  O63      1.0000 0.70337  0.81304  0.75303  Biso   1.000  O
  O64      1.0000 0.71844  0.82076  0.89423  Biso   1.000  O
  C373     1.0000 0.72384  0.81183  0.82053  Biso   1.000  C
  C374     1.0000 0.75558  0.79715  0.80283  Biso   1.000  C
  C375     1.0000 0.78042  0.79557  0.87123  Biso   1.000  C
  H156     1.0000 0.77847  0.80473  0.92633  Biso   1.000  H
  C376     1.0000 0.80848  0.77951  0.85323  Biso   1.000  C
  H157     1.0000 0.82477  0.77763  0.89793  Biso   1.000  H
  C377     1.0000 0.81252  0.76682  0.77323  Biso   1.000  C
  C378     1.0000 0.78891  0.77069  0.70773  Biso   1.000  C
  H158     1.0000 0.79187  0.76303  0.65193  Biso   1.000  H
  C379     1.0000 0.76059  0.78579  0.72343  Biso   1.000  C
  H159     1.0000 0.74487  0.78803  0.67793  Biso   1.000  H
  C380     1.0000 0.84021  0.74767  0.75643  Biso   1.000  C
  C381     1.0000 0.82130  0.70859  0.71013  Biso   1.000  C
  H160     1.0000 0.79247  0.69613  0.69423  Biso   1.000  H
  C382     1.0000 0.91187  0.84453  0.76783  Biso   1.000  C
  C383     1.0000 0.92097  0.87813  0.84023  Biso   1.000  C
  C384     1.0000 0.95237  0.85683  0.71473  Biso   1.000  C
  O65      1.0000 0.37003  0.14638  0.08637  Biso   1.000  O
  O66      1.0000 0.38510  0.15410  0.22757  Biso   1.000  O
  C385     1.0000 0.39050  0.14517  0.15387  Biso   1.000  C
  C386     1.0000 0.42224  0.13049  0.13617  Biso   1.000  C
  C387     1.0000 0.44708  0.12891  0.20457  Biso   1.000  C
  H161     1.0000 0.44513  0.13807  0.25967  Biso   1.000  H
  C388     1.0000 0.47514  0.11285  0.18657  Biso   1.000  C
  H162     1.0000 0.49143  0.11097  0.23127  Biso   1.000  H
  C389     1.0000 0.47918  0.10016  0.10657  Biso   1.000  C
  C390     1.0000 0.45557  0.10403  0.04107  Biso   1.000  C
  H163     1.0000 0.45853  0.09637  0.98527  Biso   1.000  H
  C391     1.0000 0.42725  0.11913  0.05677  Biso   1.000  C
  H164     1.0000 0.41153  0.12137  0.01127  Biso   1.000  H
  C392     1.0000 0.50687  0.08101  0.08977  Biso   1.000  C
  C393     1.0000 0.48796  0.04193  0.04347  Biso   1.000  C
  H165     1.0000 0.45913  0.02947  0.02757  Biso   1.000  H
  C394     1.0000 0.57853  0.17787  0.10117  Biso   1.000  C
  C395     1.0000 0.58763  0.21147  0.17357  Biso   1.000  C
  C396     1.0000 0.61903  0.19017  0.04807  Biso   1.000  C
  O67      1.0000 0.44301  0.96330  0.41970  Biso   1.000  O
  O68      1.0000 0.43566  0.94823  0.56090  Biso   1.000  O
  C397     1.0000 0.42133  0.94283  0.48720  Biso   1.000  C
  C398     1.0000 0.37491  0.91109  0.46950  Biso   1.000  C
  C399     1.0000 0.34849  0.88625  0.53790  Biso   1.000  C
  H166     1.0000 0.35960  0.88820  0.59300  Biso   1.000  H
  C400     1.0000 0.30437  0.85819  0.51990  Biso   1.000  C
  H167     1.0000 0.28620  0.84190  0.56460  Biso   1.000  H
  C401     1.0000 0.28764  0.85415  0.43990  Biso   1.000  C
  C402     1.0000 0.31512  0.87776  0.37440  Biso   1.000  C
  H168     1.0000 0.30450  0.87480  0.31860  Biso   1.000  H
  C403     1.0000 0.35854  0.90608  0.39010  Biso   1.000  C
  H169     1.0000 0.37650  0.92180  0.34460  Biso   1.000  H
  C404     1.0000 0.24080  0.82646  0.42310  Biso   1.000  C
  C405     1.0000 0.22063  0.84537  0.37680  Biso   1.000  C
  H170     1.0000 0.23700  0.87420  0.36090  Biso   1.000  H
  C406     1.0000 0.26600  0.75480  0.43450  Biso   1.000  C
  C407     1.0000 0.29050  0.74570  0.50690  Biso   1.000  C
  C408     1.0000 0.23780  0.71430  0.38140  Biso   1.000  C
  O69      1.0000 0.10968  0.29663  0.75303  Biso   1.000  O
  O70      1.0000 0.10233  0.28156  0.89423  Biso   1.000  O
  C409     1.0000 0.08800  0.27616  0.82053  Biso   1.000  C
  C410     1.0000 0.04158  0.24442  0.80283  Biso   1.000  C
  C411     1.0000 0.01516  0.21958  0.87123  Biso   1.000  C
  H171     1.0000 0.02627  0.22153  0.92633  Biso   1.000  H
  C412     1.0000 0.97104  0.19152  0.85323  Biso   1.000  C
  H172     1.0000 0.95287  0.17523  0.89793  Biso   1.000  H
  C413     1.0000 0.95431  0.18748  0.77323  Biso   1.000  C
  C414     1.0000 0.98179  0.21109  0.70773  Biso   1.000  C
  H173     1.0000 0.97117  0.20813  0.65193  Biso   1.000  H
  C415     1.0000 0.02521  0.23941  0.72343  Biso   1.000  C
  H174     1.0000 0.04317  0.25513  0.67793  Biso   1.000  H
  C416     1.0000 0.90747  0.15979  0.75643  Biso   1.000  C
  C417     1.0000 0.88730  0.17870  0.71013  Biso   1.000  C
  H175     1.0000 0.90367  0.20753  0.69423  Biso   1.000  H
  C418     1.0000 0.93267  0.08813  0.76783  Biso   1.000  C
  C419     1.0000 0.95717  0.07903  0.84023  Biso   1.000  C
  C420     1.0000 0.90447  0.04763  0.71473  Biso   1.000  C
  O71      1.0000 0.77634  0.62997  0.08637  Biso   1.000  O
  O72      1.0000 0.76899  0.61490  0.22757  Biso   1.000  O
  C421     1.0000 0.75466  0.60950  0.15387  Biso   1.000  C
  C422     1.0000 0.70824  0.57776  0.13617  Biso   1.000  C
  C423     1.0000 0.68182  0.55292  0.20457  Biso   1.000  C
  H176     1.0000 0.69293  0.55487  0.25967  Biso   1.000  H
  C424     1.0000 0.63770  0.52486  0.18657  Biso   1.000  C
  H177     1.0000 0.61953  0.50857  0.23127  Biso   1.000  H
  C425     1.0000 0.62097  0.52082  0.10657  Biso   1.000  C
  C426     1.0000 0.64845  0.54443  0.04107  Biso   1.000  C
  H178     1.0000 0.63783  0.54147  0.98527  Biso   1.000  H
  C427     1.0000 0.69187  0.57275  0.05677  Biso   1.000  C
  H179     1.0000 0.70983  0.58847  0.01127  Biso   1.000  H
  C428     1.0000 0.57413  0.49313  0.08977  Biso   1.000  C
  C429     1.0000 0.55396  0.51204  0.04347  Biso   1.000  C
  H180     1.0000 0.57033  0.54087  0.02757  Biso   1.000  H
  C430     1.0000 0.59933  0.42147  0.10117  Biso   1.000  C
  C431     1.0000 0.62383  0.41237  0.17357  Biso   1.000  C
  C432     1.0000 0.57113  0.38097  0.04807  Biso   1.000  C
  Cu1      1.0000 0.49575  0.50425  0.58334  Biso   1.000  Cu
  Cu2      1.0000 0.16242  0.83758  0.91667  Biso   1.000  Cu
  Cu3      1.0000 0.82908  0.17092  0.25001  Biso   1.000  Cu
  Cu4      1.0000 0.49575  0.99150  0.58334  Biso   1.000  Cu
  Cu5      1.0000 0.16242  0.32483  0.91667  Biso   1.000  Cu
  Cu6      1.0000 0.82908  0.65817  0.25001  Biso   1.000  Cu
  Cu7      1.0000 0.00850  0.50425  0.58334  Biso   1.000  Cu
  Cu8      1.0000 0.67517  0.83758  0.91667  Biso   1.000  Cu
  Cu9      1.0000 0.34183  0.17092  0.25001  Biso   1.000  Cu
  Cu10     1.0000 0.50425  0.49575  0.41666  Biso   1.000  Cu
  Cu11     1.0000 0.17092  0.82908  0.74999  Biso   1.000  Cu
  Cu12     1.0000 0.83758  0.16242  0.08333  Biso   1.000  Cu
  Cu13     1.0000 0.99150  0.49575  0.41666  Biso   1.000  Cu
  Cu14     1.0000 0.65817  0.82908  0.74999  Biso   1.000  Cu
  Cu15     1.0000 0.32483  0.16242  0.08333  Biso   1.000  Cu
  Cu16     1.0000 0.50425  0.00850  0.41666  Biso   1.000  Cu
  Cu17     1.0000 0.17092  0.34183  0.74999  Biso   1.000  Cu
  Cu18     1.0000 0.83758  0.67517  0.08333  Biso   1.000  Cu
  O73      1.0000 0.23664  0.47328  0.48620  Biso   1.000  O
  C433     1.0000 0.17730  0.35461  0.35390  Biso   1.000  C
  C434     1.0000 0.21682  0.43365  0.44390  Biso   1.000  C
  O74      1.0000 0.90331  0.80661  0.81953  Biso   1.000  O
  C435     1.0000 0.84397  0.68794  0.68723  Biso   1.000  C
  C436     1.0000 0.88349  0.76698  0.77723  Biso   1.000  C
  O75      1.0000 0.56997  0.13995  0.15287  Biso   1.000  O
  C437     1.0000 0.51064  0.02128  0.02057  Biso   1.000  C
  C438     1.0000 0.55016  0.10032  0.11057  Biso   1.000  C
  O76      1.0000 0.52672  0.76336  0.48620  Biso   1.000  O
  C439     1.0000 0.64539  0.82270  0.35390  Biso   1.000  C
  C440     1.0000 0.56635  0.78318  0.44390  Biso   1.000  C
  O77      1.0000 0.19339  0.09669  0.81953  Biso   1.000  O
  C441     1.0000 0.31206  0.15603  0.68723  Biso   1.000  C
  C442     1.0000 0.23302  0.11651  0.77723  Biso   1.000  C
  O78      1.0000 0.86005  0.43003  0.15287  Biso   1.000  O
  C443     1.0000 0.97872  0.48936  0.02057  Biso   1.000  C
  C444     1.0000 0.89968  0.44984  0.11057  Biso   1.000  C
  O79      1.0000 0.23664  0.76336  0.48620  Biso   1.000  O
  C445     1.0000 0.17730  0.82270  0.35390  Biso   1.000  C
  C446     1.0000 0.21682  0.78318  0.44390  Biso   1.000  C
  O80      1.0000 0.90331  0.09669  0.81953  Biso   1.000  O
  C447     1.0000 0.84397  0.15603  0.68723  Biso   1.000  C
  C448     1.0000 0.88349  0.11651  0.77723  Biso   1.000  C
  O81      1.0000 0.56997  0.43003  0.15287  Biso   1.000  O
  C449     1.0000 0.51064  0.48936  0.02057  Biso   1.000  C
  C450     1.0000 0.55016  0.44984  0.11057  Biso   1.000  C
  O82      1.0000 0.47328  0.23664  0.51380  Biso   1.000  O
  C451     1.0000 0.35461  0.17730  0.64610  Biso   1.000  C
  C452     1.0000 0.43365  0.21682  0.55610  Biso   1.000  C
  O83      1.0000 0.13995  0.56997  0.84713  Biso   1.000  O
  C453     1.0000 0.02128  0.51064  0.97943  Biso   1.000  C
  C454     1.0000 0.10032  0.55016  0.88943  Biso   1.000  C
  O84      1.0000 0.80661  0.90331  0.18047  Biso   1.000  O
  C455     1.0000 0.68794  0.84397  0.31277  Biso   1.000  C
  C456     1.0000 0.76698  0.88349  0.22277  Biso   1.000  C
  O85      1.0000 0.76336  0.52672  0.51380  Biso   1.000  O
  C457     1.0000 0.82270  0.64539  0.64610  Biso   1.000  C
  C458     1.0000 0.78318  0.56635  0.55610  Biso   1.000  C
  O86      1.0000 0.43003  0.86005  0.84713  Biso   1.000  O
  C459     1.0000 0.48936  0.97872  0.97943  Biso   1.000  C
  C460     1.0000 0.44984  0.89968  0.88943  Biso   1.000  C
  O87      1.0000 0.09669  0.19339  0.18047  Biso   1.000  O
  C461     1.0000 0.15603  0.31206  0.31277  Biso   1.000  C
  C462     1.0000 0.11651  0.23302  0.22277  Biso   1.000  C
  O88      1.0000 0.76336  0.23664  0.51380  Biso   1.000  O
  C463     1.0000 0.82270  0.17730  0.64610  Biso   1.000  C
  C464     1.0000 0.78318  0.21682  0.55610  Biso   1.000  C
  O89      1.0000 0.43003  0.56997  0.84713  Biso   1.000  O
  C465     1.0000 0.48936  0.51064  0.97943  Biso   1.000  C
  C466     1.0000 0.44984  0.55016  0.88943  Biso   1.000  C
  O90      1.0000 0.09669  0.90331  0.18047  Biso   1.000  O
  C467     1.0000 0.15603  0.84397  0.31277  Biso   1.000  C
  C468     1.0000 0.11651  0.88349  0.22277  Biso   1.000  C
