data_image0
_cell_length_a       35.7099
_cell_length_b       35.7099
_cell_length_c       16.69
_cell_angle_alpha    90
_cell_angle_beta     90
_cell_angle_gamma    120

_symmetry_space_group_name_H-M    "P 1"
_symmetry_int_tables_number       1

loop_
  _symmetry_equiv_pos_as_xyz
  'x, y, z'

loop_
  _atom_site_label
  _atom_site_occupancy
  _atom_site_fract_x
  _atom_site_fract_y
  _atom_site_fract_z
  _atom_site_thermal_displace_type
  _atom_site_B_iso_or_equiv
  _atom_site_type_symbol
  O1       1.0000 0.88858  0.18786  0.25120  Biso   1.000  O
  O2       1.0000 0.89834  0.17784  0.12100  Biso   1.000  O
  C1       1.0000 0.91097  0.18847  0.19270  Biso   1.000  C
  C2       1.0000 0.95765  0.20175  0.21080  Biso   1.000  C
  C3       1.0000 0.98516  0.20470  0.14930  Biso   1.000  C
  H1       1.0000 0.97490  0.19770  0.09710  Biso   1.000  H
  C4       1.0000 0.02872  0.21830  0.16670  Biso   1.000  C
  H2       1.0000 0.04700  0.21850  0.12670  Biso   1.000  H
  C5       1.0000 0.04415  0.23121  0.24310  Biso   1.000  C
  C6       1.0000 0.01676  0.22920  0.30120  Biso   1.000  C
  H3       1.0000 0.02750  0.23820  0.35270  Biso   1.000  H
  C7       1.0000 0.97325  0.21412  0.28660  Biso   1.000  C
  H4       1.0000 0.95500  0.21250  0.32790  Biso   1.000  H
  C8       1.0000 0.09145  0.25050  0.25970  Biso   1.000  C
  C9       1.0000 0.11186  0.29070  0.29610  Biso   1.000  C
  H5       1.0000 0.09630  0.30470  0.30570  Biso   1.000  H
  C10      1.0000 0.08650  0.14730  0.34340  Biso   1.000  C
  C11      1.0000 0.04060  0.11730  0.20300  Biso   1.000  C
  O3       1.0000 0.55525  0.52119  0.58453  Biso   1.000  O
  O4       1.0000 0.56501  0.51117  0.45433  Biso   1.000  O
  C12      1.0000 0.57764  0.52180  0.52603  Biso   1.000  C
  C13      1.0000 0.62432  0.53508  0.54413  Biso   1.000  C
  C14      1.0000 0.65183  0.53803  0.48263  Biso   1.000  C
  H6       1.0000 0.64157  0.53103  0.43043  Biso   1.000  H
  C15      1.0000 0.69539  0.55163  0.50003  Biso   1.000  C
  H7       1.0000 0.71367  0.55183  0.46003  Biso   1.000  H
  C16      1.0000 0.71082  0.56454  0.57643  Biso   1.000  C
  C17      1.0000 0.68343  0.56253  0.63453  Biso   1.000  C
  H8       1.0000 0.69417  0.57153  0.68603  Biso   1.000  H
  C18      1.0000 0.63992  0.54745  0.61993  Biso   1.000  C
  H9       1.0000 0.62167  0.54583  0.66123  Biso   1.000  H
  C19      1.0000 0.75812  0.58383  0.59303  Biso   1.000  C
  C20      1.0000 0.77853  0.62403  0.62943  Biso   1.000  C
  H10      1.0000 0.76297  0.63803  0.63903  Biso   1.000  H
  C21      1.0000 0.75317  0.48063  0.67673  Biso   1.000  C
  C22      1.0000 0.70727  0.45063  0.53633  Biso   1.000  C
  O5       1.0000 0.22191  0.85453  0.91787  Biso   1.000  O
  O6       1.0000 0.23167  0.84451  0.78767  Biso   1.000  O
  C23      1.0000 0.24430  0.85514  0.85937  Biso   1.000  C
  C24      1.0000 0.29098  0.86842  0.87747  Biso   1.000  C
  C25      1.0000 0.31849  0.87137  0.81597  Biso   1.000  C
  H11      1.0000 0.30823  0.86437  0.76377  Biso   1.000  H
  C26      1.0000 0.36205  0.88497  0.83337  Biso   1.000  C
  H12      1.0000 0.38033  0.88517  0.79337  Biso   1.000  H
  C27      1.0000 0.37748  0.89788  0.90977  Biso   1.000  C
  C28      1.0000 0.35009  0.89587  0.96787  Biso   1.000  C
  H13      1.0000 0.36083  0.90487  0.01937  Biso   1.000  H
  C29      1.0000 0.30658  0.88079  0.95327  Biso   1.000  C
  H14      1.0000 0.28833  0.87917  0.99457  Biso   1.000  H
  C30      1.0000 0.42478  0.91717  0.92637  Biso   1.000  C
  C31      1.0000 0.44519  0.95737  0.96277  Biso   1.000  C
  H15      1.0000 0.42963  0.97137  0.97237  Biso   1.000  H
  C32      1.0000 0.41983  0.81397  0.01007  Biso   1.000  C
  C33      1.0000 0.37393  0.78397  0.86967  Biso   1.000  C
  O7       1.0000 0.81214  0.70072  0.25120  Biso   1.000  O
  O8       1.0000 0.82216  0.72050  0.12100  Biso   1.000  O
  C34      1.0000 0.81153  0.72250  0.19270  Biso   1.000  C
  C35      1.0000 0.79825  0.75590  0.21080  Biso   1.000  C
  C36      1.0000 0.79530  0.78046  0.14930  Biso   1.000  C
  H16      1.0000 0.80230  0.77720  0.09710  Biso   1.000  H
  C37      1.0000 0.78170  0.81042  0.16670  Biso   1.000  C
  H17      1.0000 0.78150  0.82850  0.12670  Biso   1.000  H
  C38      1.0000 0.76879  0.81294  0.24310  Biso   1.000  C
  C39      1.0000 0.77080  0.78756  0.30120  Biso   1.000  C
  H18      1.0000 0.76180  0.78930  0.35270  Biso   1.000  H
  C40      1.0000 0.78588  0.75913  0.28660  Biso   1.000  C
  H19      1.0000 0.78750  0.74250  0.32790  Biso   1.000  H
  C41      1.0000 0.74950  0.84095  0.25970  Biso   1.000  C
  C42      1.0000 0.70930  0.82116  0.29610  Biso   1.000  C
  H20      1.0000 0.69530  0.79160  0.30570  Biso   1.000  H
  C43      1.0000 0.85270  0.93920  0.34340  Biso   1.000  C
  C44      1.0000 0.88270  0.92330  0.20300  Biso   1.000  C
  O9       1.0000 0.47881  0.03405  0.58453  Biso   1.000  O
  O10      1.0000 0.48883  0.05383  0.45433  Biso   1.000  O
  C45      1.0000 0.47820  0.05583  0.52603  Biso   1.000  C
  C46      1.0000 0.46492  0.08923  0.54413  Biso   1.000  C
  C47      1.0000 0.46197  0.11379  0.48263  Biso   1.000  C
  H21      1.0000 0.46897  0.11053  0.43043  Biso   1.000  H
  C48      1.0000 0.44837  0.14375  0.50003  Biso   1.000  C
  H22      1.0000 0.44817  0.16183  0.46003  Biso   1.000  H
  C49      1.0000 0.43546  0.14627  0.57643  Biso   1.000  C
  C50      1.0000 0.43747  0.12089  0.63453  Biso   1.000  C
  H23      1.0000 0.42847  0.12263  0.68603  Biso   1.000  H
  C51      1.0000 0.45255  0.09246  0.61993  Biso   1.000  C
  H24      1.0000 0.45417  0.07583  0.66123  Biso   1.000  H
  C52      1.0000 0.41617  0.17428  0.59303  Biso   1.000  C
  C53      1.0000 0.37597  0.15449  0.62943  Biso   1.000  C
  H25      1.0000 0.36197  0.12493  0.63903  Biso   1.000  H
  C54      1.0000 0.51937  0.27253  0.67673  Biso   1.000  C
  C55      1.0000 0.54937  0.25663  0.53633  Biso   1.000  C
  O11      1.0000 0.14547  0.36739  0.91787  Biso   1.000  O
  O12      1.0000 0.15549  0.38717  0.78767  Biso   1.000  O
  C56      1.0000 0.14486  0.38917  0.85937  Biso   1.000  C
  C57      1.0000 0.13158  0.42257  0.87747  Biso   1.000  C
  C58      1.0000 0.12863  0.44713  0.81597  Biso   1.000  C
  H26      1.0000 0.13563  0.44387  0.76377  Biso   1.000  H
  C59      1.0000 0.11503  0.47709  0.83337  Biso   1.000  C
  H27      1.0000 0.11483  0.49517  0.79337  Biso   1.000  H
  C60      1.0000 0.10212  0.47961  0.90977  Biso   1.000  C
  C61      1.0000 0.10413  0.45423  0.96787  Biso   1.000  C
  H28      1.0000 0.09513  0.45597  0.01937  Biso   1.000  H
  C62      1.0000 0.11921  0.42580  0.95327  Biso   1.000  C
  H29      1.0000 0.12083  0.40917  0.99457  Biso   1.000  H
  C63      1.0000 0.08283  0.50762  0.92637  Biso   1.000  C
  C64      1.0000 0.04263  0.48783  0.96277  Biso   1.000  C
  H30      1.0000 0.02863  0.45827  0.97237  Biso   1.000  H
  C65      1.0000 0.18603  0.60587  0.01007  Biso   1.000  C
  C66      1.0000 0.21603  0.58997  0.86967  Biso   1.000  C
  O13      1.0000 0.29928  0.11142  0.25120  Biso   1.000  O
  O14      1.0000 0.27950  0.10166  0.12100  Biso   1.000  O
  C67      1.0000 0.27750  0.08903  0.19270  Biso   1.000  C
  C68      1.0000 0.24410  0.04235  0.21080  Biso   1.000  C
  C69      1.0000 0.21954  0.01484  0.14930  Biso   1.000  C
  H31      1.0000 0.22280  0.02510  0.09710  Biso   1.000  H
  C70      1.0000 0.18958  0.97128  0.16670  Biso   1.000  C
  H32      1.0000 0.17150  0.95300  0.12670  Biso   1.000  H
  C71      1.0000 0.18706  0.95585  0.24310  Biso   1.000  C
  C72      1.0000 0.21244  0.98324  0.30120  Biso   1.000  C
  H33      1.0000 0.21070  0.97250  0.35270  Biso   1.000  H
  C73      1.0000 0.24087  0.02675  0.28660  Biso   1.000  C
  H34      1.0000 0.25750  0.04500  0.32790  Biso   1.000  H
  C74      1.0000 0.15905  0.90855  0.25970  Biso   1.000  C
  C75      1.0000 0.17884  0.88814  0.29610  Biso   1.000  C
  H35      1.0000 0.20840  0.90370  0.30570  Biso   1.000  H
  C76      1.0000 0.06080  0.91350  0.34340  Biso   1.000  C
  C77      1.0000 0.07670  0.95940  0.20300  Biso   1.000  C
  O15      1.0000 0.96595  0.44475  0.58453  Biso   1.000  O
  O16      1.0000 0.94617  0.43499  0.45433  Biso   1.000  O
  C78      1.0000 0.94417  0.42236  0.52603  Biso   1.000  C
  C79      1.0000 0.91077  0.37568  0.54413  Biso   1.000  C
  C80      1.0000 0.88621  0.34817  0.48263  Biso   1.000  C
  H36      1.0000 0.88947  0.35843  0.43043  Biso   1.000  H
  C81      1.0000 0.85625  0.30461  0.50003  Biso   1.000  C
  H37      1.0000 0.83817  0.28633  0.46003  Biso   1.000  H
  C82      1.0000 0.85373  0.28918  0.57643  Biso   1.000  C
  C83      1.0000 0.87911  0.31657  0.63453  Biso   1.000  C
  H38      1.0000 0.87737  0.30583  0.68603  Biso   1.000  H
  C84      1.0000 0.90754  0.36008  0.61993  Biso   1.000  C
  H39      1.0000 0.92417  0.37833  0.66123  Biso   1.000  H
  C85      1.0000 0.82572  0.24188  0.59303  Biso   1.000  C
  C86      1.0000 0.84551  0.22147  0.62943  Biso   1.000  C
  H40      1.0000 0.87507  0.23703  0.63903  Biso   1.000  H
  C87      1.0000 0.72747  0.24683  0.67673  Biso   1.000  C
  C88      1.0000 0.74337  0.29273  0.53633  Biso   1.000  C
  O17      1.0000 0.63261  0.77809  0.91787  Biso   1.000  O
  O18      1.0000 0.61283  0.76833  0.78767  Biso   1.000  O
  C89      1.0000 0.61083  0.75570  0.85937  Biso   1.000  C
  C90      1.0000 0.57743  0.70902  0.87747  Biso   1.000  C
  C91      1.0000 0.55287  0.68151  0.81597  Biso   1.000  C
  H41      1.0000 0.55613  0.69177  0.76377  Biso   1.000  H
  C92      1.0000 0.52291  0.63795  0.83337  Biso   1.000  C
  H42      1.0000 0.50483  0.61967  0.79337  Biso   1.000  H
  C93      1.0000 0.52039  0.62252  0.90977  Biso   1.000  C
  C94      1.0000 0.54577  0.64991  0.96787  Biso   1.000  C
  H43      1.0000 0.54403  0.63917  0.01937  Biso   1.000  H
  C95      1.0000 0.57420  0.69342  0.95327  Biso   1.000  C
  H44      1.0000 0.59083  0.71167  0.99457  Biso   1.000  H
  C96      1.0000 0.49238  0.57522  0.92637  Biso   1.000  C
  C97      1.0000 0.51217  0.55481  0.96277  Biso   1.000  C
  H45      1.0000 0.54173  0.57037  0.97237  Biso   1.000  H
  C98      1.0000 0.39413  0.58017  0.01007  Biso   1.000  C
  C99      1.0000 0.41003  0.62607  0.86967  Biso   1.000  C
  O19      1.0000 0.18786  0.88858  0.74880  Biso   1.000  O
  O20      1.0000 0.17784  0.89834  0.87900  Biso   1.000  O
  C100     1.0000 0.18847  0.91097  0.80730  Biso   1.000  C
  C101     1.0000 0.20175  0.95765  0.78920  Biso   1.000  C
  C102     1.0000 0.20470  0.98516  0.85070  Biso   1.000  C
  H46      1.0000 0.19770  0.97490  0.90290  Biso   1.000  H
  C103     1.0000 0.21830  0.02872  0.83330  Biso   1.000  C
  H47      1.0000 0.21850  0.04700  0.87330  Biso   1.000  H
  C104     1.0000 0.23121  0.04415  0.75690  Biso   1.000  C
  C105     1.0000 0.22920  0.01676  0.69880  Biso   1.000  C
  H48      1.0000 0.23820  0.02750  0.64730  Biso   1.000  H
  C106     1.0000 0.21412  0.97325  0.71340  Biso   1.000  C
  H49      1.0000 0.21250  0.95500  0.67210  Biso   1.000  H
  C107     1.0000 0.25050  0.09145  0.74030  Biso   1.000  C
  C108     1.0000 0.29070  0.11186  0.70390  Biso   1.000  C
  H50      1.0000 0.30470  0.09630  0.69430  Biso   1.000  H
  C109     1.0000 0.14730  0.08650  0.65660  Biso   1.000  C
  C110     1.0000 0.11730  0.04060  0.79700  Biso   1.000  C
  O21      1.0000 0.85453  0.22191  0.08213  Biso   1.000  O
  O22      1.0000 0.84451  0.23167  0.21233  Biso   1.000  O
  C111     1.0000 0.85514  0.24430  0.14063  Biso   1.000  C
  C112     1.0000 0.86842  0.29098  0.12253  Biso   1.000  C
  C113     1.0000 0.87137  0.31849  0.18403  Biso   1.000  C
  H51      1.0000 0.86437  0.30823  0.23623  Biso   1.000  H
  C114     1.0000 0.88497  0.36205  0.16663  Biso   1.000  C
  H52      1.0000 0.88517  0.38033  0.20663  Biso   1.000  H
  C115     1.0000 0.89788  0.37748  0.09023  Biso   1.000  C
  C116     1.0000 0.89587  0.35009  0.03213  Biso   1.000  C
  H53      1.0000 0.90487  0.36083  0.98063  Biso   1.000  H
  C117     1.0000 0.88079  0.30658  0.04673  Biso   1.000  C
  H54      1.0000 0.87917  0.28833  0.00543  Biso   1.000  H
  C118     1.0000 0.91717  0.42478  0.07363  Biso   1.000  C
  C119     1.0000 0.95737  0.44519  0.03723  Biso   1.000  C
  H55      1.0000 0.97137  0.42963  0.02763  Biso   1.000  H
  C120     1.0000 0.81397  0.41983  0.98993  Biso   1.000  C
  C121     1.0000 0.78397  0.37393  0.13033  Biso   1.000  C
  O23      1.0000 0.52119  0.55525  0.41547  Biso   1.000  O
  O24      1.0000 0.51117  0.56501  0.54567  Biso   1.000  O
  C122     1.0000 0.52180  0.57764  0.47397  Biso   1.000  C
  C123     1.0000 0.53508  0.62432  0.45587  Biso   1.000  C
  C124     1.0000 0.53803  0.65183  0.51737  Biso   1.000  C
  H56      1.0000 0.53103  0.64157  0.56957  Biso   1.000  H
  C125     1.0000 0.55163  0.69539  0.49997  Biso   1.000  C
  H57      1.0000 0.55183  0.71367  0.53997  Biso   1.000  H
  C126     1.0000 0.56454  0.71082  0.42357  Biso   1.000  C
  C127     1.0000 0.56253  0.68343  0.36547  Biso   1.000  C
  H58      1.0000 0.57153  0.69417  0.31397  Biso   1.000  H
  C128     1.0000 0.54745  0.63992  0.38007  Biso   1.000  C
  H59      1.0000 0.54583  0.62167  0.33877  Biso   1.000  H
  C129     1.0000 0.58383  0.75812  0.40697  Biso   1.000  C
  C130     1.0000 0.62403  0.77853  0.37057  Biso   1.000  C
  H60      1.0000 0.63803  0.76297  0.36097  Biso   1.000  H
  C131     1.0000 0.48063  0.75317  0.32327  Biso   1.000  C
  C132     1.0000 0.45063  0.70727  0.46367  Biso   1.000  C
  O25      1.0000 0.70072  0.81214  0.74880  Biso   1.000  O
  O26      1.0000 0.72050  0.82216  0.87900  Biso   1.000  O
  C133     1.0000 0.72250  0.81153  0.80730  Biso   1.000  C
  C134     1.0000 0.75590  0.79825  0.78920  Biso   1.000  C
  C135     1.0000 0.78046  0.79530  0.85070  Biso   1.000  C
  H61      1.0000 0.77720  0.80230  0.90290  Biso   1.000  H
  C136     1.0000 0.81042  0.78170  0.83330  Biso   1.000  C
  H62      1.0000 0.82850  0.78150  0.87330  Biso   1.000  H
  C137     1.0000 0.81294  0.76879  0.75690  Biso   1.000  C
  C138     1.0000 0.78756  0.77080  0.69880  Biso   1.000  C
  H63      1.0000 0.78930  0.76180  0.64730  Biso   1.000  H
  C139     1.0000 0.75913  0.78588  0.71340  Biso   1.000  C
  H64      1.0000 0.74250  0.78750  0.67210  Biso   1.000  H
  C140     1.0000 0.84095  0.74950  0.74030  Biso   1.000  C
  C141     1.0000 0.82116  0.70930  0.70390  Biso   1.000  C
  H65      1.0000 0.79160  0.69530  0.69430  Biso   1.000  H
  C142     1.0000 0.93920  0.85270  0.65660  Biso   1.000  C
  C143     1.0000 0.92330  0.88270  0.79700  Biso   1.000  C
  O27      1.0000 0.36739  0.14547  0.08213  Biso   1.000  O
  O28      1.0000 0.38717  0.15549  0.21233  Biso   1.000  O
  C144     1.0000 0.38917  0.14486  0.14063  Biso   1.000  C
  C145     1.0000 0.42257  0.13158  0.12253  Biso   1.000  C
  C146     1.0000 0.44713  0.12863  0.18403  Biso   1.000  C
  H66      1.0000 0.44387  0.13563  0.23623  Biso   1.000  H
  C147     1.0000 0.47709  0.11503  0.16663  Biso   1.000  C
  H67      1.0000 0.49517  0.11483  0.20663  Biso   1.000  H
  C148     1.0000 0.47961  0.10212  0.09023  Biso   1.000  C
  C149     1.0000 0.45423  0.10413  0.03213  Biso   1.000  C
  H68      1.0000 0.45597  0.09513  0.98063  Biso   1.000  H
  C150     1.0000 0.42580  0.11921  0.04673  Biso   1.000  C
  H69      1.0000 0.40917  0.12083  0.00543  Biso   1.000  H
  C151     1.0000 0.50762  0.08283  0.07363  Biso   1.000  C
  C152     1.0000 0.48783  0.04263  0.03723  Biso   1.000  C
  H70      1.0000 0.45827  0.02863  0.02763  Biso   1.000  H
  C153     1.0000 0.60587  0.18603  0.98993  Biso   1.000  C
  C154     1.0000 0.58997  0.21603  0.13033  Biso   1.000  C
  O29      1.0000 0.03405  0.47881  0.41547  Biso   1.000  O
  O30      1.0000 0.05383  0.48883  0.54567  Biso   1.000  O
  C155     1.0000 0.05583  0.47820  0.47397  Biso   1.000  C
  C156     1.0000 0.08923  0.46492  0.45587  Biso   1.000  C
  C157     1.0000 0.11379  0.46197  0.51737  Biso   1.000  C
  H71      1.0000 0.11053  0.46897  0.56957  Biso   1.000  H
  C158     1.0000 0.14375  0.44837  0.49997  Biso   1.000  C
  H72      1.0000 0.16183  0.44817  0.53997  Biso   1.000  H
  C159     1.0000 0.14627  0.43546  0.42357  Biso   1.000  C
  C160     1.0000 0.12089  0.43747  0.36547  Biso   1.000  C
  H73      1.0000 0.12263  0.42847  0.31397  Biso   1.000  H
  C161     1.0000 0.09246  0.45255  0.38007  Biso   1.000  C
  H74      1.0000 0.07583  0.45417  0.33877  Biso   1.000  H
  C162     1.0000 0.17428  0.41617  0.40697  Biso   1.000  C
  C163     1.0000 0.15449  0.37597  0.37057  Biso   1.000  C
  H75      1.0000 0.12493  0.36197  0.36097  Biso   1.000  H
  C164     1.0000 0.27253  0.51937  0.32327  Biso   1.000  C
  C165     1.0000 0.25663  0.54937  0.46367  Biso   1.000  C
  O31      1.0000 0.11142  0.29928  0.74880  Biso   1.000  O
  O32      1.0000 0.10166  0.27950  0.87900  Biso   1.000  O
  C166     1.0000 0.08903  0.27750  0.80730  Biso   1.000  C
  C167     1.0000 0.04235  0.24410  0.78920  Biso   1.000  C
  C168     1.0000 0.01484  0.21954  0.85070  Biso   1.000  C
  H76      1.0000 0.02510  0.22280  0.90290  Biso   1.000  H
  C169     1.0000 0.97128  0.18958  0.83330  Biso   1.000  C
  H77      1.0000 0.95300  0.17150  0.87330  Biso   1.000  H
  C170     1.0000 0.95585  0.18706  0.75690  Biso   1.000  C
  C171     1.0000 0.98324  0.21244  0.69880  Biso   1.000  C
  H78      1.0000 0.97250  0.21070  0.64730  Biso   1.000  H
  C172     1.0000 0.02675  0.24087  0.71340  Biso   1.000  C
  H79      1.0000 0.04500  0.25750  0.67210  Biso   1.000  H
  C173     1.0000 0.90855  0.15905  0.74030  Biso   1.000  C
  C174     1.0000 0.88814  0.17884  0.70390  Biso   1.000  C
  H80      1.0000 0.90370  0.20840  0.69430  Biso   1.000  H
  C175     1.0000 0.91350  0.06080  0.65660  Biso   1.000  C
  C176     1.0000 0.95940  0.07670  0.79700  Biso   1.000  C
  O33      1.0000 0.77809  0.63261  0.08213  Biso   1.000  O
  O34      1.0000 0.76833  0.61283  0.21233  Biso   1.000  O
  C177     1.0000 0.75570  0.61083  0.14063  Biso   1.000  C
  C178     1.0000 0.70902  0.57743  0.12253  Biso   1.000  C
  C179     1.0000 0.68151  0.55287  0.18403  Biso   1.000  C
  H81      1.0000 0.69177  0.55613  0.23623  Biso   1.000  H
  C180     1.0000 0.63795  0.52291  0.16663  Biso   1.000  C
  H82      1.0000 0.61967  0.50483  0.20663  Biso   1.000  H
  C181     1.0000 0.62252  0.52039  0.09023  Biso   1.000  C
  C182     1.0000 0.64991  0.54577  0.03213  Biso   1.000  C
  H83      1.0000 0.63917  0.54403  0.98063  Biso   1.000  H
  C183     1.0000 0.69342  0.57420  0.04673  Biso   1.000  C
  H84      1.0000 0.71167  0.59083  0.00543  Biso   1.000  H
  C184     1.0000 0.57522  0.49238  0.07363  Biso   1.000  C
  C185     1.0000 0.55481  0.51217  0.03723  Biso   1.000  C
  H85      1.0000 0.57037  0.54173  0.02763  Biso   1.000  H
  C186     1.0000 0.58017  0.39413  0.98993  Biso   1.000  C
  C187     1.0000 0.62607  0.41003  0.13033  Biso   1.000  C
  O35      1.0000 0.44475  0.96595  0.41547  Biso   1.000  O
  O36      1.0000 0.43499  0.94617  0.54567  Biso   1.000  O
  C188     1.0000 0.42236  0.94417  0.47397  Biso   1.000  C
  C189     1.0000 0.37568  0.91077  0.45587  Biso   1.000  C
  C190     1.0000 0.34817  0.88621  0.51737  Biso   1.000  C
  H86      1.0000 0.35843  0.88947  0.56957  Biso   1.000  H
  C191     1.0000 0.30461  0.85625  0.49997  Biso   1.000  C
  H87      1.0000 0.28633  0.83817  0.53997  Biso   1.000  H
  C192     1.0000 0.28918  0.85373  0.42357  Biso   1.000  C
  C193     1.0000 0.31657  0.87911  0.36547  Biso   1.000  C
  H88      1.0000 0.30583  0.87737  0.31397  Biso   1.000  H
  C194     1.0000 0.36008  0.90754  0.38007  Biso   1.000  C
  H89      1.0000 0.37833  0.92417  0.33877  Biso   1.000  H
  C195     1.0000 0.24188  0.82572  0.40697  Biso   1.000  C
  C196     1.0000 0.22147  0.84551  0.37057  Biso   1.000  C
  H90      1.0000 0.23703  0.87507  0.36097  Biso   1.000  H
  C197     1.0000 0.24683  0.72747  0.32327  Biso   1.000  C
  C198     1.0000 0.29273  0.74337  0.46367  Biso   1.000  C
  O37      1.0000 0.11142  0.81214  0.74880  Biso   1.000  O
  O38      1.0000 0.10166  0.82216  0.87900  Biso   1.000  O
  C199     1.0000 0.08903  0.81153  0.80730  Biso   1.000  C
  C200     1.0000 0.04235  0.79825  0.78920  Biso   1.000  C
  C201     1.0000 0.01484  0.79530  0.85070  Biso   1.000  C
  H91      1.0000 0.02510  0.80230  0.90290  Biso   1.000  H
  C202     1.0000 0.97128  0.78170  0.83330  Biso   1.000  C
  H92      1.0000 0.95300  0.78150  0.87330  Biso   1.000  H
  C203     1.0000 0.95585  0.76879  0.75690  Biso   1.000  C
  C204     1.0000 0.98324  0.77080  0.69880  Biso   1.000  C
  H93      1.0000 0.97250  0.76180  0.64730  Biso   1.000  H
  C205     1.0000 0.02675  0.78588  0.71340  Biso   1.000  C
  H94      1.0000 0.04500  0.78750  0.67210  Biso   1.000  H
  C206     1.0000 0.90855  0.74950  0.74030  Biso   1.000  C
  C207     1.0000 0.88814  0.70930  0.70390  Biso   1.000  C
  H95      1.0000 0.90370  0.69530  0.69430  Biso   1.000  H
  C208     1.0000 0.91350  0.85270  0.65660  Biso   1.000  C
  C209     1.0000 0.95940  0.88270  0.79700  Biso   1.000  C
  O39      1.0000 0.77809  0.14547  0.08213  Biso   1.000  O
  O40      1.0000 0.76833  0.15549  0.21233  Biso   1.000  O
  C210     1.0000 0.75570  0.14486  0.14063  Biso   1.000  C
  C211     1.0000 0.70902  0.13158  0.12253  Biso   1.000  C
  C212     1.0000 0.68151  0.12863  0.18403  Biso   1.000  C
  H96      1.0000 0.69177  0.13563  0.23623  Biso   1.000  H
  C213     1.0000 0.63795  0.11503  0.16663  Biso   1.000  C
  H97      1.0000 0.61967  0.11483  0.20663  Biso   1.000  H
  C214     1.0000 0.62252  0.10212  0.09023  Biso   1.000  C
  C215     1.0000 0.64991  0.10413  0.03213  Biso   1.000  C
  H98      1.0000 0.63917  0.09513  0.98063  Biso   1.000  H
  C216     1.0000 0.69342  0.11921  0.04673  Biso   1.000  C
  H99      1.0000 0.71167  0.12083  0.00543  Biso   1.000  H
  C217     1.0000 0.57522  0.08283  0.07363  Biso   1.000  C
  C218     1.0000 0.55481  0.04263  0.03723  Biso   1.000  C
  H100     1.0000 0.57037  0.02863  0.02763  Biso   1.000  H
  C219     1.0000 0.58017  0.18603  0.98993  Biso   1.000  C
  C220     1.0000 0.62607  0.21603  0.13033  Biso   1.000  C
  O41      1.0000 0.44475  0.47881  0.41547  Biso   1.000  O
  O42      1.0000 0.43499  0.48883  0.54567  Biso   1.000  O
  C221     1.0000 0.42236  0.47820  0.47397  Biso   1.000  C
  C222     1.0000 0.37568  0.46492  0.45587  Biso   1.000  C
  C223     1.0000 0.34817  0.46197  0.51737  Biso   1.000  C
  H101     1.0000 0.35843  0.46897  0.56957  Biso   1.000  H
  C224     1.0000 0.30461  0.44837  0.49997  Biso   1.000  C
  H102     1.0000 0.28633  0.44817  0.53997  Biso   1.000  H
  C225     1.0000 0.28918  0.43546  0.42357  Biso   1.000  C
  C226     1.0000 0.31657  0.43747  0.36547  Biso   1.000  C
  H103     1.0000 0.30583  0.42847  0.31397  Biso   1.000  H
  C227     1.0000 0.36008  0.45255  0.38007  Biso   1.000  C
  H104     1.0000 0.37833  0.45417  0.33877  Biso   1.000  H
  C228     1.0000 0.24188  0.41617  0.40697  Biso   1.000  C
  C229     1.0000 0.22147  0.37597  0.37057  Biso   1.000  C
  H105     1.0000 0.23703  0.36197  0.36097  Biso   1.000  H
  C230     1.0000 0.24683  0.51937  0.32327  Biso   1.000  C
  C231     1.0000 0.29273  0.54937  0.46367  Biso   1.000  C
  O43      1.0000 0.18786  0.29928  0.74880  Biso   1.000  O
  O44      1.0000 0.17784  0.27950  0.87900  Biso   1.000  O
  C232     1.0000 0.18847  0.27750  0.80730  Biso   1.000  C
  C233     1.0000 0.20175  0.24410  0.78920  Biso   1.000  C
  C234     1.0000 0.20470  0.21954  0.85070  Biso   1.000  C
  H106     1.0000 0.19770  0.22280  0.90290  Biso   1.000  H
  C235     1.0000 0.21830  0.18958  0.83330  Biso   1.000  C
  H107     1.0000 0.21850  0.17150  0.87330  Biso   1.000  H
  C236     1.0000 0.23121  0.18706  0.75690  Biso   1.000  C
  C237     1.0000 0.22920  0.21244  0.69880  Biso   1.000  C
  H108     1.0000 0.23820  0.21070  0.64730  Biso   1.000  H
  C238     1.0000 0.21412  0.24087  0.71340  Biso   1.000  C
  H109     1.0000 0.21250  0.25750  0.67210  Biso   1.000  H
  C239     1.0000 0.25050  0.15905  0.74030  Biso   1.000  C
  C240     1.0000 0.29070  0.17884  0.70390  Biso   1.000  C
  H110     1.0000 0.30470  0.20840  0.69430  Biso   1.000  H
  C241     1.0000 0.14730  0.06080  0.65660  Biso   1.000  C
  C242     1.0000 0.11730  0.07670  0.79700  Biso   1.000  C
  O45      1.0000 0.85453  0.63261  0.08213  Biso   1.000  O
  O46      1.0000 0.84451  0.61283  0.21233  Biso   1.000  O
  C243     1.0000 0.85514  0.61083  0.14063  Biso   1.000  C
  C244     1.0000 0.86842  0.57743  0.12253  Biso   1.000  C
  C245     1.0000 0.87137  0.55287  0.18403  Biso   1.000  C
  H111     1.0000 0.86437  0.55613  0.23623  Biso   1.000  H
  C246     1.0000 0.88497  0.52291  0.16663  Biso   1.000  C
  H112     1.0000 0.88517  0.50483  0.20663  Biso   1.000  H
  C247     1.0000 0.89788  0.52039  0.09023  Biso   1.000  C
  C248     1.0000 0.89587  0.54577  0.03213  Biso   1.000  C
  H113     1.0000 0.90487  0.54403  0.98063  Biso   1.000  H
  C249     1.0000 0.88079  0.57420  0.04673  Biso   1.000  C
  H114     1.0000 0.87917  0.59083  0.00543  Biso   1.000  H
  C250     1.0000 0.91717  0.49238  0.07363  Biso   1.000  C
  C251     1.0000 0.95737  0.51217  0.03723  Biso   1.000  C
  H115     1.0000 0.97137  0.54173  0.02763  Biso   1.000  H
  C252     1.0000 0.81397  0.39413  0.98993  Biso   1.000  C
  C253     1.0000 0.78397  0.41003  0.13033  Biso   1.000  C
  O47      1.0000 0.52119  0.96595  0.41547  Biso   1.000  O
  O48      1.0000 0.51117  0.94617  0.54567  Biso   1.000  O
  C254     1.0000 0.52180  0.94417  0.47397  Biso   1.000  C
  C255     1.0000 0.53508  0.91077  0.45587  Biso   1.000  C
  C256     1.0000 0.53803  0.88621  0.51737  Biso   1.000  C
  H116     1.0000 0.53103  0.88947  0.56957  Biso   1.000  H
  C257     1.0000 0.55163  0.85625  0.49997  Biso   1.000  C
  H117     1.0000 0.55183  0.83817  0.53997  Biso   1.000  H
  C258     1.0000 0.56454  0.85373  0.42357  Biso   1.000  C
  C259     1.0000 0.56253  0.87911  0.36547  Biso   1.000  C
  H118     1.0000 0.57153  0.87737  0.31397  Biso   1.000  H
  C260     1.0000 0.54745  0.90754  0.38007  Biso   1.000  C
  H119     1.0000 0.54583  0.92417  0.33877  Biso   1.000  H
  C261     1.0000 0.58383  0.82572  0.40697  Biso   1.000  C
  C262     1.0000 0.62403  0.84551  0.37057  Biso   1.000  C
  H120     1.0000 0.63803  0.87507  0.36097  Biso   1.000  H
  C263     1.0000 0.48063  0.72747  0.32327  Biso   1.000  C
  C264     1.0000 0.45063  0.74337  0.46367  Biso   1.000  C
  O49      1.0000 0.70072  0.88858  0.74880  Biso   1.000  O
  O50      1.0000 0.72050  0.89834  0.87900  Biso   1.000  O
  C265     1.0000 0.72250  0.91097  0.80730  Biso   1.000  C
  C266     1.0000 0.75590  0.95765  0.78920  Biso   1.000  C
  C267     1.0000 0.78046  0.98516  0.85070  Biso   1.000  C
  H121     1.0000 0.77720  0.97490  0.90290  Biso   1.000  H
  C268     1.0000 0.81042  0.02872  0.83330  Biso   1.000  C
  H122     1.0000 0.82850  0.04700  0.87330  Biso   1.000  H
  C269     1.0000 0.81294  0.04415  0.75690  Biso   1.000  C
  C270     1.0000 0.78756  0.01676  0.69880  Biso   1.000  C
  H123     1.0000 0.78930  0.02750  0.64730  Biso   1.000  H
  C271     1.0000 0.75913  0.97325  0.71340  Biso   1.000  C
  H124     1.0000 0.74250  0.95500  0.67210  Biso   1.000  H
  C272     1.0000 0.84095  0.09145  0.74030  Biso   1.000  C
  C273     1.0000 0.82116  0.11186  0.70390  Biso   1.000  C
  H125     1.0000 0.79160  0.09630  0.69430  Biso   1.000  H
  C274     1.0000 0.93920  0.08650  0.65660  Biso   1.000  C
  C275     1.0000 0.92330  0.04060  0.79700  Biso   1.000  C
  O51      1.0000 0.36739  0.22191  0.08213  Biso   1.000  O
  O52      1.0000 0.38717  0.23167  0.21233  Biso   1.000  O
  C276     1.0000 0.38917  0.24430  0.14063  Biso   1.000  C
  C277     1.0000 0.42257  0.29098  0.12253  Biso   1.000  C
  C278     1.0000 0.44713  0.31849  0.18403  Biso   1.000  C
  H126     1.0000 0.44387  0.30823  0.23623  Biso   1.000  H
  C279     1.0000 0.47709  0.36205  0.16663  Biso   1.000  C
  H127     1.0000 0.49517  0.38033  0.20663  Biso   1.000  H
  C280     1.0000 0.47961  0.37748  0.09023  Biso   1.000  C
  C281     1.0000 0.45423  0.35009  0.03213  Biso   1.000  C
  H128     1.0000 0.45597  0.36083  0.98063  Biso   1.000  H
  C282     1.0000 0.42580  0.30658  0.04673  Biso   1.000  C
  H129     1.0000 0.40917  0.28833  0.00543  Biso   1.000  H
  C283     1.0000 0.50762  0.42478  0.07363  Biso   1.000  C
  C284     1.0000 0.48783  0.44519  0.03723  Biso   1.000  C
  H130     1.0000 0.45827  0.42963  0.02763  Biso   1.000  H
  C285     1.0000 0.60587  0.41983  0.98993  Biso   1.000  C
  C286     1.0000 0.58997  0.37393  0.13033  Biso   1.000  C
  O53      1.0000 0.03405  0.55525  0.41547  Biso   1.000  O
  O54      1.0000 0.05383  0.56501  0.54567  Biso   1.000  O
  C287     1.0000 0.05583  0.57764  0.47397  Biso   1.000  C
  C288     1.0000 0.08923  0.62432  0.45587  Biso   1.000  C
  C289     1.0000 0.11379  0.65183  0.51737  Biso   1.000  C
  H131     1.0000 0.11053  0.64157  0.56957  Biso   1.000  H
  C290     1.0000 0.14375  0.69539  0.49997  Biso   1.000  C
  H132     1.0000 0.16183  0.71367  0.53997  Biso   1.000  H
  C291     1.0000 0.14627  0.71082  0.42357  Biso   1.000  C
  C292     1.0000 0.12089  0.68343  0.36547  Biso   1.000  C
  H133     1.0000 0.12263  0.69417  0.31397  Biso   1.000  H
  C293     1.0000 0.09246  0.63992  0.38007  Biso   1.000  C
  H134     1.0000 0.07583  0.62167  0.33877  Biso   1.000  H
  C294     1.0000 0.17428  0.75812  0.40697  Biso   1.000  C
  C295     1.0000 0.15449  0.77853  0.37057  Biso   1.000  C
  H135     1.0000 0.12493  0.76297  0.36097  Biso   1.000  H
  C296     1.0000 0.27253  0.75317  0.32327  Biso   1.000  C
  C297     1.0000 0.25663  0.70727  0.46367  Biso   1.000  C
  O55      1.0000 0.81214  0.11142  0.25120  Biso   1.000  O
  O56      1.0000 0.82216  0.10166  0.12100  Biso   1.000  O
  C298     1.0000 0.81153  0.08903  0.19270  Biso   1.000  C
  C299     1.0000 0.79825  0.04235  0.21080  Biso   1.000  C
  C300     1.0000 0.79530  0.01484  0.14930  Biso   1.000  C
  H136     1.0000 0.80230  0.02510  0.09710  Biso   1.000  H
  C301     1.0000 0.78170  0.97128  0.16670  Biso   1.000  C
  H137     1.0000 0.78150  0.95300  0.12670  Biso   1.000  H
  C302     1.0000 0.76879  0.95585  0.24310  Biso   1.000  C
  C303     1.0000 0.77080  0.98324  0.30120  Biso   1.000  C
  H138     1.0000 0.76180  0.97250  0.35270  Biso   1.000  H
  C304     1.0000 0.78588  0.02675  0.28660  Biso   1.000  C
  H139     1.0000 0.78750  0.04500  0.32790  Biso   1.000  H
  C305     1.0000 0.74950  0.90855  0.25970  Biso   1.000  C
  C306     1.0000 0.70930  0.88814  0.29610  Biso   1.000  C
  H140     1.0000 0.69530  0.90370  0.30570  Biso   1.000  H
  C307     1.0000 0.85270  0.91350  0.34340  Biso   1.000  C
  C308     1.0000 0.88270  0.95940  0.20300  Biso   1.000  C
  O57      1.0000 0.47881  0.44475  0.58453  Biso   1.000  O
  O58      1.0000 0.48883  0.43499  0.45433  Biso   1.000  O
  C309     1.0000 0.47820  0.42236  0.52603  Biso   1.000  C
  C310     1.0000 0.46492  0.37568  0.54413  Biso   1.000  C
  C311     1.0000 0.46197  0.34817  0.48263  Biso   1.000  C
  H141     1.0000 0.46897  0.35843  0.43043  Biso   1.000  H
  C312     1.0000 0.44837  0.30461  0.50003  Biso   1.000  C
  H142     1.0000 0.44817  0.28633  0.46003  Biso   1.000  H
  C313     1.0000 0.43546  0.28918  0.57643  Biso   1.000  C
  C314     1.0000 0.43747  0.31657  0.63453  Biso   1.000  C
  H143     1.0000 0.42847  0.30583  0.68603  Biso   1.000  H
  C315     1.0000 0.45255  0.36008  0.61993  Biso   1.000  C
  H144     1.0000 0.45417  0.37833  0.66123  Biso   1.000  H
  C316     1.0000 0.41617  0.24188  0.59303  Biso   1.000  C
  C317     1.0000 0.37597  0.22147  0.62943  Biso   1.000  C
  H145     1.0000 0.36197  0.23703  0.63903  Biso   1.000  H
  C318     1.0000 0.51937  0.24683  0.67673  Biso   1.000  C
  C319     1.0000 0.54937  0.29273  0.53633  Biso   1.000  C
  O59      1.0000 0.14547  0.77809  0.91787  Biso   1.000  O
  O60      1.0000 0.15549  0.76833  0.78767  Biso   1.000  O
  C320     1.0000 0.14486  0.75570  0.85937  Biso   1.000  C
  C321     1.0000 0.13158  0.70902  0.87747  Biso   1.000  C
  C322     1.0000 0.12863  0.68151  0.81597  Biso   1.000  C
  H146     1.0000 0.13563  0.69177  0.76377  Biso   1.000  H
  C323     1.0000 0.11503  0.63795  0.83337  Biso   1.000  C
  H147     1.0000 0.11483  0.61967  0.79337  Biso   1.000  H
  C324     1.0000 0.10212  0.62252  0.90977  Biso   1.000  C
  C325     1.0000 0.10413  0.64991  0.96787  Biso   1.000  C
  H148     1.0000 0.09513  0.63917  0.01937  Biso   1.000  H
  C326     1.0000 0.11921  0.69342  0.95327  Biso   1.000  C
  H149     1.0000 0.12083  0.71167  0.99457  Biso   1.000  H
  C327     1.0000 0.08283  0.57522  0.92637  Biso   1.000  C
  C328     1.0000 0.04263  0.55481  0.96277  Biso   1.000  C
  H150     1.0000 0.02863  0.57037  0.97237  Biso   1.000  H
  C329     1.0000 0.18603  0.58017  0.01007  Biso   1.000  C
  C330     1.0000 0.21603  0.62607  0.86967  Biso   1.000  C
  O61      1.0000 0.29928  0.18786  0.25120  Biso   1.000  O
  O62      1.0000 0.27950  0.17784  0.12100  Biso   1.000  O
  C331     1.0000 0.27750  0.18847  0.19270  Biso   1.000  C
  C332     1.0000 0.24410  0.20175  0.21080  Biso   1.000  C
  C333     1.0000 0.21954  0.20470  0.14930  Biso   1.000  C
  H151     1.0000 0.22280  0.19770  0.09710  Biso   1.000  H
  C334     1.0000 0.18958  0.21830  0.16670  Biso   1.000  C
  H152     1.0000 0.17150  0.21850  0.12670  Biso   1.000  H
  C335     1.0000 0.18706  0.23121  0.24310  Biso   1.000  C
  C336     1.0000 0.21244  0.22920  0.30120  Biso   1.000  C
  H153     1.0000 0.21070  0.23820  0.35270  Biso   1.000  H
  C337     1.0000 0.24087  0.21412  0.28660  Biso   1.000  C
  H154     1.0000 0.25750  0.21250  0.32790  Biso   1.000  H
  C338     1.0000 0.15905  0.25050  0.25970  Biso   1.000  C
  C339     1.0000 0.17884  0.29070  0.29610  Biso   1.000  C
  H155     1.0000 0.20840  0.30470  0.30570  Biso   1.000  H
  C340     1.0000 0.06080  0.14730  0.34340  Biso   1.000  C
  C341     1.0000 0.07670  0.11730  0.20300  Biso   1.000  C
  O63      1.0000 0.96595  0.52119  0.58453  Biso   1.000  O
  O64      1.0000 0.94617  0.51117  0.45433  Biso   1.000  O
  C342     1.0000 0.94417  0.52180  0.52603  Biso   1.000  C
  C343     1.0000 0.91077  0.53508  0.54413  Biso   1.000  C
  C344     1.0000 0.88621  0.53803  0.48263  Biso   1.000  C
  H156     1.0000 0.88947  0.53103  0.43043  Biso   1.000  H
  C345     1.0000 0.85625  0.55163  0.50003  Biso   1.000  C
  H157     1.0000 0.83817  0.55183  0.46003  Biso   1.000  H
  C346     1.0000 0.85373  0.56454  0.57643  Biso   1.000  C
  C347     1.0000 0.87911  0.56253  0.63453  Biso   1.000  C
  H158     1.0000 0.87737  0.57153  0.68603  Biso   1.000  H
  C348     1.0000 0.90754  0.54745  0.61993  Biso   1.000  C
  H159     1.0000 0.92417  0.54583  0.66123  Biso   1.000  H
  C349     1.0000 0.82572  0.58383  0.59303  Biso   1.000  C
  C350     1.0000 0.84551  0.62403  0.62943  Biso   1.000  C
  H160     1.0000 0.87507  0.63803  0.63903  Biso   1.000  H
  C351     1.0000 0.72747  0.48063  0.67673  Biso   1.000  C
  C352     1.0000 0.74337  0.45063  0.53633  Biso   1.000  C
  O65      1.0000 0.63261  0.85453  0.91787  Biso   1.000  O
  O66      1.0000 0.61283  0.84451  0.78767  Biso   1.000  O
  C353     1.0000 0.61083  0.85514  0.85937  Biso   1.000  C
  C354     1.0000 0.57743  0.86842  0.87747  Biso   1.000  C
  C355     1.0000 0.55287  0.87137  0.81597  Biso   1.000  C
  H161     1.0000 0.55613  0.86437  0.76377  Biso   1.000  H
  C356     1.0000 0.52291  0.88497  0.83337  Biso   1.000  C
  H162     1.0000 0.50483  0.88517  0.79337  Biso   1.000  H
  C357     1.0000 0.52039  0.89788  0.90977  Biso   1.000  C
  C358     1.0000 0.54577  0.89587  0.96787  Biso   1.000  C
  H163     1.0000 0.54403  0.90487  0.01937  Biso   1.000  H
  C359     1.0000 0.57420  0.88079  0.95327  Biso   1.000  C
  H164     1.0000 0.59083  0.87917  0.99457  Biso   1.000  H
  C360     1.0000 0.49238  0.91717  0.92637  Biso   1.000  C
  C361     1.0000 0.51217  0.95737  0.96277  Biso   1.000  C
  H165     1.0000 0.54173  0.97137  0.97237  Biso   1.000  H
  C362     1.0000 0.39413  0.81397  0.01007  Biso   1.000  C
  C363     1.0000 0.41003  0.78397  0.86967  Biso   1.000  C
  O67      1.0000 0.88858  0.70072  0.25120  Biso   1.000  O
  O68      1.0000 0.89834  0.72050  0.12100  Biso   1.000  O
  C364     1.0000 0.91097  0.72250  0.19270  Biso   1.000  C
  C365     1.0000 0.95765  0.75590  0.21080  Biso   1.000  C
  C366     1.0000 0.98516  0.78046  0.14930  Biso   1.000  C
  H166     1.0000 0.97490  0.77720  0.09710  Biso   1.000  H
  C367     1.0000 0.02872  0.81042  0.16670  Biso   1.000  C
  H167     1.0000 0.04700  0.82850  0.12670  Biso   1.000  H
  C368     1.0000 0.04415  0.81294  0.24310  Biso   1.000  C
  C369     1.0000 0.01676  0.78756  0.30120  Biso   1.000  C
  H168     1.0000 0.02750  0.78930  0.35270  Biso   1.000  H
  C370     1.0000 0.97325  0.75913  0.28660  Biso   1.000  C
  H169     1.0000 0.95500  0.74250  0.32790  Biso   1.000  H
  C371     1.0000 0.09145  0.84095  0.25970  Biso   1.000  C
  C372     1.0000 0.11186  0.82116  0.29610  Biso   1.000  C
  H170     1.0000 0.09630  0.79160  0.30570  Biso   1.000  H
  C373     1.0000 0.08650  0.93920  0.34340  Biso   1.000  C
  C374     1.0000 0.04060  0.92330  0.20300  Biso   1.000  C
  O69      1.0000 0.55525  0.03405  0.58453  Biso   1.000  O
  O70      1.0000 0.56501  0.05383  0.45433  Biso   1.000  O
  C375     1.0000 0.57764  0.05583  0.52603  Biso   1.000  C
  C376     1.0000 0.62432  0.08923  0.54413  Biso   1.000  C
  C377     1.0000 0.65183  0.11379  0.48263  Biso   1.000  C
  H171     1.0000 0.64157  0.11053  0.43043  Biso   1.000  H
  C378     1.0000 0.69539  0.14375  0.50003  Biso   1.000  C
  H172     1.0000 0.71367  0.16183  0.46003  Biso   1.000  H
  C379     1.0000 0.71082  0.14627  0.57643  Biso   1.000  C
  C380     1.0000 0.68343  0.12089  0.63453  Biso   1.000  C
  H173     1.0000 0.69417  0.12263  0.68603  Biso   1.000  H
  C381     1.0000 0.63992  0.09246  0.61993  Biso   1.000  C
  H174     1.0000 0.62167  0.07583  0.66123  Biso   1.000  H
  C382     1.0000 0.75812  0.17428  0.59303  Biso   1.000  C
  C383     1.0000 0.77853  0.15449  0.62943  Biso   1.000  C
  H175     1.0000 0.76297  0.12493  0.63903  Biso   1.000  H
  C384     1.0000 0.75317  0.27253  0.67673  Biso   1.000  C
  C385     1.0000 0.70727  0.25663  0.53633  Biso   1.000  C
  O71      1.0000 0.22191  0.36739  0.91787  Biso   1.000  O
  O72      1.0000 0.23167  0.38717  0.78767  Biso   1.000  O
  C386     1.0000 0.24430  0.38917  0.85937  Biso   1.000  C
  C387     1.0000 0.29098  0.42257  0.87747  Biso   1.000  C
  C388     1.0000 0.31849  0.44713  0.81597  Biso   1.000  C
  H176     1.0000 0.30823  0.44387  0.76377  Biso   1.000  H
  C389     1.0000 0.36205  0.47709  0.83337  Biso   1.000  C
  H177     1.0000 0.38033  0.49517  0.79337  Biso   1.000  H
  C390     1.0000 0.37748  0.47961  0.90977  Biso   1.000  C
  C391     1.0000 0.35009  0.45423  0.96787  Biso   1.000  C
  H178     1.0000 0.36083  0.45597  0.01937  Biso   1.000  H
  C392     1.0000 0.30658  0.42580  0.95327  Biso   1.000  C
  H179     1.0000 0.28833  0.40917  0.99457  Biso   1.000  H
  C393     1.0000 0.42478  0.50762  0.92637  Biso   1.000  C
  C394     1.0000 0.44519  0.48783  0.96277  Biso   1.000  C
  H180     1.0000 0.42963  0.45827  0.97237  Biso   1.000  H
  C395     1.0000 0.41983  0.60587  0.01007  Biso   1.000  C
  C396     1.0000 0.37393  0.58997  0.86967  Biso   1.000  C
  Cu1      1.0000 0.83905  0.16095  0.09155  Biso   1.000  Cu
  Cu2      1.0000 0.50572  0.49428  0.42488  Biso   1.000  Cu
  Cu3      1.0000 0.17238  0.82762  0.75822  Biso   1.000  Cu
  Cu4      1.0000 0.83905  0.67810  0.09155  Biso   1.000  Cu
  Cu5      1.0000 0.50572  0.01143  0.42488  Biso   1.000  Cu
  Cu6      1.0000 0.17238  0.34477  0.75822  Biso   1.000  Cu
  Cu7      1.0000 0.32190  0.16095  0.09155  Biso   1.000  Cu
  Cu8      1.0000 0.98857  0.49428  0.42488  Biso   1.000  Cu
  Cu9      1.0000 0.65523  0.82762  0.75822  Biso   1.000  Cu
  Cu10     1.0000 0.16095  0.83905  0.90845  Biso   1.000  Cu
  Cu11     1.0000 0.82762  0.17238  0.24178  Biso   1.000  Cu
  Cu12     1.0000 0.49428  0.50572  0.57512  Biso   1.000  Cu
  Cu13     1.0000 0.67810  0.83905  0.90845  Biso   1.000  Cu
  Cu14     1.0000 0.34477  0.17238  0.24178  Biso   1.000  Cu
  Cu15     1.0000 0.01143  0.50572  0.57512  Biso   1.000  Cu
  Cu16     1.0000 0.16095  0.32190  0.90845  Biso   1.000  Cu
  Cu17     1.0000 0.82762  0.65523  0.24178  Biso   1.000  Cu
  Cu18     1.0000 0.49428  0.98857  0.57512  Biso   1.000  Cu
  O73      1.0000 0.09477  0.18955  0.20670  Biso   1.000  O
  C397     1.0000 0.15545  0.31090  0.31900  Biso   1.000  C
  C398     1.0000 0.11470  0.22940  0.24300  Biso   1.000  C
  C399     1.0000 0.07630  0.15260  0.25820  Biso   1.000  C
  O74      1.0000 0.76144  0.52288  0.54003  Biso   1.000  O
  C400     1.0000 0.82212  0.64423  0.65233  Biso   1.000  C
  C401     1.0000 0.78137  0.56273  0.57633  Biso   1.000  C
  C402     1.0000 0.74297  0.48593  0.59153  Biso   1.000  C
  O75      1.0000 0.42811  0.85622  0.87337  Biso   1.000  O
  C403     1.0000 0.48878  0.97757  0.98567  Biso   1.000  C
  C404     1.0000 0.44803  0.89607  0.90967  Biso   1.000  C
  C405     1.0000 0.40963  0.81927  0.92487  Biso   1.000  C
  O76      1.0000 0.81045  0.90523  0.20670  Biso   1.000  O
  C406     1.0000 0.68910  0.84455  0.31900  Biso   1.000  C
  C407     1.0000 0.77060  0.88530  0.24300  Biso   1.000  C
  C408     1.0000 0.84740  0.92370  0.25820  Biso   1.000  C
  O77      1.0000 0.47712  0.23856  0.54003  Biso   1.000  O
  C409     1.0000 0.35577  0.17788  0.65233  Biso   1.000  C
  C410     1.0000 0.43727  0.21863  0.57633  Biso   1.000  C
  C411     1.0000 0.51407  0.25703  0.59153  Biso   1.000  C
  O78      1.0000 0.14378  0.57189  0.87337  Biso   1.000  O
  C412     1.0000 0.02243  0.51122  0.98567  Biso   1.000  C
  C413     1.0000 0.10393  0.55197  0.90967  Biso   1.000  C
  C414     1.0000 0.18073  0.59037  0.92487  Biso   1.000  C
  O79      1.0000 0.09477  0.90523  0.20670  Biso   1.000  O
  C415     1.0000 0.15545  0.84455  0.31900  Biso   1.000  C
  C416     1.0000 0.11470  0.88530  0.24300  Biso   1.000  C
  C417     1.0000 0.07630  0.92370  0.25820  Biso   1.000  C
  O80      1.0000 0.76144  0.23856  0.54003  Biso   1.000  O
  C418     1.0000 0.82212  0.17788  0.65233  Biso   1.000  C
  C419     1.0000 0.78137  0.21863  0.57633  Biso   1.000  C
  C420     1.0000 0.74297  0.25703  0.59153  Biso   1.000  C
  O81      1.0000 0.42811  0.57189  0.87337  Biso   1.000  O
  C421     1.0000 0.48878  0.51122  0.98567  Biso   1.000  C
  C422     1.0000 0.44803  0.55197  0.90967  Biso   1.000  C
  C423     1.0000 0.40963  0.59037  0.92487  Biso   1.000  C
  O82      1.0000 0.18955  0.09477  0.79330  Biso   1.000  O
  C424     1.0000 0.31090  0.15545  0.68100  Biso   1.000  C
  C425     1.0000 0.22940  0.11470  0.75700  Biso   1.000  C
  C426     1.0000 0.15260  0.07630  0.74180  Biso   1.000  C
  O83      1.0000 0.85622  0.42811  0.12663  Biso   1.000  O
  C427     1.0000 0.97757  0.48878  0.01433  Biso   1.000  C
  C428     1.0000 0.89607  0.44803  0.09033  Biso   1.000  C
  C429     1.0000 0.81927  0.40963  0.07513  Biso   1.000  C
  O84      1.0000 0.52288  0.76144  0.45997  Biso   1.000  O
  C430     1.0000 0.64423  0.82212  0.34767  Biso   1.000  C
  C431     1.0000 0.56273  0.78137  0.42367  Biso   1.000  C
  C432     1.0000 0.48593  0.74297  0.40847  Biso   1.000  C
  O85      1.0000 0.90522  0.81045  0.79330  Biso   1.000  O
  C433     1.0000 0.84455  0.68910  0.68100  Biso   1.000  C
  C434     1.0000 0.88530  0.77060  0.75700  Biso   1.000  C
  C435     1.0000 0.92370  0.84740  0.74180  Biso   1.000  C
  O86      1.0000 0.57189  0.14378  0.12663  Biso   1.000  O
  C436     1.0000 0.51122  0.02243  0.01433  Biso   1.000  C
  C437     1.0000 0.55197  0.10393  0.09033  Biso   1.000  C
  C438     1.0000 0.59037  0.18073  0.07513  Biso   1.000  C
  O87      1.0000 0.23856  0.47712  0.45997  Biso   1.000  O
  C439     1.0000 0.17788  0.35577  0.34767  Biso   1.000  C
  C440     1.0000 0.21863  0.43727  0.42367  Biso   1.000  C
  C441     1.0000 0.25703  0.51407  0.40847  Biso   1.000  C
  O88      1.0000 0.90522  0.09477  0.79330  Biso   1.000  O
  C442     1.0000 0.84455  0.15545  0.68100  Biso   1.000  C
  C443     1.0000 0.88530  0.11470  0.75700  Biso   1.000  C
  C444     1.0000 0.92370  0.07630  0.74180  Biso   1.000  C
  O89      1.0000 0.57189  0.42811  0.12663  Biso   1.000  O
  C445     1.0000 0.51122  0.48878  0.01433  Biso   1.000  C
  C446     1.0000 0.55197  0.44803  0.09033  Biso   1.000  C
  C447     1.0000 0.59037  0.40963  0.07513  Biso   1.000  C
  O90      1.0000 0.23856  0.76144  0.45997  Biso   1.000  O
  C448     1.0000 0.17788  0.82212  0.34767  Biso   1.000  C
  C449     1.0000 0.21863  0.78137  0.42367  Biso   1.000  C
  C450     1.0000 0.25703  0.74297  0.40847  Biso   1.000  C
