data_image0
_cell_length_a       35.1608
_cell_length_b       35.1608
_cell_length_c       21.8459
_cell_angle_alpha    90
_cell_angle_beta     90
_cell_angle_gamma    120

_symmetry_space_group_name_H-M    "P 1"
_symmetry_int_tables_number       1

loop_
  _symmetry_equiv_pos_as_xyz
  'x, y, z'

loop_
  _atom_site_label
  _atom_site_occupancy
  _atom_site_fract_x
  _atom_site_fract_y
  _atom_site_fract_z
  _atom_site_thermal_displace_type
  _atom_site_B_iso_or_equiv
  _atom_site_type_symbol
  O1       1.0000 0.36247  0.22047  0.59732  Biso   1.000  O
  O2       1.0000 0.38888  0.23383  0.69337  Biso   1.000  O
  C1       1.0000 0.38761  0.24483  0.63939  Biso   1.000  C
  C2       1.0000 0.41926  0.29177  0.62163  Biso   1.000  C
  C3       1.0000 0.44676  0.32199  0.66578  Biso   1.000  C
  H1       1.0000 0.44630  0.31290  0.70590  Biso   1.000  H
  C4       1.0000 0.47433  0.36489  0.64987  Biso   1.000  C
  H2       1.0000 0.49230  0.38460  0.67960  Biso   1.000  H
  C5       1.0000 0.47616  0.37950  0.59094  Biso   1.000  C
  C6       1.0000 0.44907  0.34935  0.54638  Biso   1.000  C
  H3       1.0000 0.45000  0.35840  0.50610  Biso   1.000  H
  C7       1.0000 0.42094  0.30607  0.56269  Biso   1.000  C
  H4       1.0000 0.40280  0.28630  0.53310  Biso   1.000  H
  C8       1.0000 0.50433  0.42647  0.57233  Biso   1.000  C
  C9       1.0000 0.48654  0.44590  0.53720  Biso   1.000  C
  H5       1.0000 0.45740  0.42900  0.52500  Biso   1.000  H
  C10      1.0000 0.61490  0.42530  0.53730  Biso   1.000  C
  C11      1.0000 0.59170  0.38080  0.64170  Biso   1.000  C
  O3       1.0000 0.02914  0.55380  0.93065  Biso   1.000  O
  O4       1.0000 0.05555  0.56716  0.02670  Biso   1.000  O
  C12      1.0000 0.05428  0.57816  0.97272  Biso   1.000  C
  C13      1.0000 0.08593  0.62510  0.95496  Biso   1.000  C
  C14      1.0000 0.11343  0.65532  0.99911  Biso   1.000  C
  H6       1.0000 0.11297  0.64623  0.03923  Biso   1.000  H
  C15      1.0000 0.14100  0.69822  0.98320  Biso   1.000  C
  H7       1.0000 0.15897  0.71793  0.01293  Biso   1.000  H
  C16      1.0000 0.14283  0.71283  0.92427  Biso   1.000  C
  C17      1.0000 0.11574  0.68268  0.87971  Biso   1.000  C
  H8       1.0000 0.11667  0.69173  0.83943  Biso   1.000  H
  C18      1.0000 0.08761  0.63940  0.89602  Biso   1.000  C
  H9       1.0000 0.06947  0.61963  0.86643  Biso   1.000  H
  C19      1.0000 0.17100  0.75980  0.90566  Biso   1.000  C
  C20      1.0000 0.15321  0.77923  0.87053  Biso   1.000  C
  H10      1.0000 0.12407  0.76233  0.85833  Biso   1.000  H
  C21      1.0000 0.28157  0.75863  0.87063  Biso   1.000  C
  C22      1.0000 0.25837  0.71413  0.97503  Biso   1.000  C
  O5       1.0000 0.69580  0.88714  0.26399  Biso   1.000  O
  O6       1.0000 0.72221  0.90050  0.36004  Biso   1.000  O
  C23      1.0000 0.72094  0.91150  0.30606  Biso   1.000  C
  C24      1.0000 0.75259  0.95844  0.28830  Biso   1.000  C
  C25      1.0000 0.78009  0.98866  0.33245  Biso   1.000  C
  H11      1.0000 0.77963  0.97957  0.37257  Biso   1.000  H
  C26      1.0000 0.80766  0.03156  0.31654  Biso   1.000  C
  H12      1.0000 0.82563  0.05127  0.34627  Biso   1.000  H
  C27      1.0000 0.80949  0.04617  0.25761  Biso   1.000  C
  C28      1.0000 0.78240  0.01602  0.21305  Biso   1.000  C
  H13      1.0000 0.78333  0.02507  0.17277  Biso   1.000  H
  C29      1.0000 0.75427  0.97274  0.22936  Biso   1.000  C
  H14      1.0000 0.73613  0.95297  0.19977  Biso   1.000  H
  C30      1.0000 0.83766  0.09314  0.23900  Biso   1.000  C
  C31      1.0000 0.81987  0.11257  0.20387  Biso   1.000  C
  H15      1.0000 0.79073  0.09567  0.19167  Biso   1.000  H
  C32      1.0000 0.94823  0.09197  0.20397  Biso   1.000  C
  C33      1.0000 0.92503  0.04747  0.30837  Biso   1.000  C
  O7       1.0000 0.77953  0.14200  0.59732  Biso   1.000  O
  O8       1.0000 0.76617  0.15505  0.69337  Biso   1.000  O
  C34      1.0000 0.75517  0.14278  0.63939  Biso   1.000  C
  C35      1.0000 0.70823  0.12749  0.62163  Biso   1.000  C
  C36      1.0000 0.67801  0.12477  0.66578  Biso   1.000  C
  H16      1.0000 0.68710  0.13340  0.70590  Biso   1.000  H
  C37      1.0000 0.63511  0.10944  0.64987  Biso   1.000  C
  H17      1.0000 0.61540  0.10770  0.67960  Biso   1.000  H
  C38      1.0000 0.62050  0.09666  0.59094  Biso   1.000  C
  C39      1.0000 0.65065  0.09972  0.54638  Biso   1.000  C
  H18      1.0000 0.64160  0.09160  0.50610  Biso   1.000  H
  C40      1.0000 0.69393  0.11487  0.56269  Biso   1.000  C
  H19      1.0000 0.71370  0.11650  0.53310  Biso   1.000  H
  C41      1.0000 0.57353  0.07786  0.57233  Biso   1.000  C
  C42      1.0000 0.55410  0.04064  0.53720  Biso   1.000  C
  H20      1.0000 0.57100  0.02840  0.52500  Biso   1.000  H
  C43      1.0000 0.57470  0.18960  0.53730  Biso   1.000  C
  C44      1.0000 0.61920  0.21090  0.64170  Biso   1.000  C
  O9       1.0000 0.44620  0.47533  0.93065  Biso   1.000  O
  O10      1.0000 0.43284  0.48838  0.02670  Biso   1.000  O
  C45      1.0000 0.42184  0.47611  0.97272  Biso   1.000  C
  C46      1.0000 0.37490  0.46082  0.95496  Biso   1.000  C
  C47      1.0000 0.34468  0.45810  0.99911  Biso   1.000  C
  H21      1.0000 0.35377  0.46673  0.03923  Biso   1.000  H
  C48      1.0000 0.30178  0.44277  0.98320  Biso   1.000  C
  H22      1.0000 0.28207  0.44103  0.01293  Biso   1.000  H
  C49      1.0000 0.28717  0.42999  0.92427  Biso   1.000  C
  C50      1.0000 0.31732  0.43305  0.87971  Biso   1.000  C
  H23      1.0000 0.30827  0.42493  0.83943  Biso   1.000  H
  C51      1.0000 0.36060  0.44820  0.89602  Biso   1.000  C
  H24      1.0000 0.38037  0.44983  0.86643  Biso   1.000  H
  C52      1.0000 0.24020  0.41119  0.90566  Biso   1.000  C
  C53      1.0000 0.22077  0.37397  0.87053  Biso   1.000  C
  H25      1.0000 0.23767  0.36173  0.85833  Biso   1.000  H
  C54      1.0000 0.24137  0.52293  0.87063  Biso   1.000  C
  C55      1.0000 0.28587  0.54423  0.97503  Biso   1.000  C
  O11      1.0000 0.11286  0.80867  0.26399  Biso   1.000  O
  O12      1.0000 0.09950  0.82172  0.36004  Biso   1.000  O
  C56      1.0000 0.08850  0.80945  0.30606  Biso   1.000  C
  C57      1.0000 0.04156  0.79416  0.28830  Biso   1.000  C
  C58      1.0000 0.01134  0.79144  0.33245  Biso   1.000  C
  H26      1.0000 0.02043  0.80007  0.37257  Biso   1.000  H
  C59      1.0000 0.96844  0.77611  0.31654  Biso   1.000  C
  H27      1.0000 0.94873  0.77437  0.34627  Biso   1.000  H
  C60      1.0000 0.95383  0.76333  0.25761  Biso   1.000  C
  C61      1.0000 0.98398  0.76639  0.21305  Biso   1.000  C
  H28      1.0000 0.97493  0.75827  0.17277  Biso   1.000  H
  C62      1.0000 0.02726  0.78154  0.22936  Biso   1.000  C
  H29      1.0000 0.04703  0.78317  0.19977  Biso   1.000  H
  C63      1.0000 0.90686  0.74453  0.23900  Biso   1.000  C
  C64      1.0000 0.88743  0.70731  0.20387  Biso   1.000  C
  H30      1.0000 0.90433  0.69507  0.19167  Biso   1.000  H
  C65      1.0000 0.90803  0.85627  0.20397  Biso   1.000  C
  C66      1.0000 0.95253  0.87757  0.30837  Biso   1.000  C
  O13      1.0000 0.85800  0.63753  0.59732  Biso   1.000  O
  O14      1.0000 0.84495  0.61112  0.69337  Biso   1.000  O
  C67      1.0000 0.85722  0.61239  0.63939  Biso   1.000  C
  C68      1.0000 0.87251  0.58074  0.62163  Biso   1.000  C
  C69      1.0000 0.87523  0.55324  0.66578  Biso   1.000  C
  H31      1.0000 0.86660  0.55370  0.70590  Biso   1.000  H
  C70      1.0000 0.89056  0.52567  0.64987  Biso   1.000  C
  H32      1.0000 0.89230  0.50770  0.67960  Biso   1.000  H
  C71      1.0000 0.90334  0.52384  0.59094  Biso   1.000  C
  C72      1.0000 0.90028  0.55093  0.54638  Biso   1.000  C
  H33      1.0000 0.90840  0.55000  0.50610  Biso   1.000  H
  C73      1.0000 0.88513  0.57906  0.56269  Biso   1.000  C
  H34      1.0000 0.88350  0.59720  0.53310  Biso   1.000  H
  C74      1.0000 0.92214  0.49567  0.57233  Biso   1.000  C
  C75      1.0000 0.95936  0.51346  0.53720  Biso   1.000  C
  H35      1.0000 0.97160  0.54260  0.52500  Biso   1.000  H
  C76      1.0000 0.81040  0.38510  0.53730  Biso   1.000  C
  C77      1.0000 0.78910  0.40830  0.64170  Biso   1.000  C
  O15      1.0000 0.52467  0.97086  0.93065  Biso   1.000  O
  O16      1.0000 0.51162  0.94445  0.02670  Biso   1.000  O
  C78      1.0000 0.52389  0.94572  0.97272  Biso   1.000  C
  C79      1.0000 0.53918  0.91407  0.95496  Biso   1.000  C
  C80      1.0000 0.54190  0.88657  0.99911  Biso   1.000  C
  H36      1.0000 0.53327  0.88703  0.03923  Biso   1.000  H
  C81      1.0000 0.55723  0.85900  0.98320  Biso   1.000  C
  H37      1.0000 0.55897  0.84103  0.01293  Biso   1.000  H
  C82      1.0000 0.57001  0.85717  0.92427  Biso   1.000  C
  C83      1.0000 0.56695  0.88426  0.87971  Biso   1.000  C
  H38      1.0000 0.57507  0.88333  0.83943  Biso   1.000  H
  C84      1.0000 0.55180  0.91239  0.89602  Biso   1.000  C
  H39      1.0000 0.55017  0.93053  0.86643  Biso   1.000  H
  C85      1.0000 0.58881  0.82900  0.90566  Biso   1.000  C
  C86      1.0000 0.62603  0.84679  0.87053  Biso   1.000  C
  H40      1.0000 0.63827  0.87593  0.85833  Biso   1.000  H
  C87      1.0000 0.47707  0.71843  0.87063  Biso   1.000  C
  C88      1.0000 0.45577  0.74163  0.97503  Biso   1.000  C
  O17      1.0000 0.19133  0.30420  0.26399  Biso   1.000  O
  O18      1.0000 0.17828  0.27779  0.36004  Biso   1.000  O
  C89      1.0000 0.19055  0.27906  0.30606  Biso   1.000  C
  C90      1.0000 0.20584  0.24741  0.28830  Biso   1.000  C
  C91      1.0000 0.20856  0.21991  0.33245  Biso   1.000  C
  H41      1.0000 0.19993  0.22037  0.37257  Biso   1.000  H
  C92      1.0000 0.22389  0.19234  0.31654  Biso   1.000  C
  H42      1.0000 0.22563  0.17437  0.34627  Biso   1.000  H
  C93      1.0000 0.23667  0.19051  0.25761  Biso   1.000  C
  C94      1.0000 0.23361  0.21760  0.21305  Biso   1.000  C
  H43      1.0000 0.24173  0.21667  0.17277  Biso   1.000  H
  C95      1.0000 0.21846  0.24573  0.22936  Biso   1.000  C
  H44      1.0000 0.21683  0.26387  0.19977  Biso   1.000  H
  C96      1.0000 0.25547  0.16234  0.23900  Biso   1.000  C
  C97      1.0000 0.29269  0.18013  0.20387  Biso   1.000  C
  H45      1.0000 0.30493  0.20927  0.19167  Biso   1.000  H
  C98      1.0000 0.14373  0.05177  0.20397  Biso   1.000  C
  C99      1.0000 0.12243  0.07497  0.30837  Biso   1.000  C
  O19      1.0000 0.22047  0.36247  0.40268  Biso   1.000  O
  O20      1.0000 0.23383  0.38888  0.30663  Biso   1.000  O
  C100     1.0000 0.24483  0.38761  0.36061  Biso   1.000  C
  C101     1.0000 0.29177  0.41926  0.37837  Biso   1.000  C
  C102     1.0000 0.32199  0.44676  0.33422  Biso   1.000  C
  H46      1.0000 0.31290  0.44630  0.29410  Biso   1.000  H
  C103     1.0000 0.36489  0.47433  0.35013  Biso   1.000  C
  H47      1.0000 0.38460  0.49230  0.32040  Biso   1.000  H
  C104     1.0000 0.37950  0.47616  0.40906  Biso   1.000  C
  C105     1.0000 0.34935  0.44907  0.45362  Biso   1.000  C
  H48      1.0000 0.35840  0.45000  0.49390  Biso   1.000  H
  C106     1.0000 0.30607  0.42094  0.43731  Biso   1.000  C
  H49      1.0000 0.28630  0.40280  0.46690  Biso   1.000  H
  C107     1.0000 0.42647  0.50433  0.42767  Biso   1.000  C
  C108     1.0000 0.44590  0.48654  0.46280  Biso   1.000  C
  H50      1.0000 0.42900  0.45740  0.47500  Biso   1.000  H
  C109     1.0000 0.42530  0.61490  0.46270  Biso   1.000  C
  C110     1.0000 0.38080  0.59170  0.35830  Biso   1.000  C
  O21      1.0000 0.88714  0.69580  0.73601  Biso   1.000  O
  O22      1.0000 0.90050  0.72221  0.63996  Biso   1.000  O
  C111     1.0000 0.91150  0.72094  0.69394  Biso   1.000  C
  C112     1.0000 0.95844  0.75259  0.71170  Biso   1.000  C
  C113     1.0000 0.98866  0.78009  0.66755  Biso   1.000  C
  H51      1.0000 0.97957  0.77963  0.62743  Biso   1.000  H
  C114     1.0000 0.03156  0.80766  0.68346  Biso   1.000  C
  H52      1.0000 0.05127  0.82563  0.65373  Biso   1.000  H
  C115     1.0000 0.04617  0.80949  0.74239  Biso   1.000  C
  C116     1.0000 0.01602  0.78240  0.78695  Biso   1.000  C
  H53      1.0000 0.02507  0.78333  0.82723  Biso   1.000  H
  C117     1.0000 0.97274  0.75427  0.77064  Biso   1.000  C
  H54      1.0000 0.95297  0.73613  0.80023  Biso   1.000  H
  C118     1.0000 0.09314  0.83766  0.76100  Biso   1.000  C
  C119     1.0000 0.11257  0.81987  0.79613  Biso   1.000  C
  H55      1.0000 0.09567  0.79073  0.80833  Biso   1.000  H
  C120     1.0000 0.09197  0.94823  0.79603  Biso   1.000  C
  C121     1.0000 0.04747  0.92503  0.69163  Biso   1.000  C
  O23      1.0000 0.55380  0.02914  0.06935  Biso   1.000  O
  O24      1.0000 0.56716  0.05555  0.97330  Biso   1.000  O
  C122     1.0000 0.57816  0.05428  0.02728  Biso   1.000  C
  C123     1.0000 0.62510  0.08593  0.04504  Biso   1.000  C
  C124     1.0000 0.65532  0.11343  0.00089  Biso   1.000  C
  H56      1.0000 0.64623  0.11297  0.96077  Biso   1.000  H
  C125     1.0000 0.69822  0.14100  0.01680  Biso   1.000  C
  H57      1.0000 0.71793  0.15897  0.98707  Biso   1.000  H
  C126     1.0000 0.71283  0.14283  0.07573  Biso   1.000  C
  C127     1.0000 0.68268  0.11574  0.12029  Biso   1.000  C
  H58      1.0000 0.69173  0.11667  0.16057  Biso   1.000  H
  C128     1.0000 0.63940  0.08761  0.10398  Biso   1.000  C
  H59      1.0000 0.61963  0.06947  0.13357  Biso   1.000  H
  C129     1.0000 0.75980  0.17100  0.09434  Biso   1.000  C
  C130     1.0000 0.77923  0.15321  0.12947  Biso   1.000  C
  H60      1.0000 0.76233  0.12407  0.14167  Biso   1.000  H
  C131     1.0000 0.75863  0.28157  0.12937  Biso   1.000  C
  C132     1.0000 0.71413  0.25837  0.02497  Biso   1.000  C
  O25      1.0000 0.14200  0.77953  0.40268  Biso   1.000  O
  O26      1.0000 0.15505  0.76617  0.30663  Biso   1.000  O
  C133     1.0000 0.14278  0.75517  0.36061  Biso   1.000  C
  C134     1.0000 0.12749  0.70823  0.37837  Biso   1.000  C
  C135     1.0000 0.12477  0.67801  0.33422  Biso   1.000  C
  H61      1.0000 0.13340  0.68710  0.29410  Biso   1.000  H
  C136     1.0000 0.10944  0.63511  0.35013  Biso   1.000  C
  H62      1.0000 0.10770  0.61540  0.32040  Biso   1.000  H
  C137     1.0000 0.09666  0.62050  0.40906  Biso   1.000  C
  C138     1.0000 0.09972  0.65065  0.45362  Biso   1.000  C
  H63      1.0000 0.09160  0.64160  0.49390  Biso   1.000  H
  C139     1.0000 0.11487  0.69393  0.43731  Biso   1.000  C
  H64      1.0000 0.11650  0.71370  0.46690  Biso   1.000  H
  C140     1.0000 0.07786  0.57353  0.42767  Biso   1.000  C
  C141     1.0000 0.04064  0.55410  0.46280  Biso   1.000  C
  H65      1.0000 0.02840  0.57100  0.47500  Biso   1.000  H
  C142     1.0000 0.18960  0.57470  0.46270  Biso   1.000  C
  C143     1.0000 0.21090  0.61920  0.35830  Biso   1.000  C
  O27      1.0000 0.80867  0.11286  0.73601  Biso   1.000  O
  O28      1.0000 0.82172  0.09950  0.63996  Biso   1.000  O
  C144     1.0000 0.80945  0.08850  0.69394  Biso   1.000  C
  C145     1.0000 0.79416  0.04156  0.71170  Biso   1.000  C
  C146     1.0000 0.79144  0.01134  0.66755  Biso   1.000  C
  H66      1.0000 0.80007  0.02043  0.62743  Biso   1.000  H
  C147     1.0000 0.77611  0.96844  0.68346  Biso   1.000  C
  H67      1.0000 0.77437  0.94873  0.65373  Biso   1.000  H
  C148     1.0000 0.76333  0.95383  0.74239  Biso   1.000  C
  C149     1.0000 0.76639  0.98398  0.78695  Biso   1.000  C
  H68      1.0000 0.75827  0.97493  0.82723  Biso   1.000  H
  C150     1.0000 0.78154  0.02726  0.77064  Biso   1.000  C
  H69      1.0000 0.78317  0.04703  0.80023  Biso   1.000  H
  C151     1.0000 0.74453  0.90686  0.76100  Biso   1.000  C
  C152     1.0000 0.70731  0.88743  0.79613  Biso   1.000  C
  H70      1.0000 0.69507  0.90433  0.80833  Biso   1.000  H
  C153     1.0000 0.85627  0.90803  0.79603  Biso   1.000  C
  C154     1.0000 0.87757  0.95253  0.69163  Biso   1.000  C
  O29      1.0000 0.47533  0.44620  0.06935  Biso   1.000  O
  O30      1.0000 0.48838  0.43284  0.97330  Biso   1.000  O
  C155     1.0000 0.47611  0.42184  0.02728  Biso   1.000  C
  C156     1.0000 0.46082  0.37490  0.04504  Biso   1.000  C
  C157     1.0000 0.45810  0.34468  0.00089  Biso   1.000  C
  H71      1.0000 0.46673  0.35377  0.96077  Biso   1.000  H
  C158     1.0000 0.44277  0.30178  0.01680  Biso   1.000  C
  H72      1.0000 0.44103  0.28207  0.98707  Biso   1.000  H
  C159     1.0000 0.42999  0.28717  0.07573  Biso   1.000  C
  C160     1.0000 0.43305  0.31732  0.12029  Biso   1.000  C
  H73      1.0000 0.42493  0.30827  0.16057  Biso   1.000  H
  C161     1.0000 0.44820  0.36060  0.10398  Biso   1.000  C
  H74      1.0000 0.44983  0.38037  0.13357  Biso   1.000  H
  C162     1.0000 0.41119  0.24020  0.09434  Biso   1.000  C
  C163     1.0000 0.37397  0.22077  0.12947  Biso   1.000  C
  H75      1.0000 0.36173  0.23767  0.14167  Biso   1.000  H
  C164     1.0000 0.52293  0.24137  0.12937  Biso   1.000  C
  C165     1.0000 0.54423  0.28587  0.02497  Biso   1.000  C
  O31      1.0000 0.63753  0.85800  0.40268  Biso   1.000  O
  O32      1.0000 0.61112  0.84495  0.30663  Biso   1.000  O
  C166     1.0000 0.61239  0.85722  0.36061  Biso   1.000  C
  C167     1.0000 0.58074  0.87251  0.37837  Biso   1.000  C
  C168     1.0000 0.55324  0.87523  0.33422  Biso   1.000  C
  H76      1.0000 0.55370  0.86660  0.29410  Biso   1.000  H
  C169     1.0000 0.52567  0.89056  0.35013  Biso   1.000  C
  H77      1.0000 0.50770  0.89230  0.32040  Biso   1.000  H
  C170     1.0000 0.52384  0.90334  0.40906  Biso   1.000  C
  C171     1.0000 0.55093  0.90028  0.45362  Biso   1.000  C
  H78      1.0000 0.55000  0.90840  0.49390  Biso   1.000  H
  C172     1.0000 0.57906  0.88513  0.43731  Biso   1.000  C
  H79      1.0000 0.59720  0.88350  0.46690  Biso   1.000  H
  C173     1.0000 0.49567  0.92214  0.42767  Biso   1.000  C
  C174     1.0000 0.51346  0.95936  0.46280  Biso   1.000  C
  H80      1.0000 0.54260  0.97160  0.47500  Biso   1.000  H
  C175     1.0000 0.38510  0.81040  0.46270  Biso   1.000  C
  C176     1.0000 0.40830  0.78910  0.35830  Biso   1.000  C
  O33      1.0000 0.30420  0.19133  0.73601  Biso   1.000  O
  O34      1.0000 0.27779  0.17828  0.63996  Biso   1.000  O
  C177     1.0000 0.27906  0.19055  0.69394  Biso   1.000  C
  C178     1.0000 0.24741  0.20584  0.71170  Biso   1.000  C
  C179     1.0000 0.21991  0.20856  0.66755  Biso   1.000  C
  H81      1.0000 0.22037  0.19993  0.62743  Biso   1.000  H
  C180     1.0000 0.19234  0.22389  0.68346  Biso   1.000  C
  H82      1.0000 0.17437  0.22563  0.65373  Biso   1.000  H
  C181     1.0000 0.19051  0.23667  0.74239  Biso   1.000  C
  C182     1.0000 0.21760  0.23361  0.78695  Biso   1.000  C
  H83      1.0000 0.21667  0.24173  0.82723  Biso   1.000  H
  C183     1.0000 0.24573  0.21846  0.77064  Biso   1.000  C
  H84      1.0000 0.26387  0.21683  0.80023  Biso   1.000  H
  C184     1.0000 0.16234  0.25547  0.76100  Biso   1.000  C
  C185     1.0000 0.18013  0.29269  0.79613  Biso   1.000  C
  H85      1.0000 0.20927  0.30493  0.80833  Biso   1.000  H
  C186     1.0000 0.05177  0.14373  0.79603  Biso   1.000  C
  C187     1.0000 0.07497  0.12243  0.69163  Biso   1.000  C
  O35      1.0000 0.97086  0.52467  0.06935  Biso   1.000  O
  O36      1.0000 0.94445  0.51162  0.97330  Biso   1.000  O
  C188     1.0000 0.94572  0.52389  0.02728  Biso   1.000  C
  C189     1.0000 0.91407  0.53918  0.04504  Biso   1.000  C
  C190     1.0000 0.88657  0.54190  0.00089  Biso   1.000  C
  H86      1.0000 0.88703  0.53327  0.96077  Biso   1.000  H
  C191     1.0000 0.85900  0.55723  0.01680  Biso   1.000  C
  H87      1.0000 0.84103  0.55897  0.98707  Biso   1.000  H
  C192     1.0000 0.85717  0.57001  0.07573  Biso   1.000  C
  C193     1.0000 0.88426  0.56695  0.12029  Biso   1.000  C
  H88      1.0000 0.88333  0.57507  0.16057  Biso   1.000  H
  C194     1.0000 0.91239  0.55180  0.10398  Biso   1.000  C
  H89      1.0000 0.93053  0.55017  0.13357  Biso   1.000  H
  C195     1.0000 0.82900  0.58881  0.09434  Biso   1.000  C
  C196     1.0000 0.84679  0.62603  0.12947  Biso   1.000  C
  H90      1.0000 0.87593  0.63827  0.14167  Biso   1.000  H
  C197     1.0000 0.71843  0.47707  0.12937  Biso   1.000  C
  C198     1.0000 0.74163  0.45577  0.02497  Biso   1.000  C
  O37      1.0000 0.63753  0.77953  0.40268  Biso   1.000  O
  O38      1.0000 0.61112  0.76617  0.30663  Biso   1.000  O
  C199     1.0000 0.61239  0.75517  0.36061  Biso   1.000  C
  C200     1.0000 0.58074  0.70823  0.37837  Biso   1.000  C
  C201     1.0000 0.55324  0.67801  0.33422  Biso   1.000  C
  H91      1.0000 0.55370  0.68710  0.29410  Biso   1.000  H
  C202     1.0000 0.52567  0.63511  0.35013  Biso   1.000  C
  H92      1.0000 0.50770  0.61540  0.32040  Biso   1.000  H
  C203     1.0000 0.52384  0.62050  0.40906  Biso   1.000  C
  C204     1.0000 0.55093  0.65065  0.45362  Biso   1.000  C
  H93      1.0000 0.55000  0.64160  0.49390  Biso   1.000  H
  C205     1.0000 0.57906  0.69393  0.43731  Biso   1.000  C
  H94      1.0000 0.59720  0.71370  0.46690  Biso   1.000  H
  C206     1.0000 0.49567  0.57353  0.42767  Biso   1.000  C
  C207     1.0000 0.51346  0.55410  0.46280  Biso   1.000  C
  H95      1.0000 0.54260  0.57100  0.47500  Biso   1.000  H
  C208     1.0000 0.38510  0.57470  0.46270  Biso   1.000  C
  C209     1.0000 0.40830  0.61920  0.35830  Biso   1.000  C
  O39      1.0000 0.30420  0.11286  0.73601  Biso   1.000  O
  O40      1.0000 0.27779  0.09950  0.63996  Biso   1.000  O
  C210     1.0000 0.27906  0.08850  0.69394  Biso   1.000  C
  C211     1.0000 0.24741  0.04156  0.71170  Biso   1.000  C
  C212     1.0000 0.21991  0.01134  0.66755  Biso   1.000  C
  H96      1.0000 0.22037  0.02043  0.62743  Biso   1.000  H
  C213     1.0000 0.19234  0.96844  0.68346  Biso   1.000  C
  H97      1.0000 0.17437  0.94873  0.65373  Biso   1.000  H
  C214     1.0000 0.19051  0.95383  0.74239  Biso   1.000  C
  C215     1.0000 0.21760  0.98398  0.78695  Biso   1.000  C
  H98      1.0000 0.21667  0.97493  0.82723  Biso   1.000  H
  C216     1.0000 0.24573  0.02726  0.77064  Biso   1.000  C
  H99      1.0000 0.26387  0.04703  0.80023  Biso   1.000  H
  C217     1.0000 0.16234  0.90686  0.76100  Biso   1.000  C
  C218     1.0000 0.18013  0.88743  0.79613  Biso   1.000  C
  H100     1.0000 0.20927  0.90433  0.80833  Biso   1.000  H
  C219     1.0000 0.05177  0.90803  0.79603  Biso   1.000  C
  C220     1.0000 0.07497  0.95253  0.69163  Biso   1.000  C
  O41      1.0000 0.97086  0.44620  0.06935  Biso   1.000  O
  O42      1.0000 0.94445  0.43284  0.97330  Biso   1.000  O
  C221     1.0000 0.94572  0.42184  0.02728  Biso   1.000  C
  C222     1.0000 0.91407  0.37490  0.04504  Biso   1.000  C
  C223     1.0000 0.88657  0.34468  0.00089  Biso   1.000  C
  H101     1.0000 0.88703  0.35377  0.96077  Biso   1.000  H
  C224     1.0000 0.85900  0.30178  0.01680  Biso   1.000  C
  H102     1.0000 0.84103  0.28207  0.98707  Biso   1.000  H
  C225     1.0000 0.85717  0.28717  0.07573  Biso   1.000  C
  C226     1.0000 0.88426  0.31732  0.12029  Biso   1.000  C
  H103     1.0000 0.88333  0.30827  0.16057  Biso   1.000  H
  C227     1.0000 0.91239  0.36060  0.10398  Biso   1.000  C
  H104     1.0000 0.93053  0.38037  0.13357  Biso   1.000  H
  C228     1.0000 0.82900  0.24020  0.09434  Biso   1.000  C
  C229     1.0000 0.84679  0.22077  0.12947  Biso   1.000  C
  H105     1.0000 0.87593  0.23767  0.14167  Biso   1.000  H
  C230     1.0000 0.71843  0.24137  0.12937  Biso   1.000  C
  C231     1.0000 0.74163  0.28587  0.02497  Biso   1.000  C
  O43      1.0000 0.22047  0.85800  0.40268  Biso   1.000  O
  O44      1.0000 0.23383  0.84495  0.30663  Biso   1.000  O
  C232     1.0000 0.24483  0.85722  0.36061  Biso   1.000  C
  C233     1.0000 0.29177  0.87251  0.37837  Biso   1.000  C
  C234     1.0000 0.32199  0.87523  0.33422  Biso   1.000  C
  H106     1.0000 0.31290  0.86660  0.29410  Biso   1.000  H
  C235     1.0000 0.36489  0.89056  0.35013  Biso   1.000  C
  H107     1.0000 0.38460  0.89230  0.32040  Biso   1.000  H
  C236     1.0000 0.37950  0.90334  0.40906  Biso   1.000  C
  C237     1.0000 0.34935  0.90028  0.45362  Biso   1.000  C
  H108     1.0000 0.35840  0.90840  0.49390  Biso   1.000  H
  C238     1.0000 0.30607  0.88513  0.43731  Biso   1.000  C
  H109     1.0000 0.28630  0.88350  0.46690  Biso   1.000  H
  C239     1.0000 0.42647  0.92214  0.42767  Biso   1.000  C
  C240     1.0000 0.44590  0.95936  0.46280  Biso   1.000  C
  H110     1.0000 0.42900  0.97160  0.47500  Biso   1.000  H
  C241     1.0000 0.42530  0.81040  0.46270  Biso   1.000  C
  C242     1.0000 0.38080  0.78910  0.35830  Biso   1.000  C
  O45      1.0000 0.88714  0.19133  0.73601  Biso   1.000  O
  O46      1.0000 0.90050  0.17828  0.63996  Biso   1.000  O
  C243     1.0000 0.91150  0.19055  0.69394  Biso   1.000  C
  C244     1.0000 0.95844  0.20584  0.71170  Biso   1.000  C
  C245     1.0000 0.98866  0.20856  0.66755  Biso   1.000  C
  H111     1.0000 0.97957  0.19993  0.62743  Biso   1.000  H
  C246     1.0000 0.03156  0.22389  0.68346  Biso   1.000  C
  H112     1.0000 0.05127  0.22563  0.65373  Biso   1.000  H
  C247     1.0000 0.04617  0.23667  0.74239  Biso   1.000  C
  C248     1.0000 0.01602  0.23361  0.78695  Biso   1.000  C
  H113     1.0000 0.02507  0.24173  0.82723  Biso   1.000  H
  C249     1.0000 0.97274  0.21846  0.77064  Biso   1.000  C
  H114     1.0000 0.95297  0.21683  0.80023  Biso   1.000  H
  C250     1.0000 0.09314  0.25547  0.76100  Biso   1.000  C
  C251     1.0000 0.11257  0.29269  0.79613  Biso   1.000  C
  H115     1.0000 0.09567  0.30493  0.80833  Biso   1.000  H
  C252     1.0000 0.09197  0.14373  0.79603  Biso   1.000  C
  C253     1.0000 0.04747  0.12243  0.69163  Biso   1.000  C
  O47      1.0000 0.55380  0.52467  0.06935  Biso   1.000  O
  O48      1.0000 0.56716  0.51162  0.97330  Biso   1.000  O
  C254     1.0000 0.57816  0.52389  0.02728  Biso   1.000  C
  C255     1.0000 0.62510  0.53918  0.04504  Biso   1.000  C
  C256     1.0000 0.65532  0.54190  0.00089  Biso   1.000  C
  H116     1.0000 0.64623  0.53327  0.96077  Biso   1.000  H
  C257     1.0000 0.69822  0.55723  0.01680  Biso   1.000  C
  H117     1.0000 0.71793  0.55897  0.98707  Biso   1.000  H
  C258     1.0000 0.71283  0.57001  0.07573  Biso   1.000  C
  C259     1.0000 0.68268  0.56695  0.12029  Biso   1.000  C
  H118     1.0000 0.69173  0.57507  0.16057  Biso   1.000  H
  C260     1.0000 0.63940  0.55180  0.10398  Biso   1.000  C
  H119     1.0000 0.61963  0.55017  0.13357  Biso   1.000  H
  C261     1.0000 0.75980  0.58881  0.09434  Biso   1.000  C
  C262     1.0000 0.77923  0.62603  0.12947  Biso   1.000  C
  H120     1.0000 0.76233  0.63827  0.14167  Biso   1.000  H
  C263     1.0000 0.75863  0.47707  0.12937  Biso   1.000  C
  C264     1.0000 0.71413  0.45577  0.02497  Biso   1.000  C
  O49      1.0000 0.14200  0.36247  0.40268  Biso   1.000  O
  O50      1.0000 0.15505  0.38888  0.30663  Biso   1.000  O
  C265     1.0000 0.14278  0.38761  0.36061  Biso   1.000  C
  C266     1.0000 0.12749  0.41926  0.37837  Biso   1.000  C
  C267     1.0000 0.12477  0.44676  0.33422  Biso   1.000  C
  H121     1.0000 0.13340  0.44630  0.29410  Biso   1.000  H
  C268     1.0000 0.10944  0.47433  0.35013  Biso   1.000  C
  H122     1.0000 0.10770  0.49230  0.32040  Biso   1.000  H
  C269     1.0000 0.09666  0.47616  0.40906  Biso   1.000  C
  C270     1.0000 0.09972  0.44907  0.45362  Biso   1.000  C
  H123     1.0000 0.09160  0.45000  0.49390  Biso   1.000  H
  C271     1.0000 0.11487  0.42094  0.43731  Biso   1.000  C
  H124     1.0000 0.11650  0.40280  0.46690  Biso   1.000  H
  C272     1.0000 0.07786  0.50433  0.42767  Biso   1.000  C
  C273     1.0000 0.04064  0.48654  0.46280  Biso   1.000  C
  H125     1.0000 0.02840  0.45740  0.47500  Biso   1.000  H
  C274     1.0000 0.18960  0.61490  0.46270  Biso   1.000  C
  C275     1.0000 0.21090  0.59170  0.35830  Biso   1.000  C
  O51      1.0000 0.80867  0.69580  0.73601  Biso   1.000  O
  O52      1.0000 0.82172  0.72221  0.63996  Biso   1.000  O
  C276     1.0000 0.80945  0.72094  0.69394  Biso   1.000  C
  C277     1.0000 0.79416  0.75259  0.71170  Biso   1.000  C
  C278     1.0000 0.79144  0.78009  0.66755  Biso   1.000  C
  H126     1.0000 0.80007  0.77963  0.62743  Biso   1.000  H
  C279     1.0000 0.77611  0.80766  0.68346  Biso   1.000  C
  H127     1.0000 0.77437  0.82563  0.65373  Biso   1.000  H
  C280     1.0000 0.76333  0.80949  0.74239  Biso   1.000  C
  C281     1.0000 0.76639  0.78240  0.78695  Biso   1.000  C
  H128     1.0000 0.75827  0.78333  0.82723  Biso   1.000  H
  C282     1.0000 0.78154  0.75427  0.77064  Biso   1.000  C
  H129     1.0000 0.78317  0.73613  0.80023  Biso   1.000  H
  C283     1.0000 0.74453  0.83766  0.76100  Biso   1.000  C
  C284     1.0000 0.70731  0.81987  0.79613  Biso   1.000  C
  H130     1.0000 0.69507  0.79073  0.80833  Biso   1.000  H
  C285     1.0000 0.85627  0.94823  0.79603  Biso   1.000  C
  C286     1.0000 0.87757  0.92503  0.69163  Biso   1.000  C
  O53      1.0000 0.47533  0.02914  0.06935  Biso   1.000  O
  O54      1.0000 0.48838  0.05555  0.97330  Biso   1.000  O
  C287     1.0000 0.47611  0.05428  0.02728  Biso   1.000  C
  C288     1.0000 0.46082  0.08593  0.04504  Biso   1.000  C
  C289     1.0000 0.45810  0.11343  0.00089  Biso   1.000  C
  H131     1.0000 0.46673  0.11297  0.96077  Biso   1.000  H
  C290     1.0000 0.44277  0.14100  0.01680  Biso   1.000  C
  H132     1.0000 0.44103  0.15897  0.98707  Biso   1.000  H
  C291     1.0000 0.42999  0.14283  0.07573  Biso   1.000  C
  C292     1.0000 0.43305  0.11574  0.12029  Biso   1.000  C
  H133     1.0000 0.42493  0.11667  0.16057  Biso   1.000  H
  C293     1.0000 0.44820  0.08761  0.10398  Biso   1.000  C
  H134     1.0000 0.44983  0.06947  0.13357  Biso   1.000  H
  C294     1.0000 0.41119  0.17100  0.09434  Biso   1.000  C
  C295     1.0000 0.37397  0.15321  0.12947  Biso   1.000  C
  H135     1.0000 0.36173  0.12407  0.14167  Biso   1.000  H
  C296     1.0000 0.52293  0.28157  0.12937  Biso   1.000  C
  C297     1.0000 0.54423  0.25837  0.02497  Biso   1.000  C
  O55      1.0000 0.77953  0.63753  0.59732  Biso   1.000  O
  O56      1.0000 0.76617  0.61112  0.69337  Biso   1.000  O
  C298     1.0000 0.75517  0.61239  0.63939  Biso   1.000  C
  C299     1.0000 0.70823  0.58074  0.62163  Biso   1.000  C
  C300     1.0000 0.67801  0.55324  0.66578  Biso   1.000  C
  H136     1.0000 0.68710  0.55370  0.70590  Biso   1.000  H
  C301     1.0000 0.63511  0.52567  0.64987  Biso   1.000  C
  H137     1.0000 0.61540  0.50770  0.67960  Biso   1.000  H
  C302     1.0000 0.62050  0.52384  0.59094  Biso   1.000  C
  C303     1.0000 0.65065  0.55093  0.54638  Biso   1.000  C
  H138     1.0000 0.64160  0.55000  0.50610  Biso   1.000  H
  C304     1.0000 0.69393  0.57906  0.56269  Biso   1.000  C
  H139     1.0000 0.71370  0.59720  0.53310  Biso   1.000  H
  C305     1.0000 0.57353  0.49567  0.57233  Biso   1.000  C
  C306     1.0000 0.55410  0.51346  0.53720  Biso   1.000  C
  H140     1.0000 0.57100  0.54260  0.52500  Biso   1.000  H
  C307     1.0000 0.57470  0.38510  0.53730  Biso   1.000  C
  C308     1.0000 0.61920  0.40830  0.64170  Biso   1.000  C
  O57      1.0000 0.44620  0.97086  0.93065  Biso   1.000  O
  O58      1.0000 0.43284  0.94445  0.02670  Biso   1.000  O
  C309     1.0000 0.42184  0.94572  0.97272  Biso   1.000  C
  C310     1.0000 0.37490  0.91407  0.95496  Biso   1.000  C
  C311     1.0000 0.34468  0.88657  0.99911  Biso   1.000  C
  H141     1.0000 0.35377  0.88703  0.03923  Biso   1.000  H
  C312     1.0000 0.30178  0.85900  0.98320  Biso   1.000  C
  H142     1.0000 0.28207  0.84103  0.01293  Biso   1.000  H
  C313     1.0000 0.28717  0.85717  0.92427  Biso   1.000  C
  C314     1.0000 0.31732  0.88426  0.87971  Biso   1.000  C
  H143     1.0000 0.30827  0.88333  0.83943  Biso   1.000  H
  C315     1.0000 0.36060  0.91239  0.89602  Biso   1.000  C
  H144     1.0000 0.38037  0.93053  0.86643  Biso   1.000  H
  C316     1.0000 0.24020  0.82900  0.90566  Biso   1.000  C
  C317     1.0000 0.22077  0.84679  0.87053  Biso   1.000  C
  H145     1.0000 0.23767  0.87593  0.85833  Biso   1.000  H
  C318     1.0000 0.24137  0.71843  0.87063  Biso   1.000  C
  C319     1.0000 0.28587  0.74163  0.97503  Biso   1.000  C
  O59      1.0000 0.11286  0.30420  0.26399  Biso   1.000  O
  O60      1.0000 0.09950  0.27779  0.36004  Biso   1.000  O
  C320     1.0000 0.08850  0.27906  0.30606  Biso   1.000  C
  C321     1.0000 0.04156  0.24741  0.28830  Biso   1.000  C
  C322     1.0000 0.01134  0.21991  0.33245  Biso   1.000  C
  H146     1.0000 0.02043  0.22037  0.37257  Biso   1.000  H
  C323     1.0000 0.96844  0.19234  0.31654  Biso   1.000  C
  H147     1.0000 0.94873  0.17437  0.34627  Biso   1.000  H
  C324     1.0000 0.95383  0.19051  0.25761  Biso   1.000  C
  C325     1.0000 0.98398  0.21760  0.21305  Biso   1.000  C
  H148     1.0000 0.97493  0.21667  0.17277  Biso   1.000  H
  C326     1.0000 0.02726  0.24573  0.22936  Biso   1.000  C
  H149     1.0000 0.04703  0.26387  0.19977  Biso   1.000  H
  C327     1.0000 0.90686  0.16234  0.23900  Biso   1.000  C
  C328     1.0000 0.88743  0.18013  0.20387  Biso   1.000  C
  H150     1.0000 0.90433  0.20927  0.19167  Biso   1.000  H
  C329     1.0000 0.90803  0.05177  0.20397  Biso   1.000  C
  C330     1.0000 0.95253  0.07497  0.30837  Biso   1.000  C
  O61      1.0000 0.85800  0.22047  0.59732  Biso   1.000  O
  O62      1.0000 0.84495  0.23383  0.69337  Biso   1.000  O
  C331     1.0000 0.85722  0.24483  0.63939  Biso   1.000  C
  C332     1.0000 0.87251  0.29177  0.62163  Biso   1.000  C
  C333     1.0000 0.87523  0.32199  0.66578  Biso   1.000  C
  H151     1.0000 0.86660  0.31290  0.70590  Biso   1.000  H
  C334     1.0000 0.89056  0.36489  0.64987  Biso   1.000  C
  H152     1.0000 0.89230  0.38460  0.67960  Biso   1.000  H
  C335     1.0000 0.90334  0.37950  0.59094  Biso   1.000  C
  C336     1.0000 0.90028  0.34935  0.54638  Biso   1.000  C
  H153     1.0000 0.90840  0.35840  0.50610  Biso   1.000  H
  C337     1.0000 0.88513  0.30607  0.56269  Biso   1.000  C
  H154     1.0000 0.88350  0.28630  0.53310  Biso   1.000  H
  C338     1.0000 0.92214  0.42647  0.57233  Biso   1.000  C
  C339     1.0000 0.95936  0.44590  0.53720  Biso   1.000  C
  H155     1.0000 0.97160  0.42900  0.52500  Biso   1.000  H
  C340     1.0000 0.81040  0.42530  0.53730  Biso   1.000  C
  C341     1.0000 0.78910  0.38080  0.64170  Biso   1.000  C
  O63      1.0000 0.52467  0.55380  0.93065  Biso   1.000  O
  O64      1.0000 0.51162  0.56716  0.02670  Biso   1.000  O
  C342     1.0000 0.52389  0.57816  0.97272  Biso   1.000  C
  C343     1.0000 0.53918  0.62510  0.95496  Biso   1.000  C
  C344     1.0000 0.54190  0.65532  0.99911  Biso   1.000  C
  H156     1.0000 0.53327  0.64623  0.03923  Biso   1.000  H
  C345     1.0000 0.55723  0.69822  0.98320  Biso   1.000  C
  H157     1.0000 0.55897  0.71793  0.01293  Biso   1.000  H
  C346     1.0000 0.57001  0.71283  0.92427  Biso   1.000  C
  C347     1.0000 0.56695  0.68268  0.87971  Biso   1.000  C
  H158     1.0000 0.57507  0.69173  0.83943  Biso   1.000  H
  C348     1.0000 0.55180  0.63940  0.89602  Biso   1.000  C
  H159     1.0000 0.55017  0.61963  0.86643  Biso   1.000  H
  C349     1.0000 0.58881  0.75980  0.90566  Biso   1.000  C
  C350     1.0000 0.62603  0.77923  0.87053  Biso   1.000  C
  H160     1.0000 0.63827  0.76233  0.85833  Biso   1.000  H
  C351     1.0000 0.47707  0.75863  0.87063  Biso   1.000  C
  C352     1.0000 0.45577  0.71413  0.97503  Biso   1.000  C
  O65      1.0000 0.19133  0.88714  0.26399  Biso   1.000  O
  O66      1.0000 0.17828  0.90050  0.36004  Biso   1.000  O
  C353     1.0000 0.19055  0.91150  0.30606  Biso   1.000  C
  C354     1.0000 0.20584  0.95844  0.28830  Biso   1.000  C
  C355     1.0000 0.20856  0.98866  0.33245  Biso   1.000  C
  H161     1.0000 0.19993  0.97957  0.37257  Biso   1.000  H
  C356     1.0000 0.22389  0.03156  0.31654  Biso   1.000  C
  H162     1.0000 0.22563  0.05127  0.34627  Biso   1.000  H
  C357     1.0000 0.23667  0.04617  0.25761  Biso   1.000  C
  C358     1.0000 0.23361  0.01602  0.21305  Biso   1.000  C
  H163     1.0000 0.24173  0.02507  0.17277  Biso   1.000  H
  C359     1.0000 0.21846  0.97274  0.22936  Biso   1.000  C
  H164     1.0000 0.21683  0.95297  0.19977  Biso   1.000  H
  C360     1.0000 0.25547  0.09314  0.23900  Biso   1.000  C
  C361     1.0000 0.29269  0.11257  0.20387  Biso   1.000  C
  H165     1.0000 0.30493  0.09567  0.19167  Biso   1.000  H
  C362     1.0000 0.14373  0.09197  0.20397  Biso   1.000  C
  C363     1.0000 0.12243  0.04747  0.30837  Biso   1.000  C
  O67      1.0000 0.36247  0.14200  0.59732  Biso   1.000  O
  O68      1.0000 0.38888  0.15505  0.69337  Biso   1.000  O
  C364     1.0000 0.38761  0.14278  0.63939  Biso   1.000  C
  C365     1.0000 0.41926  0.12749  0.62163  Biso   1.000  C
  C366     1.0000 0.44676  0.12477  0.66578  Biso   1.000  C
  H166     1.0000 0.44630  0.13340  0.70590  Biso   1.000  H
  C367     1.0000 0.47433  0.10944  0.64987  Biso   1.000  C
  H167     1.0000 0.49230  0.10770  0.67960  Biso   1.000  H
  C368     1.0000 0.47616  0.09666  0.59094  Biso   1.000  C
  C369     1.0000 0.44907  0.09972  0.54638  Biso   1.000  C
  H168     1.0000 0.45000  0.09160  0.50610  Biso   1.000  H
  C370     1.0000 0.42094  0.11487  0.56269  Biso   1.000  C
  H169     1.0000 0.40280  0.11650  0.53310  Biso   1.000  H
  C371     1.0000 0.50433  0.07786  0.57233  Biso   1.000  C
  C372     1.0000 0.48654  0.04064  0.53720  Biso   1.000  C
  H170     1.0000 0.45740  0.02840  0.52500  Biso   1.000  H
  C373     1.0000 0.61490  0.18960  0.53730  Biso   1.000  C
  C374     1.0000 0.59170  0.21090  0.64170  Biso   1.000  C
  O69      1.0000 0.02914  0.47533  0.93065  Biso   1.000  O
  O70      1.0000 0.05555  0.48838  0.02670  Biso   1.000  O
  C375     1.0000 0.05428  0.47611  0.97272  Biso   1.000  C
  C376     1.0000 0.08593  0.46082  0.95496  Biso   1.000  C
  C377     1.0000 0.11343  0.45810  0.99911  Biso   1.000  C
  H171     1.0000 0.11297  0.46673  0.03923  Biso   1.000  H
  C378     1.0000 0.14100  0.44277  0.98320  Biso   1.000  C
  H172     1.0000 0.15897  0.44103  0.01293  Biso   1.000  H
  C379     1.0000 0.14283  0.42999  0.92427  Biso   1.000  C
  C380     1.0000 0.11574  0.43305  0.87971  Biso   1.000  C
  H173     1.0000 0.11667  0.42493  0.83943  Biso   1.000  H
  C381     1.0000 0.08761  0.44820  0.89602  Biso   1.000  C
  H174     1.0000 0.06947  0.44983  0.86643  Biso   1.000  H
  C382     1.0000 0.17100  0.41119  0.90566  Biso   1.000  C
  C383     1.0000 0.15321  0.37397  0.87053  Biso   1.000  C
  H175     1.0000 0.12407  0.36173  0.85833  Biso   1.000  H
  C384     1.0000 0.28157  0.52293  0.87063  Biso   1.000  C
  C385     1.0000 0.25837  0.54423  0.97503  Biso   1.000  C
  O71      1.0000 0.69580  0.80867  0.26399  Biso   1.000  O
  O72      1.0000 0.72221  0.82172  0.36004  Biso   1.000  O
  C386     1.0000 0.72094  0.80945  0.30606  Biso   1.000  C
  C387     1.0000 0.75259  0.79416  0.28830  Biso   1.000  C
  C388     1.0000 0.78009  0.79144  0.33245  Biso   1.000  C
  H176     1.0000 0.77963  0.80007  0.37257  Biso   1.000  H
  C389     1.0000 0.80766  0.77611  0.31654  Biso   1.000  C
  H177     1.0000 0.82563  0.77437  0.34627  Biso   1.000  H
  C390     1.0000 0.80949  0.76333  0.25761  Biso   1.000  C
  C391     1.0000 0.78240  0.76639  0.21305  Biso   1.000  C
  H178     1.0000 0.78333  0.75827  0.17277  Biso   1.000  H
  C392     1.0000 0.75427  0.78154  0.22936  Biso   1.000  C
  H179     1.0000 0.73613  0.78317  0.19977  Biso   1.000  H
  C393     1.0000 0.83766  0.74453  0.23900  Biso   1.000  C
  C394     1.0000 0.81987  0.70731  0.20387  Biso   1.000  C
  H180     1.0000 0.79073  0.69507  0.19167  Biso   1.000  H
  C395     1.0000 0.94823  0.85627  0.20397  Biso   1.000  C
  C396     1.0000 0.92503  0.87757  0.30837  Biso   1.000  C
  Cu1      1.0000 0.31799  0.15900  0.61004  Biso   1.000  Cu
  Cu2      1.0000 0.98466  0.49233  0.94337  Biso   1.000  Cu
  Cu3      1.0000 0.65132  0.82566  0.27671  Biso   1.000  Cu
  Cu4      1.0000 0.84100  0.15900  0.61004  Biso   1.000  Cu
  Cu5      1.0000 0.50767  0.49233  0.94337  Biso   1.000  Cu
  Cu6      1.0000 0.17434  0.82566  0.27671  Biso   1.000  Cu
  Cu7      1.0000 0.84100  0.68201  0.61004  Biso   1.000  Cu
  Cu8      1.0000 0.50767  0.01534  0.94337  Biso   1.000  Cu
  Cu9      1.0000 0.17434  0.34868  0.27671  Biso   1.000  Cu
  Cu10     1.0000 0.15900  0.31799  0.38996  Biso   1.000  Cu
  Cu11     1.0000 0.82566  0.65132  0.72329  Biso   1.000  Cu
  Cu12     1.0000 0.49233  0.98466  0.05663  Biso   1.000  Cu
  Cu13     1.0000 0.15900  0.84100  0.38996  Biso   1.000  Cu
  Cu14     1.0000 0.82566  0.17434  0.72329  Biso   1.000  Cu
  Cu15     1.0000 0.49233  0.50767  0.05663  Biso   1.000  Cu
  Cu16     1.0000 0.68201  0.84100  0.38996  Biso   1.000  Cu
  Cu17     1.0000 0.34868  0.17434  0.72329  Biso   1.000  Cu
  Cu18     1.0000 0.01534  0.50767  0.05663  Biso   1.000  Cu
  O73      1.0000 0.56732  0.43268  0.62615  Biso   1.000  O
  C397     1.0000 0.51004  0.48996  0.51870  Biso   1.000  C
  C398     1.0000 0.54845  0.45155  0.58950  Biso   1.000  C
  C399     1.0000 0.58852  0.41148  0.59430  Biso   1.000  C
  O74      1.0000 0.23399  0.76601  0.95948  Biso   1.000  O
  C400     1.0000 0.17671  0.82329  0.85203  Biso   1.000  C
  C401     1.0000 0.21512  0.78488  0.92283  Biso   1.000  C
  C402     1.0000 0.25519  0.74481  0.92763  Biso   1.000  C
  O75      1.0000 0.90065  0.09935  0.29282  Biso   1.000  O
  C403     1.0000 0.84337  0.15663  0.18537  Biso   1.000  C
  C404     1.0000 0.88178  0.11822  0.25617  Biso   1.000  C
  C405     1.0000 0.92185  0.07815  0.26097  Biso   1.000  C
  O76      1.0000 0.56732  0.13464  0.62615  Biso   1.000  O
  C406     1.0000 0.51004  0.02008  0.51870  Biso   1.000  C
  C407     1.0000 0.54845  0.09690  0.58950  Biso   1.000  C
  C408     1.0000 0.58852  0.17704  0.59430  Biso   1.000  C
  O77      1.0000 0.23399  0.46797  0.95948  Biso   1.000  O
  C409     1.0000 0.17671  0.35341  0.85203  Biso   1.000  C
  C410     1.0000 0.21512  0.43023  0.92283  Biso   1.000  C
  C411     1.0000 0.25519  0.51037  0.92763  Biso   1.000  C
  O78      1.0000 0.90065  0.80131  0.29282  Biso   1.000  O
  C412     1.0000 0.84337  0.68675  0.18537  Biso   1.000  C
  C413     1.0000 0.88178  0.76357  0.25617  Biso   1.000  C
  C414     1.0000 0.92185  0.84371  0.26097  Biso   1.000  C
  O79      1.0000 0.86536  0.43268  0.62615  Biso   1.000  O
  C415     1.0000 0.97992  0.48996  0.51870  Biso   1.000  C
  C416     1.0000 0.90310  0.45155  0.58950  Biso   1.000  C
  C417     1.0000 0.82296  0.41148  0.59430  Biso   1.000  C
  O80      1.0000 0.53203  0.76601  0.95948  Biso   1.000  O
  C418     1.0000 0.64659  0.82329  0.85203  Biso   1.000  C
  C419     1.0000 0.56977  0.78488  0.92283  Biso   1.000  C
  C420     1.0000 0.48963  0.74481  0.92763  Biso   1.000  C
  O81      1.0000 0.19869  0.09935  0.29282  Biso   1.000  O
  C421     1.0000 0.31325  0.15663  0.18537  Biso   1.000  C
  C422     1.0000 0.23643  0.11822  0.25617  Biso   1.000  C
  C423     1.0000 0.15629  0.07815  0.26097  Biso   1.000  C
  O82      1.0000 0.43268  0.56732  0.37385  Biso   1.000  O
  C424     1.0000 0.48996  0.51004  0.48130  Biso   1.000  C
  C425     1.0000 0.45155  0.54845  0.41050  Biso   1.000  C
  C426     1.0000 0.41148  0.58852  0.40570  Biso   1.000  C
  O83      1.0000 0.09935  0.90065  0.70718  Biso   1.000  O
  C427     1.0000 0.15663  0.84337  0.81463  Biso   1.000  C
  C428     1.0000 0.11822  0.88178  0.74383  Biso   1.000  C
  C429     1.0000 0.07815  0.92185  0.73903  Biso   1.000  C
  O84      1.0000 0.76601  0.23399  0.04052  Biso   1.000  O
  C430     1.0000 0.82329  0.17671  0.14797  Biso   1.000  C
  C431     1.0000 0.78488  0.21512  0.07717  Biso   1.000  C
  C432     1.0000 0.74481  0.25519  0.07237  Biso   1.000  C
  O85      1.0000 0.13464  0.56732  0.37385  Biso   1.000  O
  C433     1.0000 0.02008  0.51004  0.48130  Biso   1.000  C
  C434     1.0000 0.09690  0.54845  0.41050  Biso   1.000  C
  C435     1.0000 0.17704  0.58852  0.40570  Biso   1.000  C
  O86      1.0000 0.80131  0.90065  0.70718  Biso   1.000  O
  C436     1.0000 0.68675  0.84337  0.81463  Biso   1.000  C
  C437     1.0000 0.76357  0.88178  0.74383  Biso   1.000  C
  C438     1.0000 0.84371  0.92185  0.73903  Biso   1.000  C
  O87      1.0000 0.46797  0.23399  0.04052  Biso   1.000  O
  C439     1.0000 0.35341  0.17671  0.14797  Biso   1.000  C
  C440     1.0000 0.43023  0.21512  0.07717  Biso   1.000  C
  C441     1.0000 0.51037  0.25519  0.07237  Biso   1.000  C
  O88      1.0000 0.43268  0.86536  0.37385  Biso   1.000  O
  C442     1.0000 0.48996  0.97992  0.48130  Biso   1.000  C
  C443     1.0000 0.45155  0.90310  0.41050  Biso   1.000  C
  C444     1.0000 0.41148  0.82296  0.40570  Biso   1.000  C
  O89      1.0000 0.09935  0.19869  0.70718  Biso   1.000  O
  C445     1.0000 0.15663  0.31325  0.81463  Biso   1.000  C
  C446     1.0000 0.11822  0.23643  0.74383  Biso   1.000  C
  C447     1.0000 0.07815  0.15629  0.73903  Biso   1.000  C
  O90      1.0000 0.76601  0.53203  0.04052  Biso   1.000  O
  C448     1.0000 0.82329  0.64659  0.14797  Biso   1.000  C
  C449     1.0000 0.78488  0.56977  0.07717  Biso   1.000  C
  C450     1.0000 0.74481  0.48963  0.07237  Biso   1.000  C
