data_image0
_cell_length_a       18.7846
_cell_length_b       18.7846
_cell_length_c       37.823
_cell_angle_alpha    90
_cell_angle_beta     90
_cell_angle_gamma    120

_symmetry_space_group_name_H-M    "P 1"
_symmetry_int_tables_number       1

loop_
  _symmetry_equiv_pos_as_xyz
  'x, y, z'

loop_
  _atom_site_label
  _atom_site_occupancy
  _atom_site_fract_x
  _atom_site_fract_y
  _atom_site_fract_z
  _atom_site_thermal_displace_type
  _atom_site_B_iso_or_equiv
  _atom_site_type_symbol
  C1       1.0000 0.12060  0.42770  0.80968  Biso   1.000  C
  O1       1.0000 0.15060  0.44535  0.84004  Biso   1.000  O
  O2       1.0000 0.11070  0.36770  0.79143  Biso   1.000  O
  C2       1.0000 0.09390  0.48320  0.79334  Biso   1.000  C
  C3       1.0000 0.05490  0.46370  0.76076  Biso   1.000  C
  H1       1.0000 0.04180  0.41420  0.74990  Biso   1.000  H
  C4       1.0000 0.96780  0.53030  0.69190  Biso   1.000  C
  C5       1.0000 0.91520  0.51810  0.60093  Biso   1.000  C
  H2       1.0000 0.91470  0.55470  0.58450  Biso   1.000  H
  C6       1.0000 0.94130  0.49960  0.65460  Biso   1.000  C
  C7       1.0000 0.92120  0.54850  0.63200  Biso   1.000  C
  H3       1.0000 0.91410  0.59230  0.63840  Biso   1.000  H
  C8       1.0000 0.93970  0.51450  0.64110  Biso   1.000  C
  H4       1.0000 0.95080  0.55170  0.65940  Biso   1.000  H
  O3       1.0000 0.93610  0.58380  0.70660  Biso   1.000  O
  C9       1.0000 0.78727  0.76103  0.14301  Biso   1.000  C
  O4       1.0000 0.81727  0.77868  0.17337  Biso   1.000  O
  O5       1.0000 0.77737  0.70103  0.12476  Biso   1.000  O
  C10      1.0000 0.76057  0.81653  0.12667  Biso   1.000  C
  C11      1.0000 0.72157  0.79703  0.09409  Biso   1.000  C
  H5       1.0000 0.70847  0.74753  0.08323  Biso   1.000  H
  C12      1.0000 0.63447  0.86363  0.02523  Biso   1.000  C
  C13      1.0000 0.58187  0.85143  0.93426  Biso   1.000  C
  H6       1.0000 0.58137  0.88803  0.91783  Biso   1.000  H
  C14      1.0000 0.60797  0.83293  0.98793  Biso   1.000  C
  C15      1.0000 0.58787  0.88183  0.96533  Biso   1.000  C
  H7       1.0000 0.58077  0.92563  0.97173  Biso   1.000  H
  C16      1.0000 0.60637  0.84783  0.97443  Biso   1.000  C
  H8       1.0000 0.61747  0.88503  0.99273  Biso   1.000  H
  O6       1.0000 0.60277  0.91713  0.03993  Biso   1.000  O
  C17      1.0000 0.45393  0.09437  0.47635  Biso   1.000  C
  O7       1.0000 0.48393  0.11202  0.50671  Biso   1.000  O
  O8       1.0000 0.44403  0.03437  0.45810  Biso   1.000  O
  C18      1.0000 0.42723  0.14987  0.46001  Biso   1.000  C
  C19      1.0000 0.38823  0.13037  0.42743  Biso   1.000  C
  H9       1.0000 0.37513  0.08087  0.41657  Biso   1.000  H
  C20      1.0000 0.30113  0.19697  0.35857  Biso   1.000  C
  C21      1.0000 0.24853  0.18477  0.26760  Biso   1.000  C
  H10      1.0000 0.24803  0.22137  0.25117  Biso   1.000  H
  C22      1.0000 0.27463  0.16627  0.32127  Biso   1.000  C
  C23      1.0000 0.25453  0.21517  0.29867  Biso   1.000  C
  H11      1.0000 0.24743  0.25897  0.30507  Biso   1.000  H
  C24      1.0000 0.27303  0.18117  0.30777  Biso   1.000  C
  H12      1.0000 0.28413  0.21837  0.32607  Biso   1.000  H
  O9       1.0000 0.26943  0.25047  0.37327  Biso   1.000  O
  C25      1.0000 0.57230  0.69290  0.80968  Biso   1.000  C
  O10      1.0000 0.55465  0.70525  0.84004  Biso   1.000  O
  O11      1.0000 0.63230  0.74300  0.79143  Biso   1.000  O
  C26      1.0000 0.51680  0.61070  0.79334  Biso   1.000  C
  C27      1.0000 0.53630  0.59120  0.76076  Biso   1.000  C
  H13      1.0000 0.58580  0.62760  0.74990  Biso   1.000  H
  C28      1.0000 0.46970  0.43750  0.69190  Biso   1.000  C
  C29      1.0000 0.48190  0.39710  0.60093  Biso   1.000  C
  H14      1.0000 0.44530  0.36000  0.58450  Biso   1.000  H
  C30      1.0000 0.50040  0.44170  0.65460  Biso   1.000  C
  C31      1.0000 0.45150  0.37270  0.63200  Biso   1.000  C
  H15      1.0000 0.40770  0.32180  0.63840  Biso   1.000  H
  C32      1.0000 0.48550  0.42520  0.64110  Biso   1.000  C
  H16      1.0000 0.44830  0.39910  0.65940  Biso   1.000  H
  O12      1.0000 0.41620  0.35230  0.70660  Biso   1.000  O
  C33      1.0000 0.23897  0.02623  0.14301  Biso   1.000  C
  O13      1.0000 0.22132  0.03858  0.17337  Biso   1.000  O
  O14      1.0000 0.29897  0.07633  0.12476  Biso   1.000  O
  C34      1.0000 0.18347  0.94403  0.12667  Biso   1.000  C
  C35      1.0000 0.20297  0.92453  0.09409  Biso   1.000  C
  H17      1.0000 0.25247  0.96093  0.08323  Biso   1.000  H
  C36      1.0000 0.13637  0.77083  0.02523  Biso   1.000  C
  C37      1.0000 0.14857  0.73043  0.93426  Biso   1.000  C
  H18      1.0000 0.11197  0.69333  0.91783  Biso   1.000  H
  C38      1.0000 0.16707  0.77503  0.98793  Biso   1.000  C
  C39      1.0000 0.11817  0.70603  0.96533  Biso   1.000  C
  H19      1.0000 0.07437  0.65513  0.97173  Biso   1.000  H
  C40      1.0000 0.15217  0.75853  0.97443  Biso   1.000  C
  H20      1.0000 0.11497  0.73243  0.99273  Biso   1.000  H
  O15      1.0000 0.08287  0.68563  0.03993  Biso   1.000  O
  C41      1.0000 0.90563  0.35957  0.47635  Biso   1.000  C
  O16      1.0000 0.88798  0.37192  0.50671  Biso   1.000  O
  O17      1.0000 0.96563  0.40967  0.45810  Biso   1.000  O
  C42      1.0000 0.85013  0.27737  0.46001  Biso   1.000  C
  C43      1.0000 0.86963  0.25787  0.42743  Biso   1.000  C
  H21      1.0000 0.91913  0.29427  0.41657  Biso   1.000  H
  C44      1.0000 0.80303  0.10417  0.35857  Biso   1.000  C
  C45      1.0000 0.81523  0.06377  0.26760  Biso   1.000  C
  H22      1.0000 0.77863  0.02667  0.25117  Biso   1.000  H
  C46      1.0000 0.83373  0.10837  0.32127  Biso   1.000  C
  C47      1.0000 0.78483  0.03937  0.29867  Biso   1.000  C
  H23      1.0000 0.74103  0.98847  0.30507  Biso   1.000  H
  C48      1.0000 0.81883  0.09187  0.30777  Biso   1.000  C
  H24      1.0000 0.78163  0.06577  0.32607  Biso   1.000  H
  O18      1.0000 0.74953  0.01897  0.37327  Biso   1.000  O
  C49      1.0000 0.30710  0.87940  0.80968  Biso   1.000  C
  O19      1.0000 0.29475  0.84940  0.84004  Biso   1.000  O
  O20      1.0000 0.25700  0.88930  0.79143  Biso   1.000  O
  C50      1.0000 0.38930  0.90610  0.79334  Biso   1.000  C
  C51      1.0000 0.40880  0.94510  0.76076  Biso   1.000  C
  H25      1.0000 0.37240  0.95820  0.74990  Biso   1.000  H
  C52      1.0000 0.56250  0.03220  0.69190  Biso   1.000  C
  C53      1.0000 0.60290  0.08480  0.60093  Biso   1.000  C
  H26      1.0000 0.64000  0.08530  0.58450  Biso   1.000  H
  C54      1.0000 0.55830  0.05870  0.65460  Biso   1.000  C
  C55      1.0000 0.62730  0.07880  0.63200  Biso   1.000  C
  H27      1.0000 0.67820  0.08590  0.63840  Biso   1.000  H
  C56      1.0000 0.57480  0.06030  0.64110  Biso   1.000  C
  H28      1.0000 0.60090  0.04920  0.65940  Biso   1.000  H
  O21      1.0000 0.64770  0.06390  0.70660  Biso   1.000  O
  C57      1.0000 0.97377  0.21273  0.14301  Biso   1.000  C
  O22      1.0000 0.96142  0.18273  0.17337  Biso   1.000  O
  O23      1.0000 0.92367  0.22263  0.12476  Biso   1.000  O
  C58      1.0000 0.05597  0.23943  0.12667  Biso   1.000  C
  C59      1.0000 0.07547  0.27843  0.09409  Biso   1.000  C
  H29      1.0000 0.03907  0.29153  0.08323  Biso   1.000  H
  C60      1.0000 0.22917  0.36553  0.02523  Biso   1.000  C
  C61      1.0000 0.26957  0.41813  0.93426  Biso   1.000  C
  H30      1.0000 0.30667  0.41863  0.91783  Biso   1.000  H
  C62      1.0000 0.22497  0.39203  0.98793  Biso   1.000  C
  C63      1.0000 0.29397  0.41213  0.96533  Biso   1.000  C
  H31      1.0000 0.34487  0.41923  0.97173  Biso   1.000  H
  C64      1.0000 0.24147  0.39363  0.97443  Biso   1.000  C
  H32      1.0000 0.26757  0.38253  0.99273  Biso   1.000  H
  O24      1.0000 0.31437  0.39723  0.03993  Biso   1.000  O
  C65      1.0000 0.64043  0.54607  0.47635  Biso   1.000  C
  O25      1.0000 0.62808  0.51607  0.50671  Biso   1.000  O
  O26      1.0000 0.59033  0.55597  0.45810  Biso   1.000  O
  C66      1.0000 0.72263  0.57277  0.46001  Biso   1.000  C
  C67      1.0000 0.74213  0.61177  0.42743  Biso   1.000  C
  H33      1.0000 0.70573  0.62487  0.41657  Biso   1.000  H
  C68      1.0000 0.89583  0.69887  0.35857  Biso   1.000  C
  C69      1.0000 0.93623  0.75147  0.26760  Biso   1.000  C
  H34      1.0000 0.97333  0.75197  0.25117  Biso   1.000  H
  C70      1.0000 0.89163  0.72537  0.32127  Biso   1.000  C
  C71      1.0000 0.96063  0.74547  0.29867  Biso   1.000  C
  H35      1.0000 0.01153  0.75257  0.30507  Biso   1.000  H
  C72      1.0000 0.90813  0.72697  0.30777  Biso   1.000  C
  H36      1.0000 0.93423  0.71587  0.32607  Biso   1.000  H
  O27      1.0000 0.98103  0.73057  0.37327  Biso   1.000  O
  C73      1.0000 0.42770  0.12060  0.19032  Biso   1.000  C
  O28      1.0000 0.44535  0.15060  0.15996  Biso   1.000  O
  O29      1.0000 0.36770  0.11070  0.20857  Biso   1.000  O
  C74      1.0000 0.48320  0.09390  0.20666  Biso   1.000  C
  C75      1.0000 0.46370  0.05490  0.23924  Biso   1.000  C
  H37      1.0000 0.41420  0.04180  0.25010  Biso   1.000  H
  C76      1.0000 0.53030  0.96780  0.30810  Biso   1.000  C
  C77      1.0000 0.51810  0.91520  0.39907  Biso   1.000  C
  H38      1.0000 0.55470  0.91470  0.41550  Biso   1.000  H
  C78      1.0000 0.49960  0.94130  0.34540  Biso   1.000  C
  C79      1.0000 0.54850  0.92120  0.36800  Biso   1.000  C
  H39      1.0000 0.59230  0.91410  0.36160  Biso   1.000  H
  C80      1.0000 0.51450  0.93970  0.35890  Biso   1.000  C
  H40      1.0000 0.55170  0.95080  0.34060  Biso   1.000  H
  O30      1.0000 0.58380  0.93610  0.29340  Biso   1.000  O
  C81      1.0000 0.09437  0.45393  0.52365  Biso   1.000  C
  O31      1.0000 0.11202  0.48393  0.49329  Biso   1.000  O
  O32      1.0000 0.03437  0.44403  0.54190  Biso   1.000  O
  C82      1.0000 0.14987  0.42723  0.53999  Biso   1.000  C
  C83      1.0000 0.13037  0.38823  0.57257  Biso   1.000  C
  H41      1.0000 0.08087  0.37513  0.58343  Biso   1.000  H
  C84      1.0000 0.19697  0.30113  0.64143  Biso   1.000  C
  C85      1.0000 0.18477  0.24853  0.73240  Biso   1.000  C
  H42      1.0000 0.22137  0.24803  0.74883  Biso   1.000  H
  C86      1.0000 0.16627  0.27463  0.67873  Biso   1.000  C
  C87      1.0000 0.21517  0.25453  0.70133  Biso   1.000  C
  H43      1.0000 0.25897  0.24743  0.69493  Biso   1.000  H
  C88      1.0000 0.18117  0.27303  0.69223  Biso   1.000  C
  H44      1.0000 0.21837  0.28413  0.67393  Biso   1.000  H
  O33      1.0000 0.25047  0.26943  0.62673  Biso   1.000  O
  C89      1.0000 0.76103  0.78727  0.85699  Biso   1.000  C
  O34      1.0000 0.77868  0.81727  0.82663  Biso   1.000  O
  O35      1.0000 0.70103  0.77737  0.87524  Biso   1.000  O
  C90      1.0000 0.81653  0.76057  0.87333  Biso   1.000  C
  C91      1.0000 0.79703  0.72157  0.90591  Biso   1.000  C
  H45      1.0000 0.74753  0.70847  0.91677  Biso   1.000  H
  C92      1.0000 0.86363  0.63447  0.97477  Biso   1.000  C
  C93      1.0000 0.85143  0.58187  0.06574  Biso   1.000  C
  H46      1.0000 0.88803  0.58137  0.08217  Biso   1.000  H
  C94      1.0000 0.83293  0.60797  0.01207  Biso   1.000  C
  C95      1.0000 0.88183  0.58787  0.03467  Biso   1.000  C
  H47      1.0000 0.92563  0.58077  0.02827  Biso   1.000  H
  C96      1.0000 0.84783  0.60637  0.02557  Biso   1.000  C
  H48      1.0000 0.88503  0.61747  0.00727  Biso   1.000  H
  O36      1.0000 0.91713  0.60277  0.96007  Biso   1.000  O
  C97      1.0000 0.69290  0.57230  0.19032  Biso   1.000  C
  O37      1.0000 0.70525  0.55465  0.15996  Biso   1.000  O
  O38      1.0000 0.74300  0.63230  0.20857  Biso   1.000  O
  C98      1.0000 0.61070  0.51680  0.20666  Biso   1.000  C
  C99      1.0000 0.59120  0.53630  0.23924  Biso   1.000  C
  H49      1.0000 0.62760  0.58580  0.25010  Biso   1.000  H
  C100     1.0000 0.43750  0.46970  0.30810  Biso   1.000  C
  C101     1.0000 0.39710  0.48190  0.39907  Biso   1.000  C
  H50      1.0000 0.36000  0.44530  0.41550  Biso   1.000  H
  C102     1.0000 0.44170  0.50040  0.34540  Biso   1.000  C
  C103     1.0000 0.37270  0.45150  0.36800  Biso   1.000  C
  H51      1.0000 0.32180  0.40770  0.36160  Biso   1.000  H
  C104     1.0000 0.42520  0.48550  0.35890  Biso   1.000  C
  H52      1.0000 0.39910  0.44830  0.34060  Biso   1.000  H
  O39      1.0000 0.35230  0.41620  0.29340  Biso   1.000  O
  C105     1.0000 0.35957  0.90563  0.52365  Biso   1.000  C
  O40      1.0000 0.37192  0.88798  0.49329  Biso   1.000  O
  O41      1.0000 0.40967  0.96563  0.54190  Biso   1.000  O
  C106     1.0000 0.27737  0.85013  0.53999  Biso   1.000  C
  C107     1.0000 0.25787  0.86963  0.57257  Biso   1.000  C
  H53      1.0000 0.29427  0.91913  0.58343  Biso   1.000  H
  C108     1.0000 0.10417  0.80303  0.64143  Biso   1.000  C
  C109     1.0000 0.06377  0.81523  0.73240  Biso   1.000  C
  H54      1.0000 0.02667  0.77863  0.74883  Biso   1.000  H
  C110     1.0000 0.10837  0.83373  0.67873  Biso   1.000  C
  C111     1.0000 0.03937  0.78483  0.70133  Biso   1.000  C
  H55      1.0000 0.98847  0.74103  0.69493  Biso   1.000  H
  C112     1.0000 0.09187  0.81883  0.69223  Biso   1.000  C
  H56      1.0000 0.06577  0.78163  0.67393  Biso   1.000  H
  O42      1.0000 0.01897  0.74953  0.62673  Biso   1.000  O
  C113     1.0000 0.02623  0.23897  0.85699  Biso   1.000  C
  O43      1.0000 0.03858  0.22132  0.82663  Biso   1.000  O
  O44      1.0000 0.07633  0.29897  0.87524  Biso   1.000  O
  C114     1.0000 0.94403  0.18347  0.87333  Biso   1.000  C
  C115     1.0000 0.92453  0.20297  0.90591  Biso   1.000  C
  H57      1.0000 0.96093  0.25247  0.91677  Biso   1.000  H
  C116     1.0000 0.77083  0.13637  0.97477  Biso   1.000  C
  C117     1.0000 0.73043  0.14857  0.06574  Biso   1.000  C
  H58      1.0000 0.69333  0.11197  0.08217  Biso   1.000  H
  C118     1.0000 0.77503  0.16707  0.01207  Biso   1.000  C
  C119     1.0000 0.70603  0.11817  0.03467  Biso   1.000  C
  H59      1.0000 0.65513  0.07437  0.02827  Biso   1.000  H
  C120     1.0000 0.75853  0.15217  0.02557  Biso   1.000  C
  H60      1.0000 0.73243  0.11497  0.00727  Biso   1.000  H
  O45      1.0000 0.68563  0.08287  0.96007  Biso   1.000  O
  C121     1.0000 0.87940  0.30710  0.19032  Biso   1.000  C
  O46      1.0000 0.84940  0.29475  0.15996  Biso   1.000  O
  O47      1.0000 0.88930  0.25700  0.20857  Biso   1.000  O
  C122     1.0000 0.90610  0.38930  0.20666  Biso   1.000  C
  C123     1.0000 0.94510  0.40880  0.23924  Biso   1.000  C
  H61      1.0000 0.95820  0.37240  0.25010  Biso   1.000  H
  C124     1.0000 0.03220  0.56250  0.30810  Biso   1.000  C
  C125     1.0000 0.08480  0.60290  0.39907  Biso   1.000  C
  H62      1.0000 0.08530  0.64000  0.41550  Biso   1.000  H
  C126     1.0000 0.05870  0.55830  0.34540  Biso   1.000  C
  C127     1.0000 0.07880  0.62730  0.36800  Biso   1.000  C
  H63      1.0000 0.08590  0.67820  0.36160  Biso   1.000  H
  C128     1.0000 0.06030  0.57480  0.35890  Biso   1.000  C
  H64      1.0000 0.04920  0.60090  0.34060  Biso   1.000  H
  O48      1.0000 0.06390  0.64770  0.29340  Biso   1.000  O
  C129     1.0000 0.54607  0.64043  0.52365  Biso   1.000  C
  O49      1.0000 0.51607  0.62808  0.49329  Biso   1.000  O
  O50      1.0000 0.55597  0.59033  0.54190  Biso   1.000  O
  C130     1.0000 0.57277  0.72263  0.53999  Biso   1.000  C
  C131     1.0000 0.61177  0.74213  0.57257  Biso   1.000  C
  H65      1.0000 0.62487  0.70573  0.58343  Biso   1.000  H
  C132     1.0000 0.69887  0.89583  0.64143  Biso   1.000  C
  C133     1.0000 0.75147  0.93623  0.73240  Biso   1.000  C
  H66      1.0000 0.75197  0.97333  0.74883  Biso   1.000  H
  C134     1.0000 0.72537  0.89163  0.67873  Biso   1.000  C
  C135     1.0000 0.74547  0.96063  0.70133  Biso   1.000  C
  H67      1.0000 0.75257  0.01153  0.69493  Biso   1.000  H
  C136     1.0000 0.72697  0.90813  0.69223  Biso   1.000  C
  H68      1.0000 0.71587  0.93423  0.67393  Biso   1.000  H
  O51      1.0000 0.73057  0.98103  0.62673  Biso   1.000  O
  C137     1.0000 0.21273  0.97377  0.85699  Biso   1.000  C
  O52      1.0000 0.18273  0.96142  0.82663  Biso   1.000  O
  O53      1.0000 0.22263  0.92367  0.87524  Biso   1.000  O
  C138     1.0000 0.23943  0.05597  0.87333  Biso   1.000  C
  C139     1.0000 0.27843  0.07547  0.90591  Biso   1.000  C
  H69      1.0000 0.29153  0.03907  0.91677  Biso   1.000  H
  C140     1.0000 0.36553  0.22917  0.97477  Biso   1.000  C
  C141     1.0000 0.41813  0.26957  0.06574  Biso   1.000  C
  H70      1.0000 0.41863  0.30667  0.08217  Biso   1.000  H
  C142     1.0000 0.39203  0.22497  0.01207  Biso   1.000  C
  C143     1.0000 0.41213  0.29397  0.03467  Biso   1.000  C
  H71      1.0000 0.41923  0.34487  0.02827  Biso   1.000  H
  C144     1.0000 0.39363  0.24147  0.02557  Biso   1.000  C
  H72      1.0000 0.38253  0.26757  0.00727  Biso   1.000  H
  O54      1.0000 0.39723  0.31437  0.96007  Biso   1.000  O
  C145     1.0000 0.87940  0.57230  0.19032  Biso   1.000  C
  O55      1.0000 0.84940  0.55465  0.15996  Biso   1.000  O
  O56      1.0000 0.88930  0.63230  0.20857  Biso   1.000  O
  C146     1.0000 0.90610  0.51680  0.20666  Biso   1.000  C
  C147     1.0000 0.94510  0.53630  0.23924  Biso   1.000  C
  H73      1.0000 0.95820  0.58580  0.25010  Biso   1.000  H
  C148     1.0000 0.03220  0.46970  0.30810  Biso   1.000  C
  C149     1.0000 0.08480  0.48190  0.39907  Biso   1.000  C
  H74      1.0000 0.08530  0.44530  0.41550  Biso   1.000  H
  C150     1.0000 0.05870  0.50040  0.34540  Biso   1.000  C
  C151     1.0000 0.07880  0.45150  0.36800  Biso   1.000  C
  H75      1.0000 0.08590  0.40770  0.36160  Biso   1.000  H
  C152     1.0000 0.06030  0.48550  0.35890  Biso   1.000  C
  H76      1.0000 0.04920  0.44830  0.34060  Biso   1.000  H
  O57      1.0000 0.06390  0.41620  0.29340  Biso   1.000  O
  C153     1.0000 0.54607  0.90563  0.52365  Biso   1.000  C
  O58      1.0000 0.51607  0.88798  0.49329  Biso   1.000  O
  O59      1.0000 0.55597  0.96563  0.54190  Biso   1.000  O
  C154     1.0000 0.57277  0.85013  0.53999  Biso   1.000  C
  C155     1.0000 0.61177  0.86963  0.57257  Biso   1.000  C
  H77      1.0000 0.62487  0.91913  0.58343  Biso   1.000  H
  C156     1.0000 0.69887  0.80303  0.64143  Biso   1.000  C
  C157     1.0000 0.75147  0.81523  0.73240  Biso   1.000  C
  H78      1.0000 0.75197  0.77863  0.74883  Biso   1.000  H
  C158     1.0000 0.72537  0.83373  0.67873  Biso   1.000  C
  C159     1.0000 0.74547  0.78483  0.70133  Biso   1.000  C
  H79      1.0000 0.75257  0.74103  0.69493  Biso   1.000  H
  C160     1.0000 0.72697  0.81883  0.69223  Biso   1.000  C
  H80      1.0000 0.71587  0.78163  0.67393  Biso   1.000  H
  O60      1.0000 0.73057  0.74953  0.62673  Biso   1.000  O
  C161     1.0000 0.21273  0.23897  0.85699  Biso   1.000  C
  O61      1.0000 0.18273  0.22132  0.82663  Biso   1.000  O
  O62      1.0000 0.22263  0.29897  0.87524  Biso   1.000  O
  C162     1.0000 0.23943  0.18347  0.87333  Biso   1.000  C
  C163     1.0000 0.27843  0.20297  0.90591  Biso   1.000  C
  H81      1.0000 0.29153  0.25247  0.91677  Biso   1.000  H
  C164     1.0000 0.36553  0.13637  0.97477  Biso   1.000  C
  C165     1.0000 0.41813  0.14857  0.06574  Biso   1.000  C
  H82      1.0000 0.41863  0.11197  0.08217  Biso   1.000  H
  C166     1.0000 0.39203  0.16707  0.01207  Biso   1.000  C
  C167     1.0000 0.41213  0.11817  0.03467  Biso   1.000  C
  H83      1.0000 0.41923  0.07437  0.02827  Biso   1.000  H
  C168     1.0000 0.39363  0.15217  0.02557  Biso   1.000  C
  H84      1.0000 0.38253  0.11497  0.00727  Biso   1.000  H
  O63      1.0000 0.39723  0.08287  0.96007  Biso   1.000  O
  C169     1.0000 0.42770  0.30710  0.19032  Biso   1.000  C
  O64      1.0000 0.44535  0.29475  0.15996  Biso   1.000  O
  O65      1.0000 0.36770  0.25700  0.20857  Biso   1.000  O
  C170     1.0000 0.48320  0.38930  0.20666  Biso   1.000  C
  C171     1.0000 0.46370  0.40880  0.23924  Biso   1.000  C
  H85      1.0000 0.41420  0.37240  0.25010  Biso   1.000  H
  C172     1.0000 0.53030  0.56250  0.30810  Biso   1.000  C
  C173     1.0000 0.51810  0.60290  0.39907  Biso   1.000  C
  H86      1.0000 0.55470  0.64000  0.41550  Biso   1.000  H
  C174     1.0000 0.49960  0.55830  0.34540  Biso   1.000  C
  C175     1.0000 0.54850  0.62730  0.36800  Biso   1.000  C
  H87      1.0000 0.59230  0.67820  0.36160  Biso   1.000  H
  C176     1.0000 0.51450  0.57480  0.35890  Biso   1.000  C
  H88      1.0000 0.55170  0.60090  0.34060  Biso   1.000  H
  O66      1.0000 0.58380  0.64770  0.29340  Biso   1.000  O
  C177     1.0000 0.09437  0.64043  0.52365  Biso   1.000  C
  O67      1.0000 0.11202  0.62808  0.49329  Biso   1.000  O
  O68      1.0000 0.03437  0.59033  0.54190  Biso   1.000  O
  C178     1.0000 0.14987  0.72263  0.53999  Biso   1.000  C
  C179     1.0000 0.13037  0.74213  0.57257  Biso   1.000  C
  H89      1.0000 0.08087  0.70573  0.58343  Biso   1.000  H
  C180     1.0000 0.19697  0.89583  0.64143  Biso   1.000  C
  C181     1.0000 0.18477  0.93623  0.73240  Biso   1.000  C
  H90      1.0000 0.22137  0.97333  0.74883  Biso   1.000  H
  C182     1.0000 0.16627  0.89163  0.67873  Biso   1.000  C
  C183     1.0000 0.21517  0.96063  0.70133  Biso   1.000  C
  H91      1.0000 0.25897  0.01153  0.69493  Biso   1.000  H
  C184     1.0000 0.18117  0.90813  0.69223  Biso   1.000  C
  H92      1.0000 0.21837  0.93423  0.67393  Biso   1.000  H
  O69      1.0000 0.25047  0.98103  0.62673  Biso   1.000  O
  C185     1.0000 0.76103  0.97377  0.85699  Biso   1.000  C
  O70      1.0000 0.77868  0.96142  0.82663  Biso   1.000  O
  O71      1.0000 0.70103  0.92367  0.87524  Biso   1.000  O
  C186     1.0000 0.81653  0.05597  0.87333  Biso   1.000  C
  C187     1.0000 0.79703  0.07547  0.90591  Biso   1.000  C
  H93      1.0000 0.74753  0.03907  0.91677  Biso   1.000  H
  C188     1.0000 0.86363  0.22917  0.97477  Biso   1.000  C
  C189     1.0000 0.85143  0.26957  0.06574  Biso   1.000  C
  H94      1.0000 0.88803  0.30667  0.08217  Biso   1.000  H
  C190     1.0000 0.83293  0.22497  0.01207  Biso   1.000  C
  C191     1.0000 0.88183  0.29397  0.03467  Biso   1.000  C
  H95      1.0000 0.92563  0.34487  0.02827  Biso   1.000  H
  C192     1.0000 0.84783  0.24147  0.02557  Biso   1.000  C
  H96      1.0000 0.88503  0.26757  0.00727  Biso   1.000  H
  O72      1.0000 0.91713  0.31437  0.96007  Biso   1.000  O
  C193     1.0000 0.69290  0.12060  0.19032  Biso   1.000  C
  O73      1.0000 0.70525  0.15060  0.15996  Biso   1.000  O
  O74      1.0000 0.74300  0.11070  0.20857  Biso   1.000  O
  C194     1.0000 0.61070  0.09390  0.20666  Biso   1.000  C
  C195     1.0000 0.59120  0.05490  0.23924  Biso   1.000  C
  H97      1.0000 0.62760  0.04180  0.25010  Biso   1.000  H
  C196     1.0000 0.43750  0.96780  0.30810  Biso   1.000  C
  C197     1.0000 0.39710  0.91520  0.39907  Biso   1.000  C
  H98      1.0000 0.36000  0.91470  0.41550  Biso   1.000  H
  C198     1.0000 0.44170  0.94130  0.34540  Biso   1.000  C
  C199     1.0000 0.37270  0.92120  0.36800  Biso   1.000  C
  H99      1.0000 0.32180  0.91410  0.36160  Biso   1.000  H
  C200     1.0000 0.42520  0.93970  0.35890  Biso   1.000  C
  H100     1.0000 0.39910  0.95080  0.34060  Biso   1.000  H
  O75      1.0000 0.35230  0.93610  0.29340  Biso   1.000  O
  C201     1.0000 0.35957  0.45393  0.52365  Biso   1.000  C
  O76      1.0000 0.37192  0.48393  0.49329  Biso   1.000  O
  O77      1.0000 0.40967  0.44403  0.54190  Biso   1.000  O
  C202     1.0000 0.27737  0.42723  0.53999  Biso   1.000  C
  C203     1.0000 0.25787  0.38823  0.57257  Biso   1.000  C
  H101     1.0000 0.29427  0.37513  0.58343  Biso   1.000  H
  C204     1.0000 0.10417  0.30113  0.64143  Biso   1.000  C
  C205     1.0000 0.06377  0.24853  0.73240  Biso   1.000  C
  H102     1.0000 0.02667  0.24803  0.74883  Biso   1.000  H
  C206     1.0000 0.10837  0.27463  0.67873  Biso   1.000  C
  C207     1.0000 0.03937  0.25453  0.70133  Biso   1.000  C
  H103     1.0000 0.98847  0.24743  0.69493  Biso   1.000  H
  C208     1.0000 0.09187  0.27303  0.69223  Biso   1.000  C
  H104     1.0000 0.06577  0.28413  0.67393  Biso   1.000  H
  O78      1.0000 0.01897  0.26943  0.62673  Biso   1.000  O
  C209     1.0000 0.02623  0.78727  0.85699  Biso   1.000  C
  O79      1.0000 0.03858  0.81727  0.82663  Biso   1.000  O
  O80      1.0000 0.07633  0.77737  0.87524  Biso   1.000  O
  C210     1.0000 0.94403  0.76057  0.87333  Biso   1.000  C
  C211     1.0000 0.92453  0.72157  0.90591  Biso   1.000  C
  H105     1.0000 0.96093  0.70847  0.91677  Biso   1.000  H
  C212     1.0000 0.77083  0.63447  0.97477  Biso   1.000  C
  C213     1.0000 0.73043  0.58187  0.06574  Biso   1.000  C
  H106     1.0000 0.69333  0.58137  0.08217  Biso   1.000  H
  C214     1.0000 0.77503  0.60797  0.01207  Biso   1.000  C
  C215     1.0000 0.70603  0.58787  0.03467  Biso   1.000  C
  H107     1.0000 0.65513  0.58077  0.02827  Biso   1.000  H
  C216     1.0000 0.75853  0.60637  0.02557  Biso   1.000  C
  H108     1.0000 0.73243  0.61747  0.00727  Biso   1.000  H
  O81      1.0000 0.68563  0.60277  0.96007  Biso   1.000  O
  C217     1.0000 0.57230  0.87940  0.80968  Biso   1.000  C
  O82      1.0000 0.55465  0.84940  0.84004  Biso   1.000  O
  O83      1.0000 0.63230  0.88930  0.79143  Biso   1.000  O
  C218     1.0000 0.51680  0.90610  0.79334  Biso   1.000  C
  C219     1.0000 0.53630  0.94510  0.76076  Biso   1.000  C
  H109     1.0000 0.58580  0.95820  0.74990  Biso   1.000  H
  C220     1.0000 0.46970  0.03220  0.69190  Biso   1.000  C
  C221     1.0000 0.48190  0.08480  0.60093  Biso   1.000  C
  H110     1.0000 0.44530  0.08530  0.58450  Biso   1.000  H
  C222     1.0000 0.50040  0.05870  0.65460  Biso   1.000  C
  C223     1.0000 0.45150  0.07880  0.63200  Biso   1.000  C
  H111     1.0000 0.40770  0.08590  0.63840  Biso   1.000  H
  C224     1.0000 0.48550  0.06030  0.64110  Biso   1.000  C
  H112     1.0000 0.44830  0.04920  0.65940  Biso   1.000  H
  O84      1.0000 0.41620  0.06390  0.70660  Biso   1.000  O
  C225     1.0000 0.23897  0.21273  0.14301  Biso   1.000  C
  O85      1.0000 0.22132  0.18273  0.17337  Biso   1.000  O
  O86      1.0000 0.29897  0.22263  0.12476  Biso   1.000  O
  C226     1.0000 0.18347  0.23943  0.12667  Biso   1.000  C
  C227     1.0000 0.20297  0.27843  0.09409  Biso   1.000  C
  H113     1.0000 0.25247  0.29153  0.08323  Biso   1.000  H
  C228     1.0000 0.13637  0.36553  0.02523  Biso   1.000  C
  C229     1.0000 0.14857  0.41813  0.93426  Biso   1.000  C
  H114     1.0000 0.11197  0.41863  0.91783  Biso   1.000  H
  C230     1.0000 0.16707  0.39203  0.98793  Biso   1.000  C
  C231     1.0000 0.11817  0.41213  0.96533  Biso   1.000  C
  H115     1.0000 0.07437  0.41923  0.97173  Biso   1.000  H
  C232     1.0000 0.15217  0.39363  0.97443  Biso   1.000  C
  H116     1.0000 0.11497  0.38253  0.99273  Biso   1.000  H
  O87      1.0000 0.08287  0.39723  0.03993  Biso   1.000  O
  C233     1.0000 0.90563  0.54607  0.47635  Biso   1.000  C
  O88      1.0000 0.88798  0.51607  0.50671  Biso   1.000  O
  O89      1.0000 0.96563  0.55597  0.45810  Biso   1.000  O
  C234     1.0000 0.85013  0.57277  0.46001  Biso   1.000  C
  C235     1.0000 0.86963  0.61177  0.42743  Biso   1.000  C
  H117     1.0000 0.91913  0.62487  0.41657  Biso   1.000  H
  C236     1.0000 0.80303  0.69887  0.35857  Biso   1.000  C
  C237     1.0000 0.81523  0.75147  0.26760  Biso   1.000  C
  H118     1.0000 0.77863  0.75197  0.25117  Biso   1.000  H
  C238     1.0000 0.83373  0.72537  0.32127  Biso   1.000  C
  C239     1.0000 0.78483  0.74547  0.29867  Biso   1.000  C
  H119     1.0000 0.74103  0.75257  0.30507  Biso   1.000  H
  C240     1.0000 0.81883  0.72697  0.30777  Biso   1.000  C
  H120     1.0000 0.78163  0.71587  0.32607  Biso   1.000  H
  O90      1.0000 0.74953  0.73057  0.37327  Biso   1.000  O
  C241     1.0000 0.30710  0.42770  0.80968  Biso   1.000  C
  O91      1.0000 0.29475  0.44535  0.84004  Biso   1.000  O
  O92      1.0000 0.25700  0.36770  0.79143  Biso   1.000  O
  C242     1.0000 0.38930  0.48320  0.79334  Biso   1.000  C
  C243     1.0000 0.40880  0.46370  0.76076  Biso   1.000  C
  H121     1.0000 0.37240  0.41420  0.74990  Biso   1.000  H
  C244     1.0000 0.56250  0.53030  0.69190  Biso   1.000  C
  C245     1.0000 0.60290  0.51810  0.60093  Biso   1.000  C
  H122     1.0000 0.64000  0.55470  0.58450  Biso   1.000  H
  C246     1.0000 0.55830  0.49960  0.65460  Biso   1.000  C
  C247     1.0000 0.62730  0.54850  0.63200  Biso   1.000  C
  H123     1.0000 0.67820  0.59230  0.63840  Biso   1.000  H
  C248     1.0000 0.57480  0.51450  0.64110  Biso   1.000  C
  H124     1.0000 0.60090  0.55170  0.65940  Biso   1.000  H
  O93      1.0000 0.64770  0.58380  0.70660  Biso   1.000  O
  C249     1.0000 0.97377  0.76103  0.14301  Biso   1.000  C
  O94      1.0000 0.96142  0.77868  0.17337  Biso   1.000  O
  O95      1.0000 0.92367  0.70103  0.12476  Biso   1.000  O
  C250     1.0000 0.05597  0.81653  0.12667  Biso   1.000  C
  C251     1.0000 0.07547  0.79703  0.09409  Biso   1.000  C
  H125     1.0000 0.03907  0.74753  0.08323  Biso   1.000  H
  C252     1.0000 0.22917  0.86363  0.02523  Biso   1.000  C
  C253     1.0000 0.26957  0.85143  0.93426  Biso   1.000  C
  H126     1.0000 0.30667  0.88803  0.91783  Biso   1.000  H
  C254     1.0000 0.22497  0.83293  0.98793  Biso   1.000  C
  C255     1.0000 0.29397  0.88183  0.96533  Biso   1.000  C
  H127     1.0000 0.34487  0.92563  0.97173  Biso   1.000  H
  C256     1.0000 0.24147  0.84783  0.97443  Biso   1.000  C
  H128     1.0000 0.26757  0.88503  0.99273  Biso   1.000  H
  O96      1.0000 0.31437  0.91713  0.03993  Biso   1.000  O
  C257     1.0000 0.64043  0.09437  0.47635  Biso   1.000  C
  O97      1.0000 0.62808  0.11202  0.50671  Biso   1.000  O
  O98      1.0000 0.59033  0.03437  0.45810  Biso   1.000  O
  C258     1.0000 0.72263  0.14987  0.46001  Biso   1.000  C
  C259     1.0000 0.74213  0.13037  0.42743  Biso   1.000  C
  H129     1.0000 0.70573  0.08087  0.41657  Biso   1.000  H
  C260     1.0000 0.89583  0.19697  0.35857  Biso   1.000  C
  C261     1.0000 0.93623  0.18477  0.26760  Biso   1.000  C
  H130     1.0000 0.97333  0.22137  0.25117  Biso   1.000  H
  C262     1.0000 0.89163  0.16627  0.32127  Biso   1.000  C
  C263     1.0000 0.96063  0.21517  0.29867  Biso   1.000  C
  H131     1.0000 0.01153  0.25897  0.30507  Biso   1.000  H
  C264     1.0000 0.90813  0.18117  0.30777  Biso   1.000  C
  H132     1.0000 0.93423  0.21837  0.32607  Biso   1.000  H
  O99      1.0000 0.98103  0.25047  0.37327  Biso   1.000  O
  C265     1.0000 0.12060  0.69290  0.80968  Biso   1.000  C
  O100     1.0000 0.15060  0.70525  0.84004  Biso   1.000  O
  O101     1.0000 0.11070  0.74300  0.79143  Biso   1.000  O
  C266     1.0000 0.09390  0.61070  0.79334  Biso   1.000  C
  C267     1.0000 0.05490  0.59120  0.76076  Biso   1.000  C
  H133     1.0000 0.04180  0.62760  0.74990  Biso   1.000  H
  C268     1.0000 0.96780  0.43750  0.69190  Biso   1.000  C
  C269     1.0000 0.91520  0.39710  0.60093  Biso   1.000  C
  H134     1.0000 0.91470  0.36000  0.58450  Biso   1.000  H
  C270     1.0000 0.94130  0.44170  0.65460  Biso   1.000  C
  C271     1.0000 0.92120  0.37270  0.63200  Biso   1.000  C
  H135     1.0000 0.91410  0.32180  0.63840  Biso   1.000  H
  C272     1.0000 0.93970  0.42520  0.64110  Biso   1.000  C
  H136     1.0000 0.95080  0.39910  0.65940  Biso   1.000  H
  O102     1.0000 0.93610  0.35230  0.70660  Biso   1.000  O
  C273     1.0000 0.78727  0.02623  0.14301  Biso   1.000  C
  O103     1.0000 0.81727  0.03858  0.17337  Biso   1.000  O
  O104     1.0000 0.77737  0.07633  0.12476  Biso   1.000  O
  C274     1.0000 0.76057  0.94403  0.12667  Biso   1.000  C
  C275     1.0000 0.72157  0.92453  0.09409  Biso   1.000  C
  H137     1.0000 0.70847  0.96093  0.08323  Biso   1.000  H
  C276     1.0000 0.63447  0.77083  0.02523  Biso   1.000  C
  C277     1.0000 0.58187  0.73043  0.93426  Biso   1.000  C
  H138     1.0000 0.58137  0.69333  0.91783  Biso   1.000  H
  C278     1.0000 0.60797  0.77503  0.98793  Biso   1.000  C
  C279     1.0000 0.58787  0.70603  0.96533  Biso   1.000  C
  H139     1.0000 0.58077  0.65513  0.97173  Biso   1.000  H
  C280     1.0000 0.60637  0.75853  0.97443  Biso   1.000  C
  H140     1.0000 0.61747  0.73243  0.99273  Biso   1.000  H
  O105     1.0000 0.60277  0.68563  0.03993  Biso   1.000  O
  C281     1.0000 0.45393  0.35957  0.47635  Biso   1.000  C
  O106     1.0000 0.48393  0.37192  0.50671  Biso   1.000  O
  O107     1.0000 0.44403  0.40967  0.45810  Biso   1.000  O
  C282     1.0000 0.42723  0.27737  0.46001  Biso   1.000  C
  C283     1.0000 0.38823  0.25787  0.42743  Biso   1.000  C
  H141     1.0000 0.37513  0.29427  0.41657  Biso   1.000  H
  C284     1.0000 0.30113  0.10417  0.35857  Biso   1.000  C
  C285     1.0000 0.24853  0.06377  0.26760  Biso   1.000  C
  H142     1.0000 0.24803  0.02667  0.25117  Biso   1.000  H
  C286     1.0000 0.27463  0.10837  0.32127  Biso   1.000  C
  C287     1.0000 0.25453  0.03937  0.29867  Biso   1.000  C
  H143     1.0000 0.24743  0.98847  0.30507  Biso   1.000  H
  C288     1.0000 0.27303  0.09187  0.30777  Biso   1.000  C
  H144     1.0000 0.28413  0.06577  0.32607  Biso   1.000  H
  O108     1.0000 0.26943  0.01897  0.37327  Biso   1.000  O
  Cu1      1.0000 0.14379  0.28758  0.80407  Biso   1.000  Cu
  Cu2      1.0000 0.81046  0.62091  0.13740  Biso   1.000  Cu
  Cu3      1.0000 0.47712  0.95425  0.47073  Biso   1.000  Cu
  Cu4      1.0000 0.71242  0.85621  0.80407  Biso   1.000  Cu
  Cu5      1.0000 0.37909  0.18954  0.13740  Biso   1.000  Cu
  Cu6      1.0000 0.04575  0.52288  0.47073  Biso   1.000  Cu
  Cu7      1.0000 0.14379  0.85621  0.80407  Biso   1.000  Cu
  Cu8      1.0000 0.81046  0.18954  0.13740  Biso   1.000  Cu
  Cu9      1.0000 0.47712  0.52288  0.47073  Biso   1.000  Cu
  Cu10     1.0000 0.28758  0.14379  0.19593  Biso   1.000  Cu
  Cu11     1.0000 0.95425  0.47712  0.52927  Biso   1.000  Cu
  Cu12     1.0000 0.62091  0.81046  0.86260  Biso   1.000  Cu
  Cu13     1.0000 0.85621  0.71242  0.19593  Biso   1.000  Cu
  Cu14     1.0000 0.52288  0.04575  0.52927  Biso   1.000  Cu
  Cu15     1.0000 0.18954  0.37909  0.86260  Biso   1.000  Cu
  Cu16     1.0000 0.85621  0.14379  0.19593  Biso   1.000  Cu
  Cu17     1.0000 0.52288  0.47712  0.52927  Biso   1.000  Cu
  Cu18     1.0000 0.18954  0.81046  0.86260  Biso   1.000  Cu
  N1       1.0000 0.90960  0.45480  0.58358  Biso   1.000  N
  C289     1.0000 0.11230  0.55615  0.80986  Biso   1.000  C
  H145     1.0000 0.13690  0.56845  0.83200  Biso   1.000  H
  C290     1.0000 0.03550  0.51775  0.74420  Biso   1.000  C
  N2       1.0000 0.99900  0.49950  0.71059  Biso   1.000  N
  N3       1.0000 0.57627  0.78813  0.91691  Biso   1.000  N
  C291     1.0000 0.77897  0.88948  0.14319  Biso   1.000  C
  H146     1.0000 0.80357  0.90178  0.16533  Biso   1.000  H
  C292     1.0000 0.70217  0.85108  0.07753  Biso   1.000  C
  N4       1.0000 0.66567  0.83283  0.04392  Biso   1.000  N
  N5       1.0000 0.24293  0.12147  0.25025  Biso   1.000  N
  C293     1.0000 0.44563  0.22282  0.47653  Biso   1.000  C
  H147     1.0000 0.47023  0.23512  0.49867  Biso   1.000  H
  C294     1.0000 0.36883  0.18442  0.41087  Biso   1.000  C
  N6       1.0000 0.33233  0.16617  0.37726  Biso   1.000  N
  N7       1.0000 0.54520  0.45480  0.58358  Biso   1.000  N
  C295     1.0000 0.44385  0.55615  0.80986  Biso   1.000  C
  H148     1.0000 0.43155  0.56845  0.83200  Biso   1.000  H
  C296     1.0000 0.48225  0.51775  0.74420  Biso   1.000  C
  N8       1.0000 0.50050  0.49950  0.71059  Biso   1.000  N
  N9       1.0000 0.21187  0.78813  0.91691  Biso   1.000  N
  C297     1.0000 0.11052  0.88948  0.14319  Biso   1.000  C
  H149     1.0000 0.09822  0.90178  0.16533  Biso   1.000  H
  C298     1.0000 0.14892  0.85108  0.07753  Biso   1.000  C
  N10      1.0000 0.16717  0.83283  0.04392  Biso   1.000  N
  N11      1.0000 0.87853  0.12147  0.25025  Biso   1.000  N
  C299     1.0000 0.77718  0.22282  0.47653  Biso   1.000  C
  H150     1.0000 0.76488  0.23512  0.49867  Biso   1.000  H
  C300     1.0000 0.81558  0.18442  0.41087  Biso   1.000  C
  N12      1.0000 0.83383  0.16617  0.37726  Biso   1.000  N
  N13      1.0000 0.54520  0.09040  0.58358  Biso   1.000  N
  C301     1.0000 0.44385  0.88770  0.80986  Biso   1.000  C
  H151     1.0000 0.43155  0.86310  0.83200  Biso   1.000  H
  C302     1.0000 0.48225  0.96450  0.74420  Biso   1.000  C
  N14      1.0000 0.50050  0.00100  0.71059  Biso   1.000  N
  N15      1.0000 0.21187  0.42373  0.91691  Biso   1.000  N
  C303     1.0000 0.11052  0.22103  0.14319  Biso   1.000  C
  H152     1.0000 0.09822  0.19643  0.16533  Biso   1.000  H
  C304     1.0000 0.14892  0.29783  0.07753  Biso   1.000  C
  N16      1.0000 0.16717  0.33433  0.04392  Biso   1.000  N
  N17      1.0000 0.87853  0.75707  0.25025  Biso   1.000  N
  C305     1.0000 0.77718  0.55437  0.47653  Biso   1.000  C
  H153     1.0000 0.76488  0.52977  0.49867  Biso   1.000  H
  C306     1.0000 0.81558  0.63117  0.41087  Biso   1.000  C
  N18      1.0000 0.83383  0.66767  0.37726  Biso   1.000  N
  N19      1.0000 0.45480  0.90960  0.41642  Biso   1.000  N
  C307     1.0000 0.55615  0.11230  0.19014  Biso   1.000  C
  H154     1.0000 0.56845  0.13690  0.16800  Biso   1.000  H
  C308     1.0000 0.51775  0.03550  0.25580  Biso   1.000  C
  N20      1.0000 0.49950  0.99900  0.28941  Biso   1.000  N
  N21      1.0000 0.12147  0.24293  0.74975  Biso   1.000  N
  C309     1.0000 0.22282  0.44563  0.52347  Biso   1.000  C
  H155     1.0000 0.23512  0.47023  0.50133  Biso   1.000  H
  C310     1.0000 0.18442  0.36883  0.58913  Biso   1.000  C
  N22      1.0000 0.16617  0.33233  0.62274  Biso   1.000  N
  N23      1.0000 0.78813  0.57627  0.08309  Biso   1.000  N
  C311     1.0000 0.88948  0.77897  0.85681  Biso   1.000  C
  H156     1.0000 0.90178  0.80357  0.83467  Biso   1.000  H
  C312     1.0000 0.85108  0.70217  0.92247  Biso   1.000  C
  N24      1.0000 0.83283  0.66567  0.95608  Biso   1.000  N
  N25      1.0000 0.45480  0.54520  0.41642  Biso   1.000  N
  C313     1.0000 0.55615  0.44385  0.19014  Biso   1.000  C
  H157     1.0000 0.56845  0.43155  0.16800  Biso   1.000  H
  C314     1.0000 0.51775  0.48225  0.25580  Biso   1.000  C
  N26      1.0000 0.49950  0.50050  0.28941  Biso   1.000  N
  N27      1.0000 0.12147  0.87853  0.74975  Biso   1.000  N
  C315     1.0000 0.22282  0.77718  0.52347  Biso   1.000  C
  H158     1.0000 0.23512  0.76488  0.50133  Biso   1.000  H
  C316     1.0000 0.18442  0.81558  0.58913  Biso   1.000  C
  N28      1.0000 0.16617  0.83383  0.62274  Biso   1.000  N
  N29      1.0000 0.78813  0.21187  0.08309  Biso   1.000  N
  C317     1.0000 0.88948  0.11052  0.85681  Biso   1.000  C
  H159     1.0000 0.90178  0.09822  0.83467  Biso   1.000  H
  C318     1.0000 0.85108  0.14892  0.92247  Biso   1.000  C
  N30      1.0000 0.83283  0.16717  0.95608  Biso   1.000  N
  N31      1.0000 0.09040  0.54520  0.41642  Biso   1.000  N
  C319     1.0000 0.88770  0.44385  0.19014  Biso   1.000  C
  H160     1.0000 0.86310  0.43155  0.16800  Biso   1.000  H
  C320     1.0000 0.96450  0.48225  0.25580  Biso   1.000  C
  N32      1.0000 0.00100  0.50050  0.28941  Biso   1.000  N
  N33      1.0000 0.75707  0.87853  0.74975  Biso   1.000  N
  C321     1.0000 0.55437  0.77718  0.52347  Biso   1.000  C
  H161     1.0000 0.52977  0.76488  0.50133  Biso   1.000  H
  C322     1.0000 0.63117  0.81558  0.58913  Biso   1.000  C
  N34      1.0000 0.66767  0.83383  0.62274  Biso   1.000  N
  N35      1.0000 0.42373  0.21187  0.08309  Biso   1.000  N
  C323     1.0000 0.22103  0.11052  0.85681  Biso   1.000  C
  H162     1.0000 0.19643  0.09822  0.83467  Biso   1.000  H
  C324     1.0000 0.29783  0.14892  0.92247  Biso   1.000  C
  N36      1.0000 0.33433  0.16717  0.95608  Biso   1.000  N
