data_image0
_cell_length_a       26.7888
_cell_length_b       26.7888
_cell_length_c       65.6133
_cell_angle_alpha    90
_cell_angle_beta     90
_cell_angle_gamma    120

_symmetry_space_group_name_H-M    "P 1"
_symmetry_int_tables_number       1

loop_
  _symmetry_equiv_pos_as_xyz
  'x, y, z'

loop_
  _atom_site_label
  _atom_site_occupancy
  _atom_site_fract_x
  _atom_site_fract_y
  _atom_site_fract_z
  _atom_site_thermal_displace_type
  _atom_site_B_iso_or_equiv
  _atom_site_type_symbol
  C1       1.0000 0.35850  0.13750  0.10135  Biso   1.000  C
  H1       1.0000 0.35180  0.10490  0.09350  Biso   1.000  H
  C2       1.0000 0.34470  0.13200  0.12183  Biso   1.000  C
  H2       1.0000 0.32930  0.09480  0.12770  Biso   1.000  H
  C3       1.0000 0.21030  0.06500  0.15472  Biso   1.000  C
  H3       1.0000 0.23160  0.04730  0.15040  Biso   1.000  H
  C4       1.0000 0.15080  0.03380  0.15358  Biso   1.000  C
  H4       1.0000 0.13180  0.99450  0.14950  Biso   1.000  H
  N1       1.0000 0.40874  0.24849  0.06210  Biso   1.000  N
  C5       1.0000 0.42829  0.25602  0.04308  Biso   1.000  C
  C6       1.0000 0.44208  0.31075  0.03274  Biso   1.000  C
  N2       1.0000 0.47128  0.41515  0.01410  Biso   1.000  N
  C7       1.0000 0.46270  0.40710  0.03433  Biso   1.000  C
  H5       1.0000 0.46620  0.43830  0.04230  Biso   1.000  H
  C8       1.0000 0.44930  0.35710  0.04410  Biso   1.000  C
  H6       1.0000 0.44500  0.35430  0.05850  Biso   1.000  H
  C9       1.0000 0.44770  0.31620  0.01175  Biso   1.000  C
  H7       1.0000 0.44240  0.28470  0.00350  Biso   1.000  H
  C10      1.0000 0.46110  0.36820  0.00307  Biso   1.000  C
  H8       1.0000 0.46340  0.37140  0.98860  Biso   1.000  H
  C11      1.0000 0.43470  0.39570  0.03012  Biso   1.000  C
  H9       1.0000 0.41790  0.41760  0.03470  Biso   1.000  H
  C12      1.0000 0.42100  0.34530  0.04005  Biso   1.000  C
  H10      1.0000 0.39730  0.33420  0.05180  Biso   1.000  H
  C13      1.0000 0.47640  0.32910  0.01582  Biso   1.000  C
  H11      1.0000 0.49110  0.30630  0.01030  Biso   1.000  H
  C14      1.0000 0.48970  0.38060  0.00672  Biso   1.000  C
  H12      1.0000 0.51270  0.39210  0.99480  Biso   1.000  H
  H13      1.0000 0.40320  0.27370  0.09850  Biso   1.000  H
  C15      1.0000 0.38880  0.23650  0.10435  Biso   1.000  C
  H14      1.0000 0.38050  0.25960  0.13270  Biso   1.000  H
  C16      1.0000 0.37410  0.22730  0.12475  Biso   1.000  C
  H15      1.0000 0.22810  0.18450  0.16980  Biso   1.000  H
  C17      1.0000 0.20840  0.14510  0.16584  Biso   1.000  C
  H16      1.0000 0.12840  0.13580  0.16800  Biso   1.000  H
  C18      1.0000 0.14890  0.11650  0.16461  Biso   1.000  C
  C19      1.0000 0.02517  0.47083  0.43468  Biso   1.000  C
  H17      1.0000 0.01847  0.43823  0.42683  Biso   1.000  H
  C20      1.0000 0.01137  0.46533  0.45516  Biso   1.000  C
  H18      1.0000 0.99597  0.42813  0.46103  Biso   1.000  H
  C21      1.0000 0.87697  0.39833  0.48805  Biso   1.000  C
  H19      1.0000 0.89827  0.38063  0.48373  Biso   1.000  H
  C22      1.0000 0.81747  0.36713  0.48691  Biso   1.000  C
  H20      1.0000 0.79847  0.32783  0.48283  Biso   1.000  H
  N3       1.0000 0.07541  0.58182  0.39543  Biso   1.000  N
  C23      1.0000 0.09496  0.58935  0.37641  Biso   1.000  C
  C24      1.0000 0.10875  0.64408  0.36607  Biso   1.000  C
  N4       1.0000 0.13795  0.74848  0.34743  Biso   1.000  N
  C25      1.0000 0.12937  0.74043  0.36766  Biso   1.000  C
  H21      1.0000 0.13287  0.77163  0.37563  Biso   1.000  H
  C26      1.0000 0.11597  0.69043  0.37743  Biso   1.000  C
  H22      1.0000 0.11167  0.68763  0.39183  Biso   1.000  H
  C27      1.0000 0.11437  0.64953  0.34508  Biso   1.000  C
  H23      1.0000 0.10907  0.61803  0.33683  Biso   1.000  H
  C28      1.0000 0.12777  0.70153  0.33640  Biso   1.000  C
  H24      1.0000 0.13007  0.70473  0.32193  Biso   1.000  H
  C29      1.0000 0.10137  0.72903  0.36345  Biso   1.000  C
  H25      1.0000 0.08457  0.75093  0.36803  Biso   1.000  H
  C30      1.0000 0.08767  0.67863  0.37338  Biso   1.000  C
  H26      1.0000 0.06397  0.66753  0.38513  Biso   1.000  H
  C31      1.0000 0.14307  0.66243  0.34915  Biso   1.000  C
  H27      1.0000 0.15777  0.63963  0.34363  Biso   1.000  H
  C32      1.0000 0.15637  0.71393  0.34005  Biso   1.000  C
  H28      1.0000 0.17937  0.72543  0.32813  Biso   1.000  H
  H29      1.0000 0.06987  0.60703  0.43183  Biso   1.000  H
  C33      1.0000 0.05547  0.56983  0.43768  Biso   1.000  C
  H30      1.0000 0.04717  0.59293  0.46603  Biso   1.000  H
  C34      1.0000 0.04077  0.56063  0.45808  Biso   1.000  C
  H31      1.0000 0.89477  0.51783  0.50313  Biso   1.000  H
  C35      1.0000 0.87507  0.47843  0.49917  Biso   1.000  C
  H32      1.0000 0.79507  0.46913  0.50133  Biso   1.000  H
  C36      1.0000 0.81557  0.44983  0.49794  Biso   1.000  C
  C37      1.0000 0.69183  0.80417  0.76802  Biso   1.000  C
  H33      1.0000 0.68513  0.77157  0.76017  Biso   1.000  H
  C38      1.0000 0.67803  0.79867  0.78850  Biso   1.000  C
  H34      1.0000 0.66263  0.76147  0.79437  Biso   1.000  H
  C39      1.0000 0.54363  0.73167  0.82139  Biso   1.000  C
  H35      1.0000 0.56493  0.71397  0.81707  Biso   1.000  H
  C40      1.0000 0.48413  0.70047  0.82025  Biso   1.000  C
  H36      1.0000 0.46513  0.66117  0.81617  Biso   1.000  H
  N5       1.0000 0.74207  0.91516  0.72877  Biso   1.000  N
  C41      1.0000 0.76162  0.92269  0.70975  Biso   1.000  C
  C42      1.0000 0.77541  0.97742  0.69941  Biso   1.000  C
  N6       1.0000 0.80461  0.08182  0.68077  Biso   1.000  N
  C43      1.0000 0.79603  0.07377  0.70100  Biso   1.000  C
  H37      1.0000 0.79953  0.10497  0.70897  Biso   1.000  H
  C44      1.0000 0.78263  0.02377  0.71077  Biso   1.000  C
  H38      1.0000 0.77833  0.02097  0.72517  Biso   1.000  H
  C45      1.0000 0.78103  0.98287  0.67842  Biso   1.000  C
  H39      1.0000 0.77573  0.95137  0.67017  Biso   1.000  H
  C46      1.0000 0.79443  0.03487  0.66974  Biso   1.000  C
  H40      1.0000 0.79673  0.03807  0.65527  Biso   1.000  H
  C47      1.0000 0.76803  0.06237  0.69679  Biso   1.000  C
  H41      1.0000 0.75123  0.08427  0.70137  Biso   1.000  H
  C48      1.0000 0.75433  0.01197  0.70672  Biso   1.000  C
  H42      1.0000 0.73063  0.00087  0.71847  Biso   1.000  H
  C49      1.0000 0.80973  0.99577  0.68249  Biso   1.000  C
  H43      1.0000 0.82443  0.97297  0.67697  Biso   1.000  H
  C50      1.0000 0.82303  0.04727  0.67339  Biso   1.000  C
  H44      1.0000 0.84603  0.05877  0.66147  Biso   1.000  H
  H45      1.0000 0.73653  0.94037  0.76517  Biso   1.000  H
  C51      1.0000 0.72213  0.90317  0.77102  Biso   1.000  C
  H46      1.0000 0.71383  0.92627  0.79937  Biso   1.000  H
  C52      1.0000 0.70743  0.89397  0.79142  Biso   1.000  C
  H47      1.0000 0.56143  0.85117  0.83647  Biso   1.000  H
  C53      1.0000 0.54173  0.81177  0.83251  Biso   1.000  C
  H48      1.0000 0.46173  0.80247  0.83467  Biso   1.000  H
  C54      1.0000 0.48223  0.78317  0.83128  Biso   1.000  C
  C55      1.0000 0.86250  0.22100  0.10135  Biso   1.000  C
  H49      1.0000 0.89510  0.24690  0.09350  Biso   1.000  H
  C56      1.0000 0.86800  0.21270  0.12183  Biso   1.000  C
  H50      1.0000 0.90520  0.23450  0.12770  Biso   1.000  H
  C57      1.0000 0.93500  0.14530  0.15472  Biso   1.000  C
  H51      1.0000 0.95270  0.18430  0.15040  Biso   1.000  H
  C58      1.0000 0.96620  0.11700  0.15358  Biso   1.000  C
  H52      1.0000 0.00550  0.13730  0.14950  Biso   1.000  H
  N7       1.0000 0.75151  0.16025  0.06210  Biso   1.000  N
  C59      1.0000 0.74398  0.17227  0.04308  Biso   1.000  C
  C60      1.0000 0.68925  0.13133  0.03274  Biso   1.000  C
  N8       1.0000 0.58485  0.05613  0.01410  Biso   1.000  N
  C61      1.0000 0.59290  0.05560  0.03433  Biso   1.000  C
  H53      1.0000 0.56170  0.02790  0.04230  Biso   1.000  H
  C62      1.0000 0.64290  0.09220  0.04410  Biso   1.000  C
  H54      1.0000 0.64570  0.09070  0.05850  Biso   1.000  H
  C63      1.0000 0.68380  0.13150  0.01175  Biso   1.000  C
  H55      1.0000 0.71530  0.15770  0.00350  Biso   1.000  H
  C64      1.0000 0.63180  0.09290  0.00307  Biso   1.000  C
  H56      1.0000 0.62860  0.09200  0.98860  Biso   1.000  H
  C65      1.0000 0.60430  0.03900  0.03012  Biso   1.000  C
  H57      1.0000 0.58240  0.00030  0.03470  Biso   1.000  H
  C66      1.0000 0.65470  0.07570  0.04005  Biso   1.000  C
  H58      1.0000 0.66580  0.06310  0.05180  Biso   1.000  H
  C67      1.0000 0.67090  0.14730  0.01582  Biso   1.000  C
  H59      1.0000 0.69370  0.18480  0.01030  Biso   1.000  H
  C68      1.0000 0.61940  0.10910  0.00672  Biso   1.000  C
  H60      1.0000 0.60790  0.12060  0.99480  Biso   1.000  H
  H61      1.0000 0.72630  0.12950  0.09850  Biso   1.000  H
  C69      1.0000 0.76350  0.15230  0.10435  Biso   1.000  C
  H62      1.0000 0.74040  0.12090  0.13270  Biso   1.000  H
  C70      1.0000 0.77270  0.14680  0.12475  Biso   1.000  C
  H63      1.0000 0.81550  0.04360  0.16980  Biso   1.000  H
  C71      1.0000 0.85490  0.06330  0.16584  Biso   1.000  C
  H64      1.0000 0.86420  0.99260  0.16800  Biso   1.000  H
  C72      1.0000 0.88350  0.03240  0.16461  Biso   1.000  C
  C73      1.0000 0.52917  0.55433  0.43468  Biso   1.000  C
  H65      1.0000 0.56177  0.58023  0.42683  Biso   1.000  H
  C74      1.0000 0.53467  0.54603  0.45516  Biso   1.000  C
  H66      1.0000 0.57187  0.56783  0.46103  Biso   1.000  H
  C75      1.0000 0.60167  0.47863  0.48805  Biso   1.000  C
  H67      1.0000 0.61937  0.51763  0.48373  Biso   1.000  H
  C76      1.0000 0.63287  0.45033  0.48691  Biso   1.000  C
  H68      1.0000 0.67217  0.47063  0.48283  Biso   1.000  H
  N9       1.0000 0.41818  0.49358  0.39543  Biso   1.000  N
  C77      1.0000 0.41065  0.50560  0.37641  Biso   1.000  C
  C78      1.0000 0.35592  0.46466  0.36607  Biso   1.000  C
  N10      1.0000 0.25152  0.38946  0.34743  Biso   1.000  N
  C79      1.0000 0.25957  0.38893  0.36766  Biso   1.000  C
  H69      1.0000 0.22837  0.36123  0.37563  Biso   1.000  H
  C80      1.0000 0.30957  0.42553  0.37743  Biso   1.000  C
  H70      1.0000 0.31237  0.42403  0.39183  Biso   1.000  H
  C81      1.0000 0.35047  0.46483  0.34508  Biso   1.000  C
  H71      1.0000 0.38197  0.49103  0.33683  Biso   1.000  H
  C82      1.0000 0.29847  0.42623  0.33640  Biso   1.000  C
  H72      1.0000 0.29527  0.42533  0.32193  Biso   1.000  H
  C83      1.0000 0.27097  0.37233  0.36345  Biso   1.000  C
  H73      1.0000 0.24907  0.33363  0.36803  Biso   1.000  H
  C84      1.0000 0.32137  0.40903  0.37338  Biso   1.000  C
  H74      1.0000 0.33247  0.39643  0.38513  Biso   1.000  H
  C85      1.0000 0.33757  0.48063  0.34915  Biso   1.000  C
  H75      1.0000 0.36037  0.51813  0.34363  Biso   1.000  H
  C86      1.0000 0.28607  0.44243  0.34005  Biso   1.000  C
  H76      1.0000 0.27457  0.45393  0.32813  Biso   1.000  H
  H77      1.0000 0.39297  0.46283  0.43183  Biso   1.000  H
  C87      1.0000 0.43017  0.48563  0.43768  Biso   1.000  C
  H78      1.0000 0.40707  0.45423  0.46603  Biso   1.000  H
  C88      1.0000 0.43937  0.48013  0.45808  Biso   1.000  C
  H79      1.0000 0.48217  0.37693  0.50313  Biso   1.000  H
  C89      1.0000 0.52157  0.39663  0.49917  Biso   1.000  C
  H80      1.0000 0.53087  0.32593  0.50133  Biso   1.000  H
  C90      1.0000 0.55017  0.36573  0.49794  Biso   1.000  C
  C91      1.0000 0.19583  0.88767  0.76802  Biso   1.000  C
  H81      1.0000 0.22843  0.91357  0.76017  Biso   1.000  H
  C92      1.0000 0.20133  0.87937  0.78850  Biso   1.000  C
  H82      1.0000 0.23853  0.90117  0.79437  Biso   1.000  H
  C93      1.0000 0.26833  0.81197  0.82139  Biso   1.000  C
  H83      1.0000 0.28603  0.85097  0.81707  Biso   1.000  H
  C94      1.0000 0.29953  0.78367  0.82025  Biso   1.000  C
  H84      1.0000 0.33883  0.80397  0.81617  Biso   1.000  H
  N11      1.0000 0.08484  0.82692  0.72877  Biso   1.000  N
  C95      1.0000 0.07731  0.83894  0.70975  Biso   1.000  C
  C96      1.0000 0.02258  0.79800  0.69941  Biso   1.000  C
  N12      1.0000 0.91818  0.72280  0.68077  Biso   1.000  N
  C97      1.0000 0.92623  0.72227  0.70100  Biso   1.000  C
  H85      1.0000 0.89503  0.69457  0.70897  Biso   1.000  H
  C98      1.0000 0.97623  0.75887  0.71077  Biso   1.000  C
  H86      1.0000 0.97903  0.75737  0.72517  Biso   1.000  H
  C99      1.0000 0.01713  0.79817  0.67842  Biso   1.000  C
  H87      1.0000 0.04863  0.82437  0.67017  Biso   1.000  H
  C100     1.0000 0.96513  0.75957  0.66974  Biso   1.000  C
  H88      1.0000 0.96193  0.75867  0.65527  Biso   1.000  H
  C101     1.0000 0.93763  0.70567  0.69679  Biso   1.000  C
  H89      1.0000 0.91573  0.66697  0.70137  Biso   1.000  H
  C102     1.0000 0.98803  0.74237  0.70672  Biso   1.000  C
  H90      1.0000 0.99913  0.72977  0.71847  Biso   1.000  H
  C103     1.0000 0.00423  0.81397  0.68249  Biso   1.000  C
  H91      1.0000 0.02703  0.85147  0.67697  Biso   1.000  H
  C104     1.0000 0.95273  0.77577  0.67339  Biso   1.000  C
  H92      1.0000 0.94123  0.78727  0.66147  Biso   1.000  H
  H93      1.0000 0.05963  0.79617  0.76517  Biso   1.000  H
  C105     1.0000 0.09683  0.81897  0.77102  Biso   1.000  C
  H94      1.0000 0.07373  0.78757  0.79937  Biso   1.000  H
  C106     1.0000 0.10603  0.81347  0.79142  Biso   1.000  C
  H95      1.0000 0.14883  0.71027  0.83647  Biso   1.000  H
  C107     1.0000 0.18823  0.72997  0.83251  Biso   1.000  C
  H96      1.0000 0.19753  0.65927  0.83467  Biso   1.000  H
  C108     1.0000 0.21683  0.69907  0.83128  Biso   1.000  C
  C109     1.0000 0.77900  0.64150  0.10135  Biso   1.000  C
  H97      1.0000 0.75310  0.64820  0.09350  Biso   1.000  H
  C110     1.0000 0.78730  0.65530  0.12183  Biso   1.000  C
  H98      1.0000 0.76550  0.67070  0.12770  Biso   1.000  H
  C111     1.0000 0.85470  0.78970  0.15472  Biso   1.000  C
  H99      1.0000 0.81570  0.76840  0.15040  Biso   1.000  H
  C112     1.0000 0.88300  0.84920  0.15358  Biso   1.000  C
  H100     1.0000 0.86270  0.86820  0.14950  Biso   1.000  H
  N13      1.0000 0.83975  0.59126  0.06210  Biso   1.000  N
  C113     1.0000 0.82773  0.57171  0.04308  Biso   1.000  C
  C114     1.0000 0.86867  0.55792  0.03274  Biso   1.000  C
  N14      1.0000 0.94387  0.52872  0.01410  Biso   1.000  N
  C115     1.0000 0.94440  0.53730  0.03433  Biso   1.000  C
  H101     1.0000 0.97210  0.53380  0.04230  Biso   1.000  H
  C116     1.0000 0.90780  0.55070  0.04410  Biso   1.000  C
  H102     1.0000 0.90930  0.55500  0.05850  Biso   1.000  H
  C117     1.0000 0.86850  0.55230  0.01175  Biso   1.000  C
  H103     1.0000 0.84230  0.55760  0.00350  Biso   1.000  H
  C118     1.0000 0.90710  0.53890  0.00307  Biso   1.000  C
  H104     1.0000 0.90800  0.53660  0.98860  Biso   1.000  H
  C119     1.0000 0.96100  0.56530  0.03012  Biso   1.000  C
  H105     1.0000 0.99970  0.58210  0.03470  Biso   1.000  H
  C120     1.0000 0.92430  0.57900  0.04005  Biso   1.000  C
  H106     1.0000 0.93690  0.60270  0.05180  Biso   1.000  H
  C121     1.0000 0.85270  0.52360  0.01582  Biso   1.000  C
  H107     1.0000 0.81520  0.50890  0.01030  Biso   1.000  H
  C122     1.0000 0.89090  0.51030  0.00672  Biso   1.000  C
  H108     1.0000 0.87940  0.48730  0.99480  Biso   1.000  H
  H109     1.0000 0.87050  0.59680  0.09850  Biso   1.000  H
  C123     1.0000 0.84770  0.61120  0.10435  Biso   1.000  C
  H110     1.0000 0.87910  0.61950  0.13270  Biso   1.000  H
  C124     1.0000 0.85320  0.62590  0.12475  Biso   1.000  C
  H111     1.0000 0.95640  0.77190  0.16980  Biso   1.000  H
  C125     1.0000 0.93670  0.79160  0.16584  Biso   1.000  C
  H112     1.0000 0.00740  0.87160  0.16800  Biso   1.000  H
  C126     1.0000 0.96760  0.85110  0.16461  Biso   1.000  C
  C127     1.0000 0.44567  0.97483  0.43468  Biso   1.000  C
  H113     1.0000 0.41977  0.98153  0.42683  Biso   1.000  H
  C128     1.0000 0.45397  0.98863  0.45516  Biso   1.000  C
  H114     1.0000 0.43217  0.00403  0.46103  Biso   1.000  H
  C129     1.0000 0.52137  0.12303  0.48805  Biso   1.000  C
  H115     1.0000 0.48237  0.10173  0.48373  Biso   1.000  H
  C130     1.0000 0.54967  0.18253  0.48691  Biso   1.000  C
  H116     1.0000 0.52937  0.20153  0.48283  Biso   1.000  H
  N15      1.0000 0.50642  0.92459  0.39543  Biso   1.000  N
  C131     1.0000 0.49440  0.90504  0.37641  Biso   1.000  C
  C132     1.0000 0.53534  0.89125  0.36607  Biso   1.000  C
  N16      1.0000 0.61054  0.86205  0.34743  Biso   1.000  N
  C133     1.0000 0.61107  0.87063  0.36766  Biso   1.000  C
  H117     1.0000 0.63877  0.86713  0.37563  Biso   1.000  H
  C134     1.0000 0.57447  0.88403  0.37743  Biso   1.000  C
  H118     1.0000 0.57597  0.88833  0.39183  Biso   1.000  H
  C135     1.0000 0.53517  0.88563  0.34508  Biso   1.000  C
  H119     1.0000 0.50897  0.89093  0.33683  Biso   1.000  H
  C136     1.0000 0.57377  0.87223  0.33640  Biso   1.000  C
  H120     1.0000 0.57467  0.86993  0.32193  Biso   1.000  H
  C137     1.0000 0.62767  0.89863  0.36345  Biso   1.000  C
  H121     1.0000 0.66637  0.91543  0.36803  Biso   1.000  H
  C138     1.0000 0.59097  0.91233  0.37338  Biso   1.000  C
  H122     1.0000 0.60357  0.93603  0.38513  Biso   1.000  H
  C139     1.0000 0.51937  0.85693  0.34915  Biso   1.000  C
  H123     1.0000 0.48187  0.84223  0.34363  Biso   1.000  H
  C140     1.0000 0.55757  0.84363  0.34005  Biso   1.000  C
  H124     1.0000 0.54607  0.82063  0.32813  Biso   1.000  H
  H125     1.0000 0.53717  0.93013  0.43183  Biso   1.000  H
  C141     1.0000 0.51437  0.94453  0.43768  Biso   1.000  C
  H126     1.0000 0.54577  0.95283  0.46603  Biso   1.000  H
  C142     1.0000 0.51987  0.95923  0.45808  Biso   1.000  C
  H127     1.0000 0.62307  0.10523  0.50313  Biso   1.000  H
  C143     1.0000 0.60337  0.12493  0.49917  Biso   1.000  C
  H128     1.0000 0.67407  0.20493  0.50133  Biso   1.000  H
  C144     1.0000 0.63427  0.18443  0.49794  Biso   1.000  C
  C145     1.0000 0.11233  0.30817  0.76802  Biso   1.000  C
  H129     1.0000 0.08643  0.31487  0.76017  Biso   1.000  H
  C146     1.0000 0.12063  0.32197  0.78850  Biso   1.000  C
  H130     1.0000 0.09883  0.33737  0.79437  Biso   1.000  H
  C147     1.0000 0.18803  0.45637  0.82139  Biso   1.000  C
  H131     1.0000 0.14903  0.43507  0.81707  Biso   1.000  H
  C148     1.0000 0.21633  0.51587  0.82025  Biso   1.000  C
  H132     1.0000 0.19603  0.53487  0.81617  Biso   1.000  H
  N17      1.0000 0.17308  0.25793  0.72877  Biso   1.000  N
  C149     1.0000 0.16106  0.23838  0.70975  Biso   1.000  C
  C150     1.0000 0.20200  0.22459  0.69941  Biso   1.000  C
  N18      1.0000 0.27720  0.19539  0.68077  Biso   1.000  N
  C151     1.0000 0.27773  0.20397  0.70100  Biso   1.000  C
  H133     1.0000 0.30543  0.20047  0.70897  Biso   1.000  H
  C152     1.0000 0.24113  0.21737  0.71077  Biso   1.000  C
  H134     1.0000 0.24263  0.22167  0.72517  Biso   1.000  H
  C153     1.0000 0.20183  0.21897  0.67842  Biso   1.000  C
  H135     1.0000 0.17563  0.22427  0.67017  Biso   1.000  H
  C154     1.0000 0.24043  0.20557  0.66974  Biso   1.000  C
  H136     1.0000 0.24133  0.20327  0.65527  Biso   1.000  H
  C155     1.0000 0.29433  0.23197  0.69679  Biso   1.000  C
  H137     1.0000 0.33303  0.24877  0.70137  Biso   1.000  H
  C156     1.0000 0.25763  0.24567  0.70672  Biso   1.000  C
  H138     1.0000 0.27023  0.26937  0.71847  Biso   1.000  H
  C157     1.0000 0.18603  0.19027  0.68249  Biso   1.000  C
  H139     1.0000 0.14853  0.17557  0.67697  Biso   1.000  H
  C158     1.0000 0.22423  0.17697  0.67339  Biso   1.000  C
  H140     1.0000 0.21273  0.15397  0.66147  Biso   1.000  H
  H141     1.0000 0.20383  0.26347  0.76517  Biso   1.000  H
  C159     1.0000 0.18103  0.27787  0.77102  Biso   1.000  C
  H142     1.0000 0.21243  0.28617  0.79937  Biso   1.000  H
  C160     1.0000 0.18653  0.29257  0.79142  Biso   1.000  C
  H143     1.0000 0.28973  0.43857  0.83647  Biso   1.000  H
  C161     1.0000 0.27003  0.45827  0.83251  Biso   1.000  C
  H144     1.0000 0.34073  0.53827  0.83467  Biso   1.000  H
  C162     1.0000 0.30093  0.51777  0.83128  Biso   1.000  C
  C163     1.0000 0.13750  0.35850  0.89865  Biso   1.000  C
  H145     1.0000 0.10490  0.35180  0.90650  Biso   1.000  H
  C164     1.0000 0.13200  0.34470  0.87817  Biso   1.000  C
  H146     1.0000 0.09480  0.32930  0.87230  Biso   1.000  H
  C165     1.0000 0.06500  0.21030  0.84528  Biso   1.000  C
  H147     1.0000 0.04730  0.23160  0.84960  Biso   1.000  H
  C166     1.0000 0.03380  0.15080  0.84642  Biso   1.000  C
  H148     1.0000 0.99450  0.13180  0.85050  Biso   1.000  H
  N19      1.0000 0.24849  0.40874  0.93790  Biso   1.000  N
  C167     1.0000 0.25602  0.42829  0.95692  Biso   1.000  C
  C168     1.0000 0.31075  0.44208  0.96726  Biso   1.000  C
  N20      1.0000 0.41515  0.47128  0.98590  Biso   1.000  N
  C169     1.0000 0.40710  0.46270  0.96567  Biso   1.000  C
  H149     1.0000 0.43830  0.46620  0.95770  Biso   1.000  H
  C170     1.0000 0.35710  0.44930  0.95590  Biso   1.000  C
  H150     1.0000 0.35430  0.44500  0.94150  Biso   1.000  H
  C171     1.0000 0.31620  0.44770  0.98825  Biso   1.000  C
  H151     1.0000 0.28470  0.44240  0.99650  Biso   1.000  H
  C172     1.0000 0.36820  0.46110  0.99693  Biso   1.000  C
  H152     1.0000 0.37140  0.46340  0.01140  Biso   1.000  H
  C173     1.0000 0.39570  0.43470  0.96988  Biso   1.000  C
  H153     1.0000 0.41760  0.41790  0.96530  Biso   1.000  H
  C174     1.0000 0.34530  0.42100  0.95995  Biso   1.000  C
  H154     1.0000 0.33420  0.39730  0.94820  Biso   1.000  H
  C175     1.0000 0.32910  0.47640  0.98418  Biso   1.000  C
  H155     1.0000 0.30630  0.49110  0.98970  Biso   1.000  H
  C176     1.0000 0.38060  0.48970  0.99328  Biso   1.000  C
  H156     1.0000 0.39210  0.51270  0.00520  Biso   1.000  H
  H157     1.0000 0.27370  0.40320  0.90150  Biso   1.000  H
  C177     1.0000 0.23650  0.38880  0.89565  Biso   1.000  C
  H158     1.0000 0.25960  0.38050  0.86730  Biso   1.000  H
  C178     1.0000 0.22730  0.37410  0.87525  Biso   1.000  C
  H159     1.0000 0.18450  0.22810  0.83020  Biso   1.000  H
  C179     1.0000 0.14510  0.20840  0.83416  Biso   1.000  C
  H160     1.0000 0.13580  0.12840  0.83200  Biso   1.000  H
  C180     1.0000 0.11650  0.14890  0.83539  Biso   1.000  C
  C181     1.0000 0.80417  0.69183  0.23198  Biso   1.000  C
  H161     1.0000 0.77157  0.68513  0.23983  Biso   1.000  H
  C182     1.0000 0.79867  0.67803  0.21150  Biso   1.000  C
  H162     1.0000 0.76147  0.66263  0.20563  Biso   1.000  H
  C183     1.0000 0.73167  0.54363  0.17861  Biso   1.000  C
  H163     1.0000 0.71397  0.56493  0.18293  Biso   1.000  H
  C184     1.0000 0.70047  0.48413  0.17975  Biso   1.000  C
  H164     1.0000 0.66117  0.46513  0.18383  Biso   1.000  H
  N21      1.0000 0.91516  0.74207  0.27123  Biso   1.000  N
  C185     1.0000 0.92269  0.76162  0.29025  Biso   1.000  C
  C186     1.0000 0.97742  0.77541  0.30059  Biso   1.000  C
  N22      1.0000 0.08182  0.80461  0.31923  Biso   1.000  N
  C187     1.0000 0.07377  0.79603  0.29900  Biso   1.000  C
  H165     1.0000 0.10497  0.79953  0.29103  Biso   1.000  H
  C188     1.0000 0.02377  0.78263  0.28923  Biso   1.000  C
  H166     1.0000 0.02097  0.77833  0.27483  Biso   1.000  H
  C189     1.0000 0.98287  0.78103  0.32158  Biso   1.000  C
  H167     1.0000 0.95137  0.77573  0.32983  Biso   1.000  H
  C190     1.0000 0.03487  0.79443  0.33026  Biso   1.000  C
  H168     1.0000 0.03807  0.79673  0.34473  Biso   1.000  H
  C191     1.0000 0.06237  0.76803  0.30321  Biso   1.000  C
  H169     1.0000 0.08427  0.75123  0.29863  Biso   1.000  H
  C192     1.0000 0.01197  0.75433  0.29328  Biso   1.000  C
  H170     1.0000 0.00087  0.73063  0.28153  Biso   1.000  H
  C193     1.0000 0.99577  0.80973  0.31751  Biso   1.000  C
  H171     1.0000 0.97297  0.82443  0.32303  Biso   1.000  H
  C194     1.0000 0.04727  0.82303  0.32661  Biso   1.000  C
  H172     1.0000 0.05877  0.84603  0.33853  Biso   1.000  H
  H173     1.0000 0.94037  0.73653  0.23483  Biso   1.000  H
  C195     1.0000 0.90317  0.72213  0.22898  Biso   1.000  C
  H174     1.0000 0.92627  0.71383  0.20063  Biso   1.000  H
  C196     1.0000 0.89397  0.70743  0.20858  Biso   1.000  C
  H175     1.0000 0.85117  0.56143  0.16353  Biso   1.000  H
  C197     1.0000 0.81177  0.54173  0.16749  Biso   1.000  C
  H176     1.0000 0.80247  0.46173  0.16533  Biso   1.000  H
  C198     1.0000 0.78317  0.48223  0.16872  Biso   1.000  C
  C199     1.0000 0.47083  0.02517  0.56532  Biso   1.000  C
  H177     1.0000 0.43823  0.01847  0.57317  Biso   1.000  H
  C200     1.0000 0.46533  0.01137  0.54484  Biso   1.000  C
  H178     1.0000 0.42813  0.99597  0.53897  Biso   1.000  H
  C201     1.0000 0.39833  0.87697  0.51195  Biso   1.000  C
  H179     1.0000 0.38063  0.89827  0.51627  Biso   1.000  H
  C202     1.0000 0.36713  0.81747  0.51309  Biso   1.000  C
  H180     1.0000 0.32783  0.79847  0.51717  Biso   1.000  H
  N23      1.0000 0.58182  0.07541  0.60457  Biso   1.000  N
  C203     1.0000 0.58935  0.09496  0.62359  Biso   1.000  C
  C204     1.0000 0.64408  0.10875  0.63393  Biso   1.000  C
  N24      1.0000 0.74848  0.13795  0.65257  Biso   1.000  N
  C205     1.0000 0.74043  0.12937  0.63234  Biso   1.000  C
  H181     1.0000 0.77163  0.13287  0.62437  Biso   1.000  H
  C206     1.0000 0.69043  0.11597  0.62257  Biso   1.000  C
  H182     1.0000 0.68763  0.11167  0.60817  Biso   1.000  H
  C207     1.0000 0.64953  0.11437  0.65492  Biso   1.000  C
  H183     1.0000 0.61803  0.10907  0.66317  Biso   1.000  H
  C208     1.0000 0.70153  0.12777  0.66360  Biso   1.000  C
  H184     1.0000 0.70473  0.13007  0.67807  Biso   1.000  H
  C209     1.0000 0.72903  0.10137  0.63655  Biso   1.000  C
  H185     1.0000 0.75093  0.08457  0.63197  Biso   1.000  H
  C210     1.0000 0.67863  0.08767  0.62662  Biso   1.000  C
  H186     1.0000 0.66753  0.06397  0.61487  Biso   1.000  H
  C211     1.0000 0.66243  0.14307  0.65085  Biso   1.000  C
  H187     1.0000 0.63963  0.15777  0.65637  Biso   1.000  H
  C212     1.0000 0.71393  0.15637  0.65995  Biso   1.000  C
  H188     1.0000 0.72543  0.17937  0.67187  Biso   1.000  H
  H189     1.0000 0.60703  0.06987  0.56817  Biso   1.000  H
  C213     1.0000 0.56983  0.05547  0.56232  Biso   1.000  C
  H190     1.0000 0.59293  0.04717  0.53397  Biso   1.000  H
  C214     1.0000 0.56063  0.04077  0.54192  Biso   1.000  C
  H191     1.0000 0.51783  0.89477  0.49687  Biso   1.000  H
  C215     1.0000 0.47843  0.87507  0.50083  Biso   1.000  C
  H192     1.0000 0.46913  0.79507  0.49867  Biso   1.000  H
  C216     1.0000 0.44983  0.81557  0.50206  Biso   1.000  C
  C217     1.0000 0.22100  0.86250  0.89865  Biso   1.000  C
  H193     1.0000 0.24690  0.89510  0.90650  Biso   1.000  H
  C218     1.0000 0.21270  0.86800  0.87817  Biso   1.000  C
  H194     1.0000 0.23450  0.90520  0.87230  Biso   1.000  H
  C219     1.0000 0.14530  0.93500  0.84528  Biso   1.000  C
  H195     1.0000 0.18430  0.95270  0.84960  Biso   1.000  H
  C220     1.0000 0.11700  0.96620  0.84642  Biso   1.000  C
  H196     1.0000 0.13730  0.00550  0.85050  Biso   1.000  H
  N25      1.0000 0.16025  0.75151  0.93790  Biso   1.000  N
  C221     1.0000 0.17227  0.74398  0.95692  Biso   1.000  C
  C222     1.0000 0.13133  0.68925  0.96726  Biso   1.000  C
  N26      1.0000 0.05613  0.58485  0.98590  Biso   1.000  N
  C223     1.0000 0.05560  0.59290  0.96567  Biso   1.000  C
  H197     1.0000 0.02790  0.56170  0.95770  Biso   1.000  H
  C224     1.0000 0.09220  0.64290  0.95590  Biso   1.000  C
  H198     1.0000 0.09070  0.64570  0.94150  Biso   1.000  H
  C225     1.0000 0.13150  0.68380  0.98825  Biso   1.000  C
  H199     1.0000 0.15770  0.71530  0.99650  Biso   1.000  H
  C226     1.0000 0.09290  0.63180  0.99693  Biso   1.000  C
  H200     1.0000 0.09200  0.62860  0.01140  Biso   1.000  H
  C227     1.0000 0.03900  0.60430  0.96988  Biso   1.000  C
  H201     1.0000 0.00030  0.58240  0.96530  Biso   1.000  H
  C228     1.0000 0.07570  0.65470  0.95995  Biso   1.000  C
  H202     1.0000 0.06310  0.66580  0.94820  Biso   1.000  H
  C229     1.0000 0.14730  0.67090  0.98418  Biso   1.000  C
  H203     1.0000 0.18480  0.69370  0.98970  Biso   1.000  H
  C230     1.0000 0.10910  0.61940  0.99328  Biso   1.000  C
  H204     1.0000 0.12060  0.60790  0.00520  Biso   1.000  H
  H205     1.0000 0.12950  0.72630  0.90150  Biso   1.000  H
  C231     1.0000 0.15230  0.76350  0.89565  Biso   1.000  C
  H206     1.0000 0.12090  0.74040  0.86730  Biso   1.000  H
  C232     1.0000 0.14680  0.77270  0.87525  Biso   1.000  C
  H207     1.0000 0.04360  0.81550  0.83020  Biso   1.000  H
  C233     1.0000 0.06330  0.85490  0.83416  Biso   1.000  C
  H208     1.0000 0.99260  0.86420  0.83200  Biso   1.000  H
  C234     1.0000 0.03240  0.88350  0.83539  Biso   1.000  C
  C235     1.0000 0.88767  0.19583  0.23198  Biso   1.000  C
  H209     1.0000 0.91357  0.22843  0.23983  Biso   1.000  H
  C236     1.0000 0.87937  0.20133  0.21150  Biso   1.000  C
  H210     1.0000 0.90117  0.23853  0.20563  Biso   1.000  H
  C237     1.0000 0.81197  0.26833  0.17861  Biso   1.000  C
  H211     1.0000 0.85097  0.28603  0.18293  Biso   1.000  H
  C238     1.0000 0.78367  0.29953  0.17975  Biso   1.000  C
  H212     1.0000 0.80397  0.33883  0.18383  Biso   1.000  H
  N27      1.0000 0.82692  0.08484  0.27123  Biso   1.000  N
  C239     1.0000 0.83894  0.07731  0.29025  Biso   1.000  C
  C240     1.0000 0.79800  0.02258  0.30059  Biso   1.000  C
  N28      1.0000 0.72280  0.91818  0.31923  Biso   1.000  N
  C241     1.0000 0.72227  0.92623  0.29900  Biso   1.000  C
  H213     1.0000 0.69457  0.89503  0.29103  Biso   1.000  H
  C242     1.0000 0.75887  0.97623  0.28923  Biso   1.000  C
  H214     1.0000 0.75737  0.97903  0.27483  Biso   1.000  H
  C243     1.0000 0.79817  0.01713  0.32158  Biso   1.000  C
  H215     1.0000 0.82437  0.04863  0.32983  Biso   1.000  H
  C244     1.0000 0.75957  0.96513  0.33026  Biso   1.000  C
  H216     1.0000 0.75867  0.96193  0.34473  Biso   1.000  H
  C245     1.0000 0.70567  0.93763  0.30321  Biso   1.000  C
  H217     1.0000 0.66697  0.91573  0.29863  Biso   1.000  H
  C246     1.0000 0.74237  0.98803  0.29328  Biso   1.000  C
  H218     1.0000 0.72977  0.99913  0.28153  Biso   1.000  H
  C247     1.0000 0.81397  0.00423  0.31751  Biso   1.000  C
  H219     1.0000 0.85147  0.02703  0.32303  Biso   1.000  H
  C248     1.0000 0.77577  0.95273  0.32661  Biso   1.000  C
  H220     1.0000 0.78727  0.94123  0.33853  Biso   1.000  H
  H221     1.0000 0.79617  0.05963  0.23483  Biso   1.000  H
  C249     1.0000 0.81897  0.09683  0.22898  Biso   1.000  C
  H222     1.0000 0.78757  0.07373  0.20063  Biso   1.000  H
  C250     1.0000 0.81347  0.10603  0.20858  Biso   1.000  C
  H223     1.0000 0.71027  0.14883  0.16353  Biso   1.000  H
  C251     1.0000 0.72997  0.18823  0.16749  Biso   1.000  C
  H224     1.0000 0.65927  0.19753  0.16533  Biso   1.000  H
  C252     1.0000 0.69907  0.21683  0.16872  Biso   1.000  C
  C253     1.0000 0.55433  0.52917  0.56532  Biso   1.000  C
  H225     1.0000 0.58023  0.56177  0.57317  Biso   1.000  H
  C254     1.0000 0.54603  0.53467  0.54484  Biso   1.000  C
  H226     1.0000 0.56783  0.57187  0.53897  Biso   1.000  H
  C255     1.0000 0.47863  0.60167  0.51195  Biso   1.000  C
  H227     1.0000 0.51763  0.61937  0.51627  Biso   1.000  H
  C256     1.0000 0.45033  0.63287  0.51309  Biso   1.000  C
  H228     1.0000 0.47063  0.67217  0.51717  Biso   1.000  H
  N29      1.0000 0.49358  0.41818  0.60457  Biso   1.000  N
  C257     1.0000 0.50560  0.41065  0.62359  Biso   1.000  C
  C258     1.0000 0.46466  0.35592  0.63393  Biso   1.000  C
  N30      1.0000 0.38946  0.25152  0.65257  Biso   1.000  N
  C259     1.0000 0.38893  0.25957  0.63234  Biso   1.000  C
  H229     1.0000 0.36123  0.22837  0.62437  Biso   1.000  H
  C260     1.0000 0.42553  0.30957  0.62257  Biso   1.000  C
  H230     1.0000 0.42403  0.31237  0.60817  Biso   1.000  H
  C261     1.0000 0.46483  0.35047  0.65492  Biso   1.000  C
  H231     1.0000 0.49103  0.38197  0.66317  Biso   1.000  H
  C262     1.0000 0.42623  0.29847  0.66360  Biso   1.000  C
  H232     1.0000 0.42533  0.29527  0.67807  Biso   1.000  H
  C263     1.0000 0.37233  0.27097  0.63655  Biso   1.000  C
  H233     1.0000 0.33363  0.24907  0.63197  Biso   1.000  H
  C264     1.0000 0.40903  0.32137  0.62662  Biso   1.000  C
  H234     1.0000 0.39643  0.33247  0.61487  Biso   1.000  H
  C265     1.0000 0.48063  0.33757  0.65085  Biso   1.000  C
  H235     1.0000 0.51813  0.36037  0.65637  Biso   1.000  H
  C266     1.0000 0.44243  0.28607  0.65995  Biso   1.000  C
  H236     1.0000 0.45393  0.27457  0.67187  Biso   1.000  H
  H237     1.0000 0.46283  0.39297  0.56817  Biso   1.000  H
  C267     1.0000 0.48563  0.43017  0.56232  Biso   1.000  C
  H238     1.0000 0.45423  0.40707  0.53397  Biso   1.000  H
  C268     1.0000 0.48013  0.43937  0.54192  Biso   1.000  C
  H239     1.0000 0.37693  0.48217  0.49687  Biso   1.000  H
  C269     1.0000 0.39663  0.52157  0.50083  Biso   1.000  C
  H240     1.0000 0.32593  0.53087  0.49867  Biso   1.000  H
  C270     1.0000 0.36573  0.55017  0.50206  Biso   1.000  C
  C271     1.0000 0.64150  0.77900  0.89865  Biso   1.000  C
  H241     1.0000 0.64820  0.75310  0.90650  Biso   1.000  H
  C272     1.0000 0.65530  0.78730  0.87817  Biso   1.000  C
  H242     1.0000 0.67070  0.76550  0.87230  Biso   1.000  H
  C273     1.0000 0.78970  0.85470  0.84528  Biso   1.000  C
  H243     1.0000 0.76840  0.81570  0.84960  Biso   1.000  H
  C274     1.0000 0.84920  0.88300  0.84642  Biso   1.000  C
  H244     1.0000 0.86820  0.86270  0.85050  Biso   1.000  H
  N31      1.0000 0.59126  0.83975  0.93790  Biso   1.000  N
  C275     1.0000 0.57171  0.82773  0.95692  Biso   1.000  C
  C276     1.0000 0.55792  0.86867  0.96726  Biso   1.000  C
  N32      1.0000 0.52872  0.94387  0.98590  Biso   1.000  N
  C277     1.0000 0.53730  0.94440  0.96567  Biso   1.000  C
  H245     1.0000 0.53380  0.97210  0.95770  Biso   1.000  H
  C278     1.0000 0.55070  0.90780  0.95590  Biso   1.000  C
  H246     1.0000 0.55500  0.90930  0.94150  Biso   1.000  H
  C279     1.0000 0.55230  0.86850  0.98825  Biso   1.000  C
  H247     1.0000 0.55760  0.84230  0.99650  Biso   1.000  H
  C280     1.0000 0.53890  0.90710  0.99693  Biso   1.000  C
  H248     1.0000 0.53660  0.90800  0.01140  Biso   1.000  H
  C281     1.0000 0.56530  0.96100  0.96988  Biso   1.000  C
  H249     1.0000 0.58210  0.99970  0.96530  Biso   1.000  H
  C282     1.0000 0.57900  0.92430  0.95995  Biso   1.000  C
  H250     1.0000 0.60270  0.93690  0.94820  Biso   1.000  H
  C283     1.0000 0.52360  0.85270  0.98418  Biso   1.000  C
  H251     1.0000 0.50890  0.81520  0.98970  Biso   1.000  H
  C284     1.0000 0.51030  0.89090  0.99328  Biso   1.000  C
  H252     1.0000 0.48730  0.87940  0.00520  Biso   1.000  H
  H253     1.0000 0.59680  0.87050  0.90150  Biso   1.000  H
  C285     1.0000 0.61120  0.84770  0.89565  Biso   1.000  C
  H254     1.0000 0.61950  0.87910  0.86730  Biso   1.000  H
  C286     1.0000 0.62590  0.85320  0.87525  Biso   1.000  C
  H255     1.0000 0.77190  0.95640  0.83020  Biso   1.000  H
  C287     1.0000 0.79160  0.93670  0.83416  Biso   1.000  C
  H256     1.0000 0.87160  0.00740  0.83200  Biso   1.000  H
  C288     1.0000 0.85110  0.96760  0.83539  Biso   1.000  C
  C289     1.0000 0.30817  0.11233  0.23198  Biso   1.000  C
  H257     1.0000 0.31487  0.08643  0.23983  Biso   1.000  H
  C290     1.0000 0.32197  0.12063  0.21150  Biso   1.000  C
  H258     1.0000 0.33737  0.09883  0.20563  Biso   1.000  H
  C291     1.0000 0.45637  0.18803  0.17861  Biso   1.000  C
  H259     1.0000 0.43507  0.14903  0.18293  Biso   1.000  H
  C292     1.0000 0.51587  0.21633  0.17975  Biso   1.000  C
  H260     1.0000 0.53487  0.19603  0.18383  Biso   1.000  H
  N33      1.0000 0.25793  0.17308  0.27123  Biso   1.000  N
  C293     1.0000 0.23838  0.16106  0.29025  Biso   1.000  C
  C294     1.0000 0.22459  0.20200  0.30059  Biso   1.000  C
  N34      1.0000 0.19539  0.27720  0.31923  Biso   1.000  N
  C295     1.0000 0.20397  0.27773  0.29900  Biso   1.000  C
  H261     1.0000 0.20047  0.30543  0.29103  Biso   1.000  H
  C296     1.0000 0.21737  0.24113  0.28923  Biso   1.000  C
  H262     1.0000 0.22167  0.24263  0.27483  Biso   1.000  H
  C297     1.0000 0.21897  0.20183  0.32158  Biso   1.000  C
  H263     1.0000 0.22427  0.17563  0.32983  Biso   1.000  H
  C298     1.0000 0.20557  0.24043  0.33026  Biso   1.000  C
  H264     1.0000 0.20327  0.24133  0.34473  Biso   1.000  H
  C299     1.0000 0.23197  0.29433  0.30321  Biso   1.000  C
  H265     1.0000 0.24877  0.33303  0.29863  Biso   1.000  H
  C300     1.0000 0.24567  0.25763  0.29328  Biso   1.000  C
  H266     1.0000 0.26937  0.27023  0.28153  Biso   1.000  H
  C301     1.0000 0.19027  0.18603  0.31751  Biso   1.000  C
  H267     1.0000 0.17557  0.14853  0.32303  Biso   1.000  H
  C302     1.0000 0.17697  0.22423  0.32661  Biso   1.000  C
  H268     1.0000 0.15397  0.21273  0.33853  Biso   1.000  H
  H269     1.0000 0.26347  0.20383  0.23483  Biso   1.000  H
  C303     1.0000 0.27787  0.18103  0.22898  Biso   1.000  C
  H270     1.0000 0.28617  0.21243  0.20063  Biso   1.000  H
  C304     1.0000 0.29257  0.18653  0.20858  Biso   1.000  C
  H271     1.0000 0.43857  0.28973  0.16353  Biso   1.000  H
  C305     1.0000 0.45827  0.27003  0.16749  Biso   1.000  C
  H272     1.0000 0.53827  0.34073  0.16533  Biso   1.000  H
  C306     1.0000 0.51777  0.30093  0.16872  Biso   1.000  C
  C307     1.0000 0.97483  0.44567  0.56532  Biso   1.000  C
  H273     1.0000 0.98153  0.41977  0.57317  Biso   1.000  H
  C308     1.0000 0.98863  0.45397  0.54484  Biso   1.000  C
  H274     1.0000 0.00403  0.43217  0.53897  Biso   1.000  H
  C309     1.0000 0.12303  0.52137  0.51195  Biso   1.000  C
  H275     1.0000 0.10173  0.48237  0.51627  Biso   1.000  H
  C310     1.0000 0.18253  0.54967  0.51309  Biso   1.000  C
  H276     1.0000 0.20153  0.52937  0.51717  Biso   1.000  H
  N35      1.0000 0.92459  0.50642  0.60457  Biso   1.000  N
  C311     1.0000 0.90504  0.49440  0.62359  Biso   1.000  C
  C312     1.0000 0.89125  0.53534  0.63393  Biso   1.000  C
  N36      1.0000 0.86205  0.61054  0.65257  Biso   1.000  N
  C313     1.0000 0.87063  0.61107  0.63234  Biso   1.000  C
  H277     1.0000 0.86713  0.63877  0.62437  Biso   1.000  H
  C314     1.0000 0.88403  0.57447  0.62257  Biso   1.000  C
  H278     1.0000 0.88833  0.57597  0.60817  Biso   1.000  H
  C315     1.0000 0.88563  0.53517  0.65492  Biso   1.000  C
  H279     1.0000 0.89093  0.50897  0.66317  Biso   1.000  H
  C316     1.0000 0.87223  0.57377  0.66360  Biso   1.000  C
  H280     1.0000 0.86993  0.57467  0.67807  Biso   1.000  H
  C317     1.0000 0.89863  0.62767  0.63655  Biso   1.000  C
  H281     1.0000 0.91543  0.66637  0.63197  Biso   1.000  H
  C318     1.0000 0.91233  0.59097  0.62662  Biso   1.000  C
  H282     1.0000 0.93603  0.60357  0.61487  Biso   1.000  H
  C319     1.0000 0.85693  0.51937  0.65085  Biso   1.000  C
  H283     1.0000 0.84223  0.48187  0.65637  Biso   1.000  H
  C320     1.0000 0.84363  0.55757  0.65995  Biso   1.000  C
  H284     1.0000 0.82063  0.54607  0.67187  Biso   1.000  H
  H285     1.0000 0.93013  0.53717  0.56817  Biso   1.000  H
  C321     1.0000 0.94453  0.51437  0.56232  Biso   1.000  C
  H286     1.0000 0.95283  0.54577  0.53397  Biso   1.000  H
  C322     1.0000 0.95923  0.51987  0.54192  Biso   1.000  C
  H287     1.0000 0.10523  0.62307  0.49687  Biso   1.000  H
  C323     1.0000 0.12493  0.60337  0.50083  Biso   1.000  C
  H288     1.0000 0.20493  0.67407  0.49867  Biso   1.000  H
  C324     1.0000 0.18443  0.63427  0.50206  Biso   1.000  C
  C325     1.0000 0.64150  0.86250  0.89865  Biso   1.000  C
  H289     1.0000 0.64820  0.89510  0.90650  Biso   1.000  H
  C326     1.0000 0.65530  0.86800  0.87817  Biso   1.000  C
  H290     1.0000 0.67070  0.90520  0.87230  Biso   1.000  H
  C327     1.0000 0.78970  0.93500  0.84528  Biso   1.000  C
  H291     1.0000 0.76840  0.95270  0.84960  Biso   1.000  H
  C328     1.0000 0.84920  0.96620  0.84642  Biso   1.000  C
  H292     1.0000 0.86820  0.00550  0.85050  Biso   1.000  H
  N37      1.0000 0.59126  0.75151  0.93790  Biso   1.000  N
  C329     1.0000 0.57171  0.74398  0.95692  Biso   1.000  C
  C330     1.0000 0.55792  0.68925  0.96726  Biso   1.000  C
  N38      1.0000 0.52872  0.58485  0.98590  Biso   1.000  N
  C331     1.0000 0.53730  0.59290  0.96567  Biso   1.000  C
  H293     1.0000 0.53380  0.56170  0.95770  Biso   1.000  H
  C332     1.0000 0.55070  0.64290  0.95590  Biso   1.000  C
  H294     1.0000 0.55500  0.64570  0.94150  Biso   1.000  H
  C333     1.0000 0.55230  0.68380  0.98825  Biso   1.000  C
  H295     1.0000 0.55760  0.71530  0.99650  Biso   1.000  H
  C334     1.0000 0.53890  0.63180  0.99693  Biso   1.000  C
  H296     1.0000 0.53660  0.62860  0.01140  Biso   1.000  H
  C335     1.0000 0.56530  0.60430  0.96988  Biso   1.000  C
  H297     1.0000 0.58210  0.58240  0.96530  Biso   1.000  H
  C336     1.0000 0.57900  0.65470  0.95995  Biso   1.000  C
  H298     1.0000 0.60270  0.66580  0.94820  Biso   1.000  H
  C337     1.0000 0.52360  0.67090  0.98418  Biso   1.000  C
  H299     1.0000 0.50890  0.69370  0.98970  Biso   1.000  H
  C338     1.0000 0.51030  0.61940  0.99328  Biso   1.000  C
  H300     1.0000 0.48730  0.60790  0.00520  Biso   1.000  H
  H301     1.0000 0.59680  0.72630  0.90150  Biso   1.000  H
  C339     1.0000 0.61120  0.76350  0.89565  Biso   1.000  C
  H302     1.0000 0.61950  0.74040  0.86730  Biso   1.000  H
  C340     1.0000 0.62590  0.77270  0.87525  Biso   1.000  C
  H303     1.0000 0.77190  0.81550  0.83020  Biso   1.000  H
  C341     1.0000 0.79160  0.85490  0.83416  Biso   1.000  C
  H304     1.0000 0.87160  0.86420  0.83200  Biso   1.000  H
  C342     1.0000 0.85110  0.88350  0.83539  Biso   1.000  C
  C343     1.0000 0.30817  0.19583  0.23198  Biso   1.000  C
  H305     1.0000 0.31487  0.22843  0.23983  Biso   1.000  H
  C344     1.0000 0.32197  0.20133  0.21150  Biso   1.000  C
  H306     1.0000 0.33737  0.23853  0.20563  Biso   1.000  H
  C345     1.0000 0.45637  0.26833  0.17861  Biso   1.000  C
  H307     1.0000 0.43507  0.28603  0.18293  Biso   1.000  H
  C346     1.0000 0.51587  0.29953  0.17975  Biso   1.000  C
  H308     1.0000 0.53487  0.33883  0.18383  Biso   1.000  H
  N39      1.0000 0.25793  0.08484  0.27123  Biso   1.000  N
  C347     1.0000 0.23838  0.07731  0.29025  Biso   1.000  C
  C348     1.0000 0.22459  0.02258  0.30059  Biso   1.000  C
  N40      1.0000 0.19539  0.91818  0.31923  Biso   1.000  N
  C349     1.0000 0.20397  0.92623  0.29900  Biso   1.000  C
  H309     1.0000 0.20047  0.89503  0.29103  Biso   1.000  H
  C350     1.0000 0.21737  0.97623  0.28923  Biso   1.000  C
  H310     1.0000 0.22167  0.97903  0.27483  Biso   1.000  H
  C351     1.0000 0.21897  0.01713  0.32158  Biso   1.000  C
  H311     1.0000 0.22427  0.04863  0.32983  Biso   1.000  H
  C352     1.0000 0.20557  0.96513  0.33026  Biso   1.000  C
  H312     1.0000 0.20327  0.96193  0.34473  Biso   1.000  H
  C353     1.0000 0.23197  0.93763  0.30321  Biso   1.000  C
  H313     1.0000 0.24877  0.91573  0.29863  Biso   1.000  H
  C354     1.0000 0.24567  0.98803  0.29328  Biso   1.000  C
  H314     1.0000 0.26937  0.99913  0.28153  Biso   1.000  H
  C355     1.0000 0.19027  0.00423  0.31751  Biso   1.000  C
  H315     1.0000 0.17557  0.02703  0.32303  Biso   1.000  H
  C356     1.0000 0.17697  0.95273  0.32661  Biso   1.000  C
  H316     1.0000 0.15397  0.94123  0.33853  Biso   1.000  H
  H317     1.0000 0.26347  0.05963  0.23483  Biso   1.000  H
  C357     1.0000 0.27787  0.09683  0.22898  Biso   1.000  C
  H318     1.0000 0.28617  0.07373  0.20063  Biso   1.000  H
  C358     1.0000 0.29257  0.10603  0.20858  Biso   1.000  C
  H319     1.0000 0.43857  0.14883  0.16353  Biso   1.000  H
  C359     1.0000 0.45827  0.18823  0.16749  Biso   1.000  C
  H320     1.0000 0.53827  0.19753  0.16533  Biso   1.000  H
  C360     1.0000 0.51777  0.21683  0.16872  Biso   1.000  C
  C361     1.0000 0.97483  0.52917  0.56532  Biso   1.000  C
  H321     1.0000 0.98153  0.56177  0.57317  Biso   1.000  H
  C362     1.0000 0.98863  0.53467  0.54484  Biso   1.000  C
  H322     1.0000 0.00403  0.57187  0.53897  Biso   1.000  H
  C363     1.0000 0.12303  0.60167  0.51195  Biso   1.000  C
  H323     1.0000 0.10173  0.61937  0.51627  Biso   1.000  H
  C364     1.0000 0.18253  0.63287  0.51309  Biso   1.000  C
  H324     1.0000 0.20153  0.67217  0.51717  Biso   1.000  H
  N41      1.0000 0.92459  0.41818  0.60457  Biso   1.000  N
  C365     1.0000 0.90504  0.41065  0.62359  Biso   1.000  C
  C366     1.0000 0.89125  0.35592  0.63393  Biso   1.000  C
  N42      1.0000 0.86205  0.25152  0.65257  Biso   1.000  N
  C367     1.0000 0.87063  0.25957  0.63234  Biso   1.000  C
  H325     1.0000 0.86713  0.22837  0.62437  Biso   1.000  H
  C368     1.0000 0.88403  0.30957  0.62257  Biso   1.000  C
  H326     1.0000 0.88833  0.31237  0.60817  Biso   1.000  H
  C369     1.0000 0.88563  0.35047  0.65492  Biso   1.000  C
  H327     1.0000 0.89093  0.38197  0.66317  Biso   1.000  H
  C370     1.0000 0.87223  0.29847  0.66360  Biso   1.000  C
  H328     1.0000 0.86993  0.29527  0.67807  Biso   1.000  H
  C371     1.0000 0.89863  0.27097  0.63655  Biso   1.000  C
  H329     1.0000 0.91543  0.24907  0.63197  Biso   1.000  H
  C372     1.0000 0.91233  0.32137  0.62662  Biso   1.000  C
  H330     1.0000 0.93603  0.33247  0.61487  Biso   1.000  H
  C373     1.0000 0.85693  0.33757  0.65085  Biso   1.000  C
  H331     1.0000 0.84223  0.36037  0.65637  Biso   1.000  H
  C374     1.0000 0.84363  0.28607  0.65995  Biso   1.000  C
  H332     1.0000 0.82063  0.27457  0.67187  Biso   1.000  H
  H333     1.0000 0.93013  0.39297  0.56817  Biso   1.000  H
  C375     1.0000 0.94453  0.43017  0.56232  Biso   1.000  C
  H334     1.0000 0.95283  0.40707  0.53397  Biso   1.000  H
  C376     1.0000 0.95923  0.43937  0.54192  Biso   1.000  C
  H335     1.0000 0.10523  0.48217  0.49687  Biso   1.000  H
  C377     1.0000 0.12493  0.52157  0.50083  Biso   1.000  C
  H336     1.0000 0.20493  0.53087  0.49867  Biso   1.000  H
  C378     1.0000 0.18443  0.55017  0.50206  Biso   1.000  C
  C379     1.0000 0.13750  0.77900  0.89865  Biso   1.000  C
  H337     1.0000 0.10490  0.75310  0.90650  Biso   1.000  H
  C380     1.0000 0.13200  0.78730  0.87817  Biso   1.000  C
  H338     1.0000 0.09480  0.76550  0.87230  Biso   1.000  H
  C381     1.0000 0.06500  0.85470  0.84528  Biso   1.000  C
  H339     1.0000 0.04730  0.81570  0.84960  Biso   1.000  H
  C382     1.0000 0.03380  0.88300  0.84642  Biso   1.000  C
  H340     1.0000 0.99450  0.86270  0.85050  Biso   1.000  H
  N43      1.0000 0.24849  0.83975  0.93790  Biso   1.000  N
  C383     1.0000 0.25602  0.82773  0.95692  Biso   1.000  C
  C384     1.0000 0.31075  0.86867  0.96726  Biso   1.000  C
  N44      1.0000 0.41515  0.94387  0.98590  Biso   1.000  N
  C385     1.0000 0.40710  0.94440  0.96567  Biso   1.000  C
  H341     1.0000 0.43830  0.97210  0.95770  Biso   1.000  H
  C386     1.0000 0.35710  0.90780  0.95590  Biso   1.000  C
  H342     1.0000 0.35430  0.90930  0.94150  Biso   1.000  H
  C387     1.0000 0.31620  0.86850  0.98825  Biso   1.000  C
  H343     1.0000 0.28470  0.84230  0.99650  Biso   1.000  H
  C388     1.0000 0.36820  0.90710  0.99693  Biso   1.000  C
  H344     1.0000 0.37140  0.90800  0.01140  Biso   1.000  H
  C389     1.0000 0.39570  0.96100  0.96988  Biso   1.000  C
  H345     1.0000 0.41760  0.99970  0.96530  Biso   1.000  H
  C390     1.0000 0.34530  0.92430  0.95995  Biso   1.000  C
  H346     1.0000 0.33420  0.93690  0.94820  Biso   1.000  H
  C391     1.0000 0.32910  0.85270  0.98418  Biso   1.000  C
  H347     1.0000 0.30630  0.81520  0.98970  Biso   1.000  H
  C392     1.0000 0.38060  0.89090  0.99328  Biso   1.000  C
  H348     1.0000 0.39210  0.87940  0.00520  Biso   1.000  H
  H349     1.0000 0.27370  0.87050  0.90150  Biso   1.000  H
  C393     1.0000 0.23650  0.84770  0.89565  Biso   1.000  C
  H350     1.0000 0.25960  0.87910  0.86730  Biso   1.000  H
  C394     1.0000 0.22730  0.85320  0.87525  Biso   1.000  C
  H351     1.0000 0.18450  0.95640  0.83020  Biso   1.000  H
  C395     1.0000 0.14510  0.93670  0.83416  Biso   1.000  C
  H352     1.0000 0.13580  0.00740  0.83200  Biso   1.000  H
  C396     1.0000 0.11650  0.96760  0.83539  Biso   1.000  C
  C397     1.0000 0.80417  0.11233  0.23198  Biso   1.000  C
  H353     1.0000 0.77157  0.08643  0.23983  Biso   1.000  H
  C398     1.0000 0.79867  0.12063  0.21150  Biso   1.000  C
  H354     1.0000 0.76147  0.09883  0.20563  Biso   1.000  H
  C399     1.0000 0.73167  0.18803  0.17861  Biso   1.000  C
  H355     1.0000 0.71397  0.14903  0.18293  Biso   1.000  H
  C400     1.0000 0.70047  0.21633  0.17975  Biso   1.000  C
  H356     1.0000 0.66117  0.19603  0.18383  Biso   1.000  H
  N45      1.0000 0.91516  0.17308  0.27123  Biso   1.000  N
  C401     1.0000 0.92269  0.16106  0.29025  Biso   1.000  C
  C402     1.0000 0.97742  0.20200  0.30059  Biso   1.000  C
  N46      1.0000 0.08182  0.27720  0.31923  Biso   1.000  N
  C403     1.0000 0.07377  0.27773  0.29900  Biso   1.000  C
  H357     1.0000 0.10497  0.30543  0.29103  Biso   1.000  H
  C404     1.0000 0.02377  0.24113  0.28923  Biso   1.000  C
  H358     1.0000 0.02097  0.24263  0.27483  Biso   1.000  H
  C405     1.0000 0.98287  0.20183  0.32158  Biso   1.000  C
  H359     1.0000 0.95137  0.17563  0.32983  Biso   1.000  H
  C406     1.0000 0.03487  0.24043  0.33026  Biso   1.000  C
  H360     1.0000 0.03807  0.24133  0.34473  Biso   1.000  H
  C407     1.0000 0.06237  0.29433  0.30321  Biso   1.000  C
  H361     1.0000 0.08427  0.33303  0.29863  Biso   1.000  H
  C408     1.0000 0.01197  0.25763  0.29328  Biso   1.000  C
  H362     1.0000 0.00087  0.27023  0.28153  Biso   1.000  H
  C409     1.0000 0.99577  0.18603  0.31751  Biso   1.000  C
  H363     1.0000 0.97297  0.14853  0.32303  Biso   1.000  H
  C410     1.0000 0.04727  0.22423  0.32661  Biso   1.000  C
  H364     1.0000 0.05877  0.21273  0.33853  Biso   1.000  H
  H365     1.0000 0.94037  0.20383  0.23483  Biso   1.000  H
  C411     1.0000 0.90317  0.18103  0.22898  Biso   1.000  C
  H366     1.0000 0.92627  0.21243  0.20063  Biso   1.000  H
  C412     1.0000 0.89397  0.18653  0.20858  Biso   1.000  C
  H367     1.0000 0.85117  0.28973  0.16353  Biso   1.000  H
  C413     1.0000 0.81177  0.27003  0.16749  Biso   1.000  C
  H368     1.0000 0.80247  0.34073  0.16533  Biso   1.000  H
  C414     1.0000 0.78317  0.30093  0.16872  Biso   1.000  C
  C415     1.0000 0.47083  0.44567  0.56532  Biso   1.000  C
  H369     1.0000 0.43823  0.41977  0.57317  Biso   1.000  H
  C416     1.0000 0.46533  0.45397  0.54484  Biso   1.000  C
  H370     1.0000 0.42813  0.43217  0.53897  Biso   1.000  H
  C417     1.0000 0.39833  0.52137  0.51195  Biso   1.000  C
  H371     1.0000 0.38063  0.48237  0.51627  Biso   1.000  H
  C418     1.0000 0.36713  0.54967  0.51309  Biso   1.000  C
  H372     1.0000 0.32783  0.52937  0.51717  Biso   1.000  H
  N47      1.0000 0.58182  0.50642  0.60457  Biso   1.000  N
  C419     1.0000 0.58935  0.49440  0.62359  Biso   1.000  C
  C420     1.0000 0.64408  0.53534  0.63393  Biso   1.000  C
  N48      1.0000 0.74848  0.61054  0.65257  Biso   1.000  N
  C421     1.0000 0.74043  0.61107  0.63234  Biso   1.000  C
  H373     1.0000 0.77163  0.63877  0.62437  Biso   1.000  H
  C422     1.0000 0.69043  0.57447  0.62257  Biso   1.000  C
  H374     1.0000 0.68763  0.57597  0.60817  Biso   1.000  H
  C423     1.0000 0.64953  0.53517  0.65492  Biso   1.000  C
  H375     1.0000 0.61803  0.50897  0.66317  Biso   1.000  H
  C424     1.0000 0.70153  0.57377  0.66360  Biso   1.000  C
  H376     1.0000 0.70473  0.57467  0.67807  Biso   1.000  H
  C425     1.0000 0.72903  0.62767  0.63655  Biso   1.000  C
  H377     1.0000 0.75093  0.66637  0.63197  Biso   1.000  H
  C426     1.0000 0.67863  0.59097  0.62662  Biso   1.000  C
  H378     1.0000 0.66753  0.60357  0.61487  Biso   1.000  H
  C427     1.0000 0.66243  0.51937  0.65085  Biso   1.000  C
  H379     1.0000 0.63963  0.48187  0.65637  Biso   1.000  H
  C428     1.0000 0.71393  0.55757  0.65995  Biso   1.000  C
  H380     1.0000 0.72543  0.54607  0.67187  Biso   1.000  H
  H381     1.0000 0.60703  0.53717  0.56817  Biso   1.000  H
  C429     1.0000 0.56983  0.51437  0.56232  Biso   1.000  C
  H382     1.0000 0.59293  0.54577  0.53397  Biso   1.000  H
  C430     1.0000 0.56063  0.51987  0.54192  Biso   1.000  C
  H383     1.0000 0.51783  0.62307  0.49687  Biso   1.000  H
  C431     1.0000 0.47843  0.60337  0.50083  Biso   1.000  C
  H384     1.0000 0.46913  0.67407  0.49867  Biso   1.000  H
  C432     1.0000 0.44983  0.63427  0.50206  Biso   1.000  C
  C433     1.0000 0.22100  0.35850  0.89865  Biso   1.000  C
  H385     1.0000 0.24690  0.35180  0.90650  Biso   1.000  H
  C434     1.0000 0.21270  0.34470  0.87817  Biso   1.000  C
  H386     1.0000 0.23450  0.32930  0.87230  Biso   1.000  H
  C435     1.0000 0.14530  0.21030  0.84528  Biso   1.000  C
  H387     1.0000 0.18430  0.23160  0.84960  Biso   1.000  H
  C436     1.0000 0.11700  0.15080  0.84642  Biso   1.000  C
  H388     1.0000 0.13730  0.13180  0.85050  Biso   1.000  H
  N49      1.0000 0.16025  0.40874  0.93790  Biso   1.000  N
  C437     1.0000 0.17227  0.42829  0.95692  Biso   1.000  C
  C438     1.0000 0.13133  0.44208  0.96726  Biso   1.000  C
  N50      1.0000 0.05613  0.47128  0.98590  Biso   1.000  N
  C439     1.0000 0.05560  0.46270  0.96567  Biso   1.000  C
  H389     1.0000 0.02790  0.46620  0.95770  Biso   1.000  H
  C440     1.0000 0.09220  0.44930  0.95590  Biso   1.000  C
  H390     1.0000 0.09070  0.44500  0.94150  Biso   1.000  H
  C441     1.0000 0.13150  0.44770  0.98825  Biso   1.000  C
  H391     1.0000 0.15770  0.44240  0.99650  Biso   1.000  H
  C442     1.0000 0.09290  0.46110  0.99693  Biso   1.000  C
  H392     1.0000 0.09200  0.46340  0.01140  Biso   1.000  H
  C443     1.0000 0.03900  0.43470  0.96988  Biso   1.000  C
  H393     1.0000 0.00030  0.41790  0.96530  Biso   1.000  H
  C444     1.0000 0.07570  0.42100  0.95995  Biso   1.000  C
  H394     1.0000 0.06310  0.39730  0.94820  Biso   1.000  H
  C445     1.0000 0.14730  0.47640  0.98418  Biso   1.000  C
  H395     1.0000 0.18480  0.49110  0.98970  Biso   1.000  H
  C446     1.0000 0.10910  0.48970  0.99328  Biso   1.000  C
  H396     1.0000 0.12060  0.51270  0.00520  Biso   1.000  H
  H397     1.0000 0.12950  0.40320  0.90150  Biso   1.000  H
  C447     1.0000 0.15230  0.38880  0.89565  Biso   1.000  C
  H398     1.0000 0.12090  0.38050  0.86730  Biso   1.000  H
  C448     1.0000 0.14680  0.37410  0.87525  Biso   1.000  C
  H399     1.0000 0.04360  0.22810  0.83020  Biso   1.000  H
  C449     1.0000 0.06330  0.20840  0.83416  Biso   1.000  C
  H400     1.0000 0.99260  0.12840  0.83200  Biso   1.000  H
  C450     1.0000 0.03240  0.14890  0.83539  Biso   1.000  C
  C451     1.0000 0.88767  0.69183  0.23198  Biso   1.000  C
  H401     1.0000 0.91357  0.68513  0.23983  Biso   1.000  H
  C452     1.0000 0.87937  0.67803  0.21150  Biso   1.000  C
  H402     1.0000 0.90117  0.66263  0.20563  Biso   1.000  H
  C453     1.0000 0.81197  0.54363  0.17861  Biso   1.000  C
  H403     1.0000 0.85097  0.56493  0.18293  Biso   1.000  H
  C454     1.0000 0.78367  0.48413  0.17975  Biso   1.000  C
  H404     1.0000 0.80397  0.46513  0.18383  Biso   1.000  H
  N51      1.0000 0.82692  0.74207  0.27123  Biso   1.000  N
  C455     1.0000 0.83894  0.76162  0.29025  Biso   1.000  C
  C456     1.0000 0.79800  0.77541  0.30059  Biso   1.000  C
  N52      1.0000 0.72280  0.80461  0.31923  Biso   1.000  N
  C457     1.0000 0.72227  0.79603  0.29900  Biso   1.000  C
  H405     1.0000 0.69457  0.79953  0.29103  Biso   1.000  H
  C458     1.0000 0.75887  0.78263  0.28923  Biso   1.000  C
  H406     1.0000 0.75737  0.77833  0.27483  Biso   1.000  H
  C459     1.0000 0.79817  0.78103  0.32158  Biso   1.000  C
  H407     1.0000 0.82437  0.77573  0.32983  Biso   1.000  H
  C460     1.0000 0.75957  0.79443  0.33026  Biso   1.000  C
  H408     1.0000 0.75867  0.79673  0.34473  Biso   1.000  H
  C461     1.0000 0.70567  0.76803  0.30321  Biso   1.000  C
  H409     1.0000 0.66697  0.75123  0.29863  Biso   1.000  H
  C462     1.0000 0.74237  0.75433  0.29328  Biso   1.000  C
  H410     1.0000 0.72977  0.73063  0.28153  Biso   1.000  H
  C463     1.0000 0.81397  0.80973  0.31751  Biso   1.000  C
  H411     1.0000 0.85147  0.82443  0.32303  Biso   1.000  H
  C464     1.0000 0.77577  0.82303  0.32661  Biso   1.000  C
  H412     1.0000 0.78727  0.84603  0.33853  Biso   1.000  H
  H413     1.0000 0.79617  0.73653  0.23483  Biso   1.000  H
  C465     1.0000 0.81897  0.72213  0.22898  Biso   1.000  C
  H414     1.0000 0.78757  0.71383  0.20063  Biso   1.000  H
  C466     1.0000 0.81347  0.70743  0.20858  Biso   1.000  C
  H415     1.0000 0.71027  0.56143  0.16353  Biso   1.000  H
  C467     1.0000 0.72997  0.54173  0.16749  Biso   1.000  C
  H416     1.0000 0.65927  0.46173  0.16533  Biso   1.000  H
  C468     1.0000 0.69907  0.48223  0.16872  Biso   1.000  C
  C469     1.0000 0.55433  0.02517  0.56532  Biso   1.000  C
  H417     1.0000 0.58023  0.01847  0.57317  Biso   1.000  H
  C470     1.0000 0.54603  0.01137  0.54484  Biso   1.000  C
  H418     1.0000 0.56783  0.99597  0.53897  Biso   1.000  H
  C471     1.0000 0.47863  0.87697  0.51195  Biso   1.000  C
  H419     1.0000 0.51763  0.89827  0.51627  Biso   1.000  H
  C472     1.0000 0.45033  0.81747  0.51309  Biso   1.000  C
  H420     1.0000 0.47063  0.79847  0.51717  Biso   1.000  H
  N53      1.0000 0.49358  0.07541  0.60457  Biso   1.000  N
  C473     1.0000 0.50560  0.09496  0.62359  Biso   1.000  C
  C474     1.0000 0.46466  0.10875  0.63393  Biso   1.000  C
  N54      1.0000 0.38946  0.13795  0.65257  Biso   1.000  N
  C475     1.0000 0.38893  0.12937  0.63234  Biso   1.000  C
  H421     1.0000 0.36123  0.13287  0.62437  Biso   1.000  H
  C476     1.0000 0.42553  0.11597  0.62257  Biso   1.000  C
  H422     1.0000 0.42403  0.11167  0.60817  Biso   1.000  H
  C477     1.0000 0.46483  0.11437  0.65492  Biso   1.000  C
  H423     1.0000 0.49103  0.10907  0.66317  Biso   1.000  H
  C478     1.0000 0.42623  0.12777  0.66360  Biso   1.000  C
  H424     1.0000 0.42533  0.13007  0.67807  Biso   1.000  H
  C479     1.0000 0.37233  0.10137  0.63655  Biso   1.000  C
  H425     1.0000 0.33363  0.08457  0.63197  Biso   1.000  H
  C480     1.0000 0.40903  0.08767  0.62662  Biso   1.000  C
  H426     1.0000 0.39643  0.06397  0.61487  Biso   1.000  H
  C481     1.0000 0.48063  0.14307  0.65085  Biso   1.000  C
  H427     1.0000 0.51813  0.15777  0.65637  Biso   1.000  H
  C482     1.0000 0.44243  0.15637  0.65995  Biso   1.000  C
  H428     1.0000 0.45393  0.17937  0.67187  Biso   1.000  H
  H429     1.0000 0.46283  0.06987  0.56817  Biso   1.000  H
  C483     1.0000 0.48563  0.05547  0.56232  Biso   1.000  C
  H430     1.0000 0.45423  0.04717  0.53397  Biso   1.000  H
  C484     1.0000 0.48013  0.04077  0.54192  Biso   1.000  C
  H431     1.0000 0.37693  0.89477  0.49687  Biso   1.000  H
  C485     1.0000 0.39663  0.87507  0.50083  Biso   1.000  C
  H432     1.0000 0.32593  0.79507  0.49867  Biso   1.000  H
  C486     1.0000 0.36573  0.81557  0.50206  Biso   1.000  C
  C487     1.0000 0.86250  0.64150  0.10135  Biso   1.000  C
  H433     1.0000 0.89510  0.64820  0.09350  Biso   1.000  H
  C488     1.0000 0.86800  0.65530  0.12183  Biso   1.000  C
  H434     1.0000 0.90520  0.67070  0.12770  Biso   1.000  H
  C489     1.0000 0.93500  0.78970  0.15472  Biso   1.000  C
  H435     1.0000 0.95270  0.76840  0.15040  Biso   1.000  H
  C490     1.0000 0.96620  0.84920  0.15358  Biso   1.000  C
  H436     1.0000 0.00550  0.86820  0.14950  Biso   1.000  H
  N55      1.0000 0.75151  0.59126  0.06210  Biso   1.000  N
  C491     1.0000 0.74398  0.57171  0.04308  Biso   1.000  C
  C492     1.0000 0.68925  0.55792  0.03274  Biso   1.000  C
  N56      1.0000 0.58485  0.52872  0.01410  Biso   1.000  N
  C493     1.0000 0.59290  0.53730  0.03433  Biso   1.000  C
  H437     1.0000 0.56170  0.53380  0.04230  Biso   1.000  H
  C494     1.0000 0.64290  0.55070  0.04410  Biso   1.000  C
  H438     1.0000 0.64570  0.55500  0.05850  Biso   1.000  H
  C495     1.0000 0.68380  0.55230  0.01175  Biso   1.000  C
  H439     1.0000 0.71530  0.55760  0.00350  Biso   1.000  H
  C496     1.0000 0.63180  0.53890  0.00307  Biso   1.000  C
  H440     1.0000 0.62860  0.53660  0.98860  Biso   1.000  H
  C497     1.0000 0.60430  0.56530  0.03012  Biso   1.000  C
  H441     1.0000 0.58240  0.58210  0.03470  Biso   1.000  H
  C498     1.0000 0.65470  0.57900  0.04005  Biso   1.000  C
  H442     1.0000 0.66580  0.60270  0.05180  Biso   1.000  H
  C499     1.0000 0.67090  0.52360  0.01582  Biso   1.000  C
  H443     1.0000 0.69370  0.50890  0.01030  Biso   1.000  H
  C500     1.0000 0.61940  0.51030  0.00672  Biso   1.000  C
  H444     1.0000 0.60790  0.48730  0.99480  Biso   1.000  H
  H445     1.0000 0.72630  0.59680  0.09850  Biso   1.000  H
  C501     1.0000 0.76350  0.61120  0.10435  Biso   1.000  C
  H446     1.0000 0.74040  0.61950  0.13270  Biso   1.000  H
  C502     1.0000 0.77270  0.62590  0.12475  Biso   1.000  C
  H447     1.0000 0.81550  0.77190  0.16980  Biso   1.000  H
  C503     1.0000 0.85490  0.79160  0.16584  Biso   1.000  C
  H448     1.0000 0.86420  0.87160  0.16800  Biso   1.000  H
  C504     1.0000 0.88350  0.85110  0.16461  Biso   1.000  C
  C505     1.0000 0.52917  0.97483  0.43468  Biso   1.000  C
  H449     1.0000 0.56177  0.98153  0.42683  Biso   1.000  H
  C506     1.0000 0.53467  0.98863  0.45516  Biso   1.000  C
  H450     1.0000 0.57187  0.00403  0.46103  Biso   1.000  H
  C507     1.0000 0.60167  0.12303  0.48805  Biso   1.000  C
  H451     1.0000 0.61937  0.10173  0.48373  Biso   1.000  H
  C508     1.0000 0.63287  0.18253  0.48691  Biso   1.000  C
  H452     1.0000 0.67217  0.20153  0.48283  Biso   1.000  H
  N57      1.0000 0.41818  0.92459  0.39543  Biso   1.000  N
  C509     1.0000 0.41065  0.90504  0.37641  Biso   1.000  C
  C510     1.0000 0.35592  0.89125  0.36607  Biso   1.000  C
  N58      1.0000 0.25152  0.86205  0.34743  Biso   1.000  N
  C511     1.0000 0.25957  0.87063  0.36766  Biso   1.000  C
  H453     1.0000 0.22837  0.86713  0.37563  Biso   1.000  H
  C512     1.0000 0.30957  0.88403  0.37743  Biso   1.000  C
  H454     1.0000 0.31237  0.88833  0.39183  Biso   1.000  H
  C513     1.0000 0.35047  0.88563  0.34508  Biso   1.000  C
  H455     1.0000 0.38197  0.89093  0.33683  Biso   1.000  H
  C514     1.0000 0.29847  0.87223  0.33640  Biso   1.000  C
  H456     1.0000 0.29527  0.86993  0.32193  Biso   1.000  H
  C515     1.0000 0.27097  0.89863  0.36345  Biso   1.000  C
  H457     1.0000 0.24907  0.91543  0.36803  Biso   1.000  H
  C516     1.0000 0.32137  0.91233  0.37338  Biso   1.000  C
  H458     1.0000 0.33247  0.93603  0.38513  Biso   1.000  H
  C517     1.0000 0.33757  0.85693  0.34915  Biso   1.000  C
  H459     1.0000 0.36037  0.84223  0.34363  Biso   1.000  H
  C518     1.0000 0.28607  0.84363  0.34005  Biso   1.000  C
  H460     1.0000 0.27457  0.82063  0.32813  Biso   1.000  H
  H461     1.0000 0.39297  0.93013  0.43183  Biso   1.000  H
  C519     1.0000 0.43017  0.94453  0.43768  Biso   1.000  C
  H462     1.0000 0.40707  0.95283  0.46603  Biso   1.000  H
  C520     1.0000 0.43937  0.95923  0.45808  Biso   1.000  C
  H463     1.0000 0.48217  0.10523  0.50313  Biso   1.000  H
  C521     1.0000 0.52157  0.12493  0.49917  Biso   1.000  C
  H464     1.0000 0.53087  0.20493  0.50133  Biso   1.000  H
  C522     1.0000 0.55017  0.18443  0.49794  Biso   1.000  C
  C523     1.0000 0.19583  0.30817  0.76802  Biso   1.000  C
  H465     1.0000 0.22843  0.31487  0.76017  Biso   1.000  H
  C524     1.0000 0.20133  0.32197  0.78850  Biso   1.000  C
  H466     1.0000 0.23853  0.33737  0.79437  Biso   1.000  H
  C525     1.0000 0.26833  0.45637  0.82139  Biso   1.000  C
  H467     1.0000 0.28603  0.43507  0.81707  Biso   1.000  H
  C526     1.0000 0.29953  0.51587  0.82025  Biso   1.000  C
  H468     1.0000 0.33883  0.53487  0.81617  Biso   1.000  H
  N59      1.0000 0.08484  0.25793  0.72877  Biso   1.000  N
  C527     1.0000 0.07731  0.23838  0.70975  Biso   1.000  C
  C528     1.0000 0.02258  0.22459  0.69941  Biso   1.000  C
  N60      1.0000 0.91818  0.19539  0.68077  Biso   1.000  N
  C529     1.0000 0.92623  0.20397  0.70100  Biso   1.000  C
  H469     1.0000 0.89503  0.20047  0.70897  Biso   1.000  H
  C530     1.0000 0.97623  0.21737  0.71077  Biso   1.000  C
  H470     1.0000 0.97903  0.22167  0.72517  Biso   1.000  H
  C531     1.0000 0.01713  0.21897  0.67842  Biso   1.000  C
  H471     1.0000 0.04863  0.22427  0.67017  Biso   1.000  H
  C532     1.0000 0.96513  0.20557  0.66974  Biso   1.000  C
  H472     1.0000 0.96193  0.20327  0.65527  Biso   1.000  H
  C533     1.0000 0.93763  0.23197  0.69679  Biso   1.000  C
  H473     1.0000 0.91573  0.24877  0.70137  Biso   1.000  H
  C534     1.0000 0.98803  0.24567  0.70672  Biso   1.000  C
  H474     1.0000 0.99913  0.26937  0.71847  Biso   1.000  H
  C535     1.0000 0.00423  0.19027  0.68249  Biso   1.000  C
  H475     1.0000 0.02703  0.17557  0.67697  Biso   1.000  H
  C536     1.0000 0.95273  0.17697  0.67339  Biso   1.000  C
  H476     1.0000 0.94123  0.15397  0.66147  Biso   1.000  H
  H477     1.0000 0.05963  0.26347  0.76517  Biso   1.000  H
  C537     1.0000 0.09683  0.27787  0.77102  Biso   1.000  C
  H478     1.0000 0.07373  0.28617  0.79937  Biso   1.000  H
  C538     1.0000 0.10603  0.29257  0.79142  Biso   1.000  C
  H479     1.0000 0.14883  0.43857  0.83647  Biso   1.000  H
  C539     1.0000 0.18823  0.45827  0.83251  Biso   1.000  C
  H480     1.0000 0.19753  0.53827  0.83467  Biso   1.000  H
  C540     1.0000 0.21683  0.51777  0.83128  Biso   1.000  C
  C541     1.0000 0.77900  0.13750  0.10135  Biso   1.000  C
  H481     1.0000 0.75310  0.10490  0.09350  Biso   1.000  H
  C542     1.0000 0.78730  0.13200  0.12183  Biso   1.000  C
  H482     1.0000 0.76550  0.09480  0.12770  Biso   1.000  H
  C543     1.0000 0.85470  0.06500  0.15472  Biso   1.000  C
  H483     1.0000 0.81570  0.04730  0.15040  Biso   1.000  H
  C544     1.0000 0.88300  0.03380  0.15358  Biso   1.000  C
  H484     1.0000 0.86270  0.99450  0.14950  Biso   1.000  H
  N61      1.0000 0.83975  0.24849  0.06210  Biso   1.000  N
  C545     1.0000 0.82773  0.25602  0.04308  Biso   1.000  C
  C546     1.0000 0.86867  0.31075  0.03274  Biso   1.000  C
  N62      1.0000 0.94387  0.41515  0.01410  Biso   1.000  N
  C547     1.0000 0.94440  0.40710  0.03433  Biso   1.000  C
  H485     1.0000 0.97210  0.43830  0.04230  Biso   1.000  H
  C548     1.0000 0.90780  0.35710  0.04410  Biso   1.000  C
  H486     1.0000 0.90930  0.35430  0.05850  Biso   1.000  H
  C549     1.0000 0.86850  0.31620  0.01175  Biso   1.000  C
  H487     1.0000 0.84230  0.28470  0.00350  Biso   1.000  H
  C550     1.0000 0.90710  0.36820  0.00307  Biso   1.000  C
  H488     1.0000 0.90800  0.37140  0.98860  Biso   1.000  H
  C551     1.0000 0.96100  0.39570  0.03012  Biso   1.000  C
  H489     1.0000 0.99970  0.41760  0.03470  Biso   1.000  H
  C552     1.0000 0.92430  0.34530  0.04005  Biso   1.000  C
  H490     1.0000 0.93690  0.33420  0.05180  Biso   1.000  H
  C553     1.0000 0.85270  0.32910  0.01582  Biso   1.000  C
  H491     1.0000 0.81520  0.30630  0.01030  Biso   1.000  H
  C554     1.0000 0.89090  0.38060  0.00672  Biso   1.000  C
  H492     1.0000 0.87940  0.39210  0.99480  Biso   1.000  H
  H493     1.0000 0.87050  0.27370  0.09850  Biso   1.000  H
  C555     1.0000 0.84770  0.23650  0.10435  Biso   1.000  C
  H494     1.0000 0.87910  0.25960  0.13270  Biso   1.000  H
  C556     1.0000 0.85320  0.22730  0.12475  Biso   1.000  C
  H495     1.0000 0.95640  0.18450  0.16980  Biso   1.000  H
  C557     1.0000 0.93670  0.14510  0.16584  Biso   1.000  C
  H496     1.0000 0.00740  0.13580  0.16800  Biso   1.000  H
  C558     1.0000 0.96760  0.11650  0.16461  Biso   1.000  C
  C559     1.0000 0.44567  0.47083  0.43468  Biso   1.000  C
  H497     1.0000 0.41977  0.43823  0.42683  Biso   1.000  H
  C560     1.0000 0.45397  0.46533  0.45516  Biso   1.000  C
  H498     1.0000 0.43217  0.42813  0.46103  Biso   1.000  H
  C561     1.0000 0.52137  0.39833  0.48805  Biso   1.000  C
  H499     1.0000 0.48237  0.38063  0.48373  Biso   1.000  H
  C562     1.0000 0.54967  0.36713  0.48691  Biso   1.000  C
  H500     1.0000 0.52937  0.32783  0.48283  Biso   1.000  H
  N63      1.0000 0.50642  0.58182  0.39543  Biso   1.000  N
  C563     1.0000 0.49440  0.58935  0.37641  Biso   1.000  C
  C564     1.0000 0.53534  0.64408  0.36607  Biso   1.000  C
  N64      1.0000 0.61054  0.74848  0.34743  Biso   1.000  N
  C565     1.0000 0.61107  0.74043  0.36766  Biso   1.000  C
  H501     1.0000 0.63877  0.77163  0.37563  Biso   1.000  H
  C566     1.0000 0.57447  0.69043  0.37743  Biso   1.000  C
  H502     1.0000 0.57597  0.68763  0.39183  Biso   1.000  H
  C567     1.0000 0.53517  0.64953  0.34508  Biso   1.000  C
  H503     1.0000 0.50897  0.61803  0.33683  Biso   1.000  H
  C568     1.0000 0.57377  0.70153  0.33640  Biso   1.000  C
  H504     1.0000 0.57467  0.70473  0.32193  Biso   1.000  H
  C569     1.0000 0.62767  0.72903  0.36345  Biso   1.000  C
  H505     1.0000 0.66637  0.75093  0.36803  Biso   1.000  H
  C570     1.0000 0.59097  0.67863  0.37338  Biso   1.000  C
  H506     1.0000 0.60357  0.66753  0.38513  Biso   1.000  H
  C571     1.0000 0.51937  0.66243  0.34915  Biso   1.000  C
  H507     1.0000 0.48187  0.63963  0.34363  Biso   1.000  H
  C572     1.0000 0.55757  0.71393  0.34005  Biso   1.000  C
  H508     1.0000 0.54607  0.72543  0.32813  Biso   1.000  H
  H509     1.0000 0.53717  0.60703  0.43183  Biso   1.000  H
  C573     1.0000 0.51437  0.56983  0.43768  Biso   1.000  C
  H510     1.0000 0.54577  0.59293  0.46603  Biso   1.000  H
  C574     1.0000 0.51987  0.56063  0.45808  Biso   1.000  C
  H511     1.0000 0.62307  0.51783  0.50313  Biso   1.000  H
  C575     1.0000 0.60337  0.47843  0.49917  Biso   1.000  C
  H512     1.0000 0.67407  0.46913  0.50133  Biso   1.000  H
  C576     1.0000 0.63427  0.44983  0.49794  Biso   1.000  C
  C577     1.0000 0.11233  0.80417  0.76802  Biso   1.000  C
  H513     1.0000 0.08643  0.77157  0.76017  Biso   1.000  H
  C578     1.0000 0.12063  0.79867  0.78850  Biso   1.000  C
  H514     1.0000 0.09883  0.76147  0.79437  Biso   1.000  H
  C579     1.0000 0.18803  0.73167  0.82139  Biso   1.000  C
  H515     1.0000 0.14903  0.71397  0.81707  Biso   1.000  H
  C580     1.0000 0.21633  0.70047  0.82025  Biso   1.000  C
  H516     1.0000 0.19603  0.66117  0.81617  Biso   1.000  H
  N65      1.0000 0.17308  0.91516  0.72877  Biso   1.000  N
  C581     1.0000 0.16106  0.92269  0.70975  Biso   1.000  C
  C582     1.0000 0.20200  0.97742  0.69941  Biso   1.000  C
  N66      1.0000 0.27720  0.08182  0.68077  Biso   1.000  N
  C583     1.0000 0.27773  0.07377  0.70100  Biso   1.000  C
  H517     1.0000 0.30543  0.10497  0.70897  Biso   1.000  H
  C584     1.0000 0.24113  0.02377  0.71077  Biso   1.000  C
  H518     1.0000 0.24263  0.02097  0.72517  Biso   1.000  H
  C585     1.0000 0.20183  0.98287  0.67842  Biso   1.000  C
  H519     1.0000 0.17563  0.95137  0.67017  Biso   1.000  H
  C586     1.0000 0.24043  0.03487  0.66974  Biso   1.000  C
  H520     1.0000 0.24133  0.03807  0.65527  Biso   1.000  H
  C587     1.0000 0.29433  0.06237  0.69679  Biso   1.000  C
  H521     1.0000 0.33303  0.08427  0.70137  Biso   1.000  H
  C588     1.0000 0.25763  0.01197  0.70672  Biso   1.000  C
  H522     1.0000 0.27023  0.00087  0.71847  Biso   1.000  H
  C589     1.0000 0.18603  0.99577  0.68249  Biso   1.000  C
  H523     1.0000 0.14853  0.97297  0.67697  Biso   1.000  H
  C590     1.0000 0.22423  0.04727  0.67339  Biso   1.000  C
  H524     1.0000 0.21273  0.05877  0.66147  Biso   1.000  H
  H525     1.0000 0.20383  0.94037  0.76517  Biso   1.000  H
  C591     1.0000 0.18103  0.90317  0.77102  Biso   1.000  C
  H526     1.0000 0.21243  0.92627  0.79937  Biso   1.000  H
  C592     1.0000 0.18653  0.89397  0.79142  Biso   1.000  C
  H527     1.0000 0.28973  0.85117  0.83647  Biso   1.000  H
  C593     1.0000 0.27003  0.81177  0.83251  Biso   1.000  C
  H528     1.0000 0.34073  0.80247  0.83467  Biso   1.000  H
  C594     1.0000 0.30093  0.78317  0.83128  Biso   1.000  C
  C595     1.0000 0.35850  0.22100  0.10135  Biso   1.000  C
  H529     1.0000 0.35180  0.24690  0.09350  Biso   1.000  H
  C596     1.0000 0.34470  0.21270  0.12183  Biso   1.000  C
  H530     1.0000 0.32930  0.23450  0.12770  Biso   1.000  H
  C597     1.0000 0.21030  0.14530  0.15472  Biso   1.000  C
  H531     1.0000 0.23160  0.18430  0.15040  Biso   1.000  H
  C598     1.0000 0.15080  0.11700  0.15358  Biso   1.000  C
  H532     1.0000 0.13180  0.13730  0.14950  Biso   1.000  H
  N67      1.0000 0.40874  0.16025  0.06210  Biso   1.000  N
  C599     1.0000 0.42829  0.17227  0.04308  Biso   1.000  C
  C600     1.0000 0.44208  0.13133  0.03274  Biso   1.000  C
  N68      1.0000 0.47128  0.05613  0.01410  Biso   1.000  N
  C601     1.0000 0.46270  0.05560  0.03433  Biso   1.000  C
  H533     1.0000 0.46620  0.02790  0.04230  Biso   1.000  H
  C602     1.0000 0.44930  0.09220  0.04410  Biso   1.000  C
  H534     1.0000 0.44500  0.09070  0.05850  Biso   1.000  H
  C603     1.0000 0.44770  0.13150  0.01175  Biso   1.000  C
  H535     1.0000 0.44240  0.15770  0.00350  Biso   1.000  H
  C604     1.0000 0.46110  0.09290  0.00307  Biso   1.000  C
  H536     1.0000 0.46340  0.09200  0.98860  Biso   1.000  H
  C605     1.0000 0.43470  0.03900  0.03012  Biso   1.000  C
  H537     1.0000 0.41790  0.00030  0.03470  Biso   1.000  H
  C606     1.0000 0.42100  0.07570  0.04005  Biso   1.000  C
  H538     1.0000 0.39730  0.06310  0.05180  Biso   1.000  H
  C607     1.0000 0.47640  0.14730  0.01582  Biso   1.000  C
  H539     1.0000 0.49110  0.18480  0.01030  Biso   1.000  H
  C608     1.0000 0.48970  0.10910  0.00672  Biso   1.000  C
  H540     1.0000 0.51270  0.12060  0.99480  Biso   1.000  H
  H541     1.0000 0.40320  0.12950  0.09850  Biso   1.000  H
  C609     1.0000 0.38880  0.15230  0.10435  Biso   1.000  C
  H542     1.0000 0.38050  0.12090  0.13270  Biso   1.000  H
  C610     1.0000 0.37410  0.14680  0.12475  Biso   1.000  C
  H543     1.0000 0.22810  0.04360  0.16980  Biso   1.000  H
  C611     1.0000 0.20840  0.06330  0.16584  Biso   1.000  C
  H544     1.0000 0.12840  0.99260  0.16800  Biso   1.000  H
  C612     1.0000 0.14890  0.03240  0.16461  Biso   1.000  C
  C613     1.0000 0.02517  0.55433  0.43468  Biso   1.000  C
  H545     1.0000 0.01847  0.58023  0.42683  Biso   1.000  H
  C614     1.0000 0.01137  0.54603  0.45516  Biso   1.000  C
  H546     1.0000 0.99597  0.56783  0.46103  Biso   1.000  H
  C615     1.0000 0.87697  0.47863  0.48805  Biso   1.000  C
  H547     1.0000 0.89827  0.51763  0.48373  Biso   1.000  H
  C616     1.0000 0.81747  0.45033  0.48691  Biso   1.000  C
  H548     1.0000 0.79847  0.47063  0.48283  Biso   1.000  H
  N69      1.0000 0.07541  0.49358  0.39543  Biso   1.000  N
  C617     1.0000 0.09496  0.50560  0.37641  Biso   1.000  C
  C618     1.0000 0.10875  0.46466  0.36607  Biso   1.000  C
  N70      1.0000 0.13795  0.38946  0.34743  Biso   1.000  N
  C619     1.0000 0.12937  0.38893  0.36766  Biso   1.000  C
  H549     1.0000 0.13287  0.36123  0.37563  Biso   1.000  H
  C620     1.0000 0.11597  0.42553  0.37743  Biso   1.000  C
  H550     1.0000 0.11167  0.42403  0.39183  Biso   1.000  H
  C621     1.0000 0.11437  0.46483  0.34508  Biso   1.000  C
  H551     1.0000 0.10907  0.49103  0.33683  Biso   1.000  H
  C622     1.0000 0.12777  0.42623  0.33640  Biso   1.000  C
  H552     1.0000 0.13007  0.42533  0.32193  Biso   1.000  H
  C623     1.0000 0.10137  0.37233  0.36345  Biso   1.000  C
  H553     1.0000 0.08457  0.33363  0.36803  Biso   1.000  H
  C624     1.0000 0.08767  0.40903  0.37338  Biso   1.000  C
  H554     1.0000 0.06397  0.39643  0.38513  Biso   1.000  H
  C625     1.0000 0.14307  0.48063  0.34915  Biso   1.000  C
  H555     1.0000 0.15777  0.51813  0.34363  Biso   1.000  H
  C626     1.0000 0.15637  0.44243  0.34005  Biso   1.000  C
  H556     1.0000 0.17937  0.45393  0.32813  Biso   1.000  H
  H557     1.0000 0.06987  0.46283  0.43183  Biso   1.000  H
  C627     1.0000 0.05547  0.48563  0.43768  Biso   1.000  C
  H558     1.0000 0.04717  0.45423  0.46603  Biso   1.000  H
  C628     1.0000 0.04077  0.48013  0.45808  Biso   1.000  C
  H559     1.0000 0.89477  0.37693  0.50313  Biso   1.000  H
  C629     1.0000 0.87507  0.39663  0.49917  Biso   1.000  C
  H560     1.0000 0.79507  0.32593  0.50133  Biso   1.000  H
  C630     1.0000 0.81557  0.36573  0.49794  Biso   1.000  C
  C631     1.0000 0.69183  0.88767  0.76802  Biso   1.000  C
  H561     1.0000 0.68513  0.91357  0.76017  Biso   1.000  H
  C632     1.0000 0.67803  0.87937  0.78850  Biso   1.000  C
  H562     1.0000 0.66263  0.90117  0.79437  Biso   1.000  H
  C633     1.0000 0.54363  0.81197  0.82139  Biso   1.000  C
  H563     1.0000 0.56493  0.85097  0.81707  Biso   1.000  H
  C634     1.0000 0.48413  0.78367  0.82025  Biso   1.000  C
  H564     1.0000 0.46513  0.80397  0.81617  Biso   1.000  H
  N71      1.0000 0.74207  0.82692  0.72877  Biso   1.000  N
  C635     1.0000 0.76162  0.83894  0.70975  Biso   1.000  C
  C636     1.0000 0.77541  0.79800  0.69941  Biso   1.000  C
  N72      1.0000 0.80461  0.72280  0.68077  Biso   1.000  N
  C637     1.0000 0.79603  0.72227  0.70100  Biso   1.000  C
  H565     1.0000 0.79953  0.69457  0.70897  Biso   1.000  H
  C638     1.0000 0.78263  0.75887  0.71077  Biso   1.000  C
  H566     1.0000 0.77833  0.75737  0.72517  Biso   1.000  H
  C639     1.0000 0.78103  0.79817  0.67842  Biso   1.000  C
  H567     1.0000 0.77573  0.82437  0.67017  Biso   1.000  H
  C640     1.0000 0.79443  0.75957  0.66974  Biso   1.000  C
  H568     1.0000 0.79673  0.75867  0.65527  Biso   1.000  H
  C641     1.0000 0.76803  0.70567  0.69679  Biso   1.000  C
  H569     1.0000 0.75123  0.66697  0.70137  Biso   1.000  H
  C642     1.0000 0.75433  0.74237  0.70672  Biso   1.000  C
  H570     1.0000 0.73063  0.72977  0.71847  Biso   1.000  H
  C643     1.0000 0.80973  0.81397  0.68249  Biso   1.000  C
  H571     1.0000 0.82443  0.85147  0.67697  Biso   1.000  H
  C644     1.0000 0.82303  0.77577  0.67339  Biso   1.000  C
  H572     1.0000 0.84603  0.78727  0.66147  Biso   1.000  H
  H573     1.0000 0.73653  0.79617  0.76517  Biso   1.000  H
  C645     1.0000 0.72213  0.81897  0.77102  Biso   1.000  C
  H574     1.0000 0.71383  0.78757  0.79937  Biso   1.000  H
  C646     1.0000 0.70743  0.81347  0.79142  Biso   1.000  C
  H575     1.0000 0.56143  0.71027  0.83647  Biso   1.000  H
  C647     1.0000 0.54173  0.72997  0.83251  Biso   1.000  C
  H576     1.0000 0.46173  0.65927  0.83467  Biso   1.000  H
  C648     1.0000 0.48223  0.69907  0.83128  Biso   1.000  C
  Co1      1.0000 0.33333  0.16667  0.16667  Biso   1.000  Co
  Co2      1.0000 0.00000  0.50000  0.50000  Biso   1.000  Co
  Co3      1.0000 0.83333  0.16667  0.16667  Biso   1.000  Co
  Co4      1.0000 0.50000  0.50000  0.50000  Biso   1.000  Co
  Co5      1.0000 0.83333  0.66667  0.16667  Biso   1.000  Co
  Co6      1.0000 0.50000  0.00000  0.50000  Biso   1.000  Co
  Co7      1.0000 0.16667  0.33333  0.83333  Biso   1.000  Co
  Co8      1.0000 0.16667  0.83333  0.83333  Biso   1.000  Co
  Co9      1.0000 0.66667  0.83333  0.83333  Biso   1.000  Co
  S1       1.0000 0.33333  0.98878  0.16667  Biso   1.000  S
  N73      1.0000 0.33333  0.08932  0.16667  Biso   1.000  N
  C649     1.0000 0.33333  0.04832  0.16667  Biso   1.000  C
  S2       1.0000 0.00000  0.32211  0.50000  Biso   1.000  S
  N74      1.0000 0.00000  0.42265  0.50000  Biso   1.000  N
  C650     1.0000 0.00000  0.38165  0.50000  Biso   1.000  C
  S3       1.0000 0.01122  0.34456  0.16667  Biso   1.000  S
  N75      1.0000 0.91068  0.24402  0.16667  Biso   1.000  N
  C651     1.0000 0.95168  0.28502  0.16667  Biso   1.000  C
  S4       1.0000 0.67789  0.67789  0.50000  Biso   1.000  S
  N76      1.0000 0.57735  0.57735  0.50000  Biso   1.000  N
  C652     1.0000 0.61835  0.61835  0.50000  Biso   1.000  C
  S5       1.0000 0.65544  0.66667  0.16667  Biso   1.000  S
  N77      1.0000 0.75598  0.66667  0.16667  Biso   1.000  N
  C653     1.0000 0.71498  0.66667  0.16667  Biso   1.000  C
  S6       1.0000 0.32211  0.00000  0.50000  Biso   1.000  S
  N78      1.0000 0.42265  0.00000  0.50000  Biso   1.000  N
  C654     1.0000 0.38165  0.00000  0.50000  Biso   1.000  C
  S7       1.0000 0.98878  0.33333  0.83333  Biso   1.000  S
  N79      1.0000 0.08932  0.33333  0.83333  Biso   1.000  N
  C655     1.0000 0.04832  0.33333  0.83333  Biso   1.000  C
  S8       1.0000 0.34456  0.01122  0.83333  Biso   1.000  S
  N80      1.0000 0.24402  0.91068  0.83333  Biso   1.000  N
  C656     1.0000 0.28502  0.95168  0.83333  Biso   1.000  C
  S9       1.0000 0.66667  0.65544  0.83333  Biso   1.000  S
  N81      1.0000 0.66667  0.75598  0.83333  Biso   1.000  N
  C657     1.0000 0.66667  0.71498  0.83333  Biso   1.000  C
  S10      1.0000 0.66667  0.01122  0.83333  Biso   1.000  S
  N82      1.0000 0.66667  0.91068  0.83333  Biso   1.000  N
  C658     1.0000 0.66667  0.95168  0.83333  Biso   1.000  C
  S11      1.0000 0.33333  0.34456  0.16667  Biso   1.000  S
  N83      1.0000 0.33333  0.24402  0.16667  Biso   1.000  N
  C659     1.0000 0.33333  0.28502  0.16667  Biso   1.000  C
  S12      1.0000 0.98878  0.65544  0.83333  Biso   1.000  S
  N84      1.0000 0.08932  0.75598  0.83333  Biso   1.000  N
  C660     1.0000 0.04832  0.71498  0.83333  Biso   1.000  C
  S13      1.0000 0.32211  0.32211  0.50000  Biso   1.000  S
  N85      1.0000 0.42265  0.42265  0.50000  Biso   1.000  N
  C661     1.0000 0.38165  0.38165  0.50000  Biso   1.000  C
  S14      1.0000 0.34456  0.33333  0.83333  Biso   1.000  S
  N86      1.0000 0.24402  0.33333  0.83333  Biso   1.000  N
  C662     1.0000 0.28502  0.33333  0.83333  Biso   1.000  C
  S15      1.0000 0.01122  0.66667  0.16667  Biso   1.000  S
  N87      1.0000 0.91068  0.66667  0.16667  Biso   1.000  N
  C663     1.0000 0.95168  0.66667  0.16667  Biso   1.000  C
  S16      1.0000 0.67789  0.00000  0.50000  Biso   1.000  S
  N88      1.0000 0.57735  0.00000  0.50000  Biso   1.000  N
  C664     1.0000 0.61835  0.00000  0.50000  Biso   1.000  C
  S17      1.0000 0.65544  0.98878  0.16667  Biso   1.000  S
  N89      1.0000 0.75598  0.08932  0.16667  Biso   1.000  N
  C665     1.0000 0.71498  0.04832  0.16667  Biso   1.000  C
  S18      1.0000 0.00000  0.67789  0.50000  Biso   1.000  S
  N90      1.0000 0.00000  0.57735  0.50000  Biso   1.000  N
  C666     1.0000 0.00000  0.61835  0.50000  Biso   1.000  C
  N91      1.0000 0.43816  0.21908  0.03262  Biso   1.000  N
  N92      1.0000 0.35134  0.17567  0.13418  Biso   1.000  N
  N93      1.0000 0.23925  0.11963  0.16172  Biso   1.000  N
  C667     1.0000 0.40040  0.20020  0.07093  Biso   1.000  C
  C668     1.0000 0.38220  0.19110  0.09255  Biso   1.000  C
  C669     1.0000 0.05630  0.02815  0.15709  Biso   1.000  C
  C670     1.0000 0.11957  0.05979  0.15838  Biso   1.000  C
  N94      1.0000 0.10483  0.55241  0.36595  Biso   1.000  N
  N95      1.0000 0.01801  0.50900  0.46751  Biso   1.000  N
  N96      1.0000 0.90592  0.45296  0.49505  Biso   1.000  N
  C671     1.0000 0.06707  0.53353  0.40426  Biso   1.000  C
  C672     1.0000 0.04887  0.52443  0.42588  Biso   1.000  C
  C673     1.0000 0.72297  0.36148  0.49042  Biso   1.000  C
  C674     1.0000 0.78624  0.39312  0.49171  Biso   1.000  C
  N97      1.0000 0.77149  0.88575  0.69929  Biso   1.000  N
  N98      1.0000 0.68467  0.84234  0.80085  Biso   1.000  N
  N99      1.0000 0.57258  0.78629  0.82839  Biso   1.000  N
  C675     1.0000 0.73373  0.86687  0.73760  Biso   1.000  C
  C676     1.0000 0.71553  0.85777  0.75922  Biso   1.000  C
  C677     1.0000 0.38963  0.69482  0.82376  Biso   1.000  C
  C678     1.0000 0.45290  0.72645  0.82505  Biso   1.000  C
  N100     1.0000 0.78092  0.21908  0.03262  Biso   1.000  N
  N101     1.0000 0.82433  0.17567  0.13418  Biso   1.000  N
  N102     1.0000 0.88037  0.11963  0.16172  Biso   1.000  N
  C679     1.0000 0.79980  0.20020  0.07093  Biso   1.000  C
  C680     1.0000 0.80890  0.19110  0.09255  Biso   1.000  C
  C681     1.0000 0.97185  0.02815  0.15709  Biso   1.000  C
  C682     1.0000 0.94021  0.05979  0.15838  Biso   1.000  C
  N103     1.0000 0.44759  0.55241  0.36595  Biso   1.000  N
  N104     1.0000 0.49100  0.50900  0.46751  Biso   1.000  N
  N105     1.0000 0.54704  0.45296  0.49505  Biso   1.000  N
  C683     1.0000 0.46647  0.53353  0.40426  Biso   1.000  C
  C684     1.0000 0.47557  0.52443  0.42588  Biso   1.000  C
  C685     1.0000 0.63852  0.36148  0.49042  Biso   1.000  C
  C686     1.0000 0.60688  0.39312  0.49171  Biso   1.000  C
  N106     1.0000 0.11425  0.88575  0.69929  Biso   1.000  N
  N107     1.0000 0.15766  0.84234  0.80085  Biso   1.000  N
  N108     1.0000 0.21371  0.78629  0.82839  Biso   1.000  N
  C687     1.0000 0.13313  0.86687  0.73760  Biso   1.000  C
  C688     1.0000 0.14223  0.85777  0.75922  Biso   1.000  C
  C689     1.0000 0.30518  0.69482  0.82376  Biso   1.000  C
  C690     1.0000 0.27355  0.72645  0.82505  Biso   1.000  C
  N109     1.0000 0.78092  0.56184  0.03262  Biso   1.000  N
  N110     1.0000 0.82433  0.64866  0.13418  Biso   1.000  N
  N111     1.0000 0.88037  0.76075  0.16172  Biso   1.000  N
  C691     1.0000 0.79980  0.59960  0.07093  Biso   1.000  C
  C692     1.0000 0.80890  0.61780  0.09255  Biso   1.000  C
  C693     1.0000 0.97185  0.94370  0.15709  Biso   1.000  C
  C694     1.0000 0.94021  0.88043  0.15838  Biso   1.000  C
  N112     1.0000 0.44759  0.89517  0.36595  Biso   1.000  N
  N113     1.0000 0.49100  0.98199  0.46751  Biso   1.000  N
  N114     1.0000 0.54704  0.09408  0.49505  Biso   1.000  N
  C695     1.0000 0.46647  0.93293  0.40426  Biso   1.000  C
  C696     1.0000 0.47557  0.95113  0.42588  Biso   1.000  C
  C697     1.0000 0.63852  0.27703  0.49042  Biso   1.000  C
  C698     1.0000 0.60688  0.21376  0.49171  Biso   1.000  C
  N115     1.0000 0.11425  0.22851  0.69929  Biso   1.000  N
  N116     1.0000 0.15766  0.31533  0.80085  Biso   1.000  N
  N117     1.0000 0.21371  0.42742  0.82839  Biso   1.000  N
  C699     1.0000 0.13313  0.26627  0.73760  Biso   1.000  C
  C700     1.0000 0.14223  0.28447  0.75922  Biso   1.000  C
  C701     1.0000 0.30518  0.61037  0.82376  Biso   1.000  C
  C702     1.0000 0.27355  0.54710  0.82505  Biso   1.000  C
  N118     1.0000 0.21908  0.43816  0.96738  Biso   1.000  N
  N119     1.0000 0.17567  0.35134  0.86582  Biso   1.000  N
  N120     1.0000 0.11963  0.23925  0.83828  Biso   1.000  N
  C703     1.0000 0.20020  0.40040  0.92907  Biso   1.000  C
  C704     1.0000 0.19110  0.38220  0.90745  Biso   1.000  C
  C705     1.0000 0.02815  0.05630  0.84291  Biso   1.000  C
  C706     1.0000 0.05979  0.11957  0.84162  Biso   1.000  C
  N121     1.0000 0.88575  0.77149  0.30071  Biso   1.000  N
  N122     1.0000 0.84234  0.68467  0.19915  Biso   1.000  N
  N123     1.0000 0.78629  0.57258  0.17161  Biso   1.000  N
  C707     1.0000 0.86687  0.73373  0.26240  Biso   1.000  C
  C708     1.0000 0.85777  0.71553  0.24078  Biso   1.000  C
  C709     1.0000 0.69482  0.38963  0.17624  Biso   1.000  C
  C710     1.0000 0.72645  0.45290  0.17495  Biso   1.000  C
  N124     1.0000 0.55241  0.10483  0.63405  Biso   1.000  N
  N125     1.0000 0.50900  0.01801  0.53249  Biso   1.000  N
  N126     1.0000 0.45296  0.90592  0.50495  Biso   1.000  N
  C711     1.0000 0.53353  0.06707  0.59574  Biso   1.000  C
  C712     1.0000 0.52443  0.04887  0.57412  Biso   1.000  C
  C713     1.0000 0.36148  0.72297  0.50958  Biso   1.000  C
  C714     1.0000 0.39312  0.78624  0.50829  Biso   1.000  C
  N127     1.0000 0.21908  0.78092  0.96738  Biso   1.000  N
  N128     1.0000 0.17567  0.82433  0.86582  Biso   1.000  N
  N129     1.0000 0.11963  0.88037  0.83828  Biso   1.000  N
  C715     1.0000 0.20020  0.79980  0.92907  Biso   1.000  C
  C716     1.0000 0.19110  0.80890  0.90745  Biso   1.000  C
  C717     1.0000 0.02815  0.97185  0.84291  Biso   1.000  C
  C718     1.0000 0.05979  0.94021  0.84162  Biso   1.000  C
  N130     1.0000 0.88575  0.11425  0.30071  Biso   1.000  N
  N131     1.0000 0.84234  0.15766  0.19915  Biso   1.000  N
  N132     1.0000 0.78629  0.21371  0.17161  Biso   1.000  N
  C719     1.0000 0.86687  0.13313  0.26240  Biso   1.000  C
  C720     1.0000 0.85777  0.14223  0.24078  Biso   1.000  C
  C721     1.0000 0.69482  0.30518  0.17624  Biso   1.000  C
  C722     1.0000 0.72645  0.27355  0.17495  Biso   1.000  C
  N133     1.0000 0.55241  0.44759  0.63405  Biso   1.000  N
  N134     1.0000 0.50900  0.49100  0.53249  Biso   1.000  N
  N135     1.0000 0.45296  0.54704  0.50495  Biso   1.000  N
  C723     1.0000 0.53353  0.46647  0.59574  Biso   1.000  C
  C724     1.0000 0.52443  0.47557  0.57412  Biso   1.000  C
  C725     1.0000 0.36148  0.63852  0.50958  Biso   1.000  C
  C726     1.0000 0.39312  0.60688  0.50829  Biso   1.000  C
  N136     1.0000 0.56184  0.78092  0.96738  Biso   1.000  N
  N137     1.0000 0.64866  0.82433  0.86582  Biso   1.000  N
  N138     1.0000 0.76075  0.88037  0.83828  Biso   1.000  N
  C727     1.0000 0.59960  0.79980  0.92907  Biso   1.000  C
  C728     1.0000 0.61780  0.80890  0.90745  Biso   1.000  C
  C729     1.0000 0.94370  0.97185  0.84291  Biso   1.000  C
  C730     1.0000 0.88043  0.94022  0.84162  Biso   1.000  C
  N139     1.0000 0.22851  0.11425  0.30071  Biso   1.000  N
  N140     1.0000 0.31533  0.15766  0.19915  Biso   1.000  N
  N141     1.0000 0.42742  0.21371  0.17161  Biso   1.000  N
  C731     1.0000 0.26627  0.13313  0.26240  Biso   1.000  C
  C732     1.0000 0.28447  0.14223  0.24078  Biso   1.000  C
  C733     1.0000 0.61037  0.30518  0.17624  Biso   1.000  C
  C734     1.0000 0.54710  0.27355  0.17495  Biso   1.000  C
  N142     1.0000 0.89517  0.44759  0.63405  Biso   1.000  N
  N143     1.0000 0.98199  0.49100  0.53249  Biso   1.000  N
  N144     1.0000 0.09408  0.54704  0.50495  Biso   1.000  N
  C735     1.0000 0.93293  0.46647  0.59574  Biso   1.000  C
  C736     1.0000 0.95113  0.47557  0.57412  Biso   1.000  C
  C737     1.0000 0.27703  0.63852  0.50958  Biso   1.000  C
  C738     1.0000 0.21376  0.60688  0.50829  Biso   1.000  C
  N145     1.0000 0.02951  0.05901  0.15695  Biso   1.000  N
  N146     1.0000 0.69617  0.39234  0.49028  Biso   1.000  N
  N147     1.0000 0.36284  0.72568  0.82362  Biso   1.000  N
  N148     1.0000 0.94099  0.97050  0.15695  Biso   1.000  N
  N149     1.0000 0.60766  0.30383  0.49028  Biso   1.000  N
  N150     1.0000 0.27432  0.63716  0.82362  Biso   1.000  N
  N151     1.0000 0.02951  0.97050  0.15695  Biso   1.000  N
  N152     1.0000 0.69617  0.30383  0.49028  Biso   1.000  N
  N153     1.0000 0.36284  0.63716  0.82362  Biso   1.000  N
  N154     1.0000 0.05901  0.02951  0.84305  Biso   1.000  N
  N155     1.0000 0.72568  0.36284  0.17638  Biso   1.000  N
  N156     1.0000 0.39234  0.69617  0.50972  Biso   1.000  N
  N157     1.0000 0.97050  0.94099  0.84305  Biso   1.000  N
  N158     1.0000 0.63716  0.27432  0.17638  Biso   1.000  N
  N159     1.0000 0.30383  0.60766  0.50972  Biso   1.000  N
  N160     1.0000 0.97050  0.02951  0.84305  Biso   1.000  N
  N161     1.0000 0.63716  0.36284  0.17638  Biso   1.000  N
  N162     1.0000 0.30383  0.69617  0.50972  Biso   1.000  N
  Co10     1.0000 0.50000  0.50000  0.00000  Biso   1.000  Co
  Co11     1.0000 0.16667  0.83333  0.33333  Biso   1.000  Co
  Co12     1.0000 0.83333  0.16667  0.66667  Biso   1.000  Co
  Co13     1.0000 0.50000  0.00000  0.00000  Biso   1.000  Co
  Co14     1.0000 0.16667  0.33333  0.33333  Biso   1.000  Co
  Co15     1.0000 0.83333  0.66667  0.66667  Biso   1.000  Co
  Co16     1.0000 0.00000  0.50000  0.00000  Biso   1.000  Co
  Co17     1.0000 0.66667  0.83333  0.33333  Biso   1.000  Co
  Co18     1.0000 0.33333  0.16667  0.66667  Biso   1.000  Co
  S19      1.0000 0.55939  0.44061  0.94079  Biso   1.000  S
  N163     1.0000 0.52573  0.47427  0.97420  Biso   1.000  N
  C739     1.0000 0.53985  0.46015  0.96053  Biso   1.000  C
  S20      1.0000 0.22606  0.77394  0.27412  Biso   1.000  S
  N164     1.0000 0.19240  0.80760  0.30753  Biso   1.000  N
  C740     1.0000 0.20652  0.79348  0.29386  Biso   1.000  C
  S21      1.0000 0.89272  0.10728  0.60746  Biso   1.000  S
  N165     1.0000 0.85906  0.14094  0.64087  Biso   1.000  N
  C741     1.0000 0.87318  0.12682  0.62720  Biso   1.000  C
  S22      1.0000 0.55939  0.11878  0.94079  Biso   1.000  S
  N166     1.0000 0.52573  0.05146  0.97420  Biso   1.000  N
  C742     1.0000 0.53985  0.07970  0.96053  Biso   1.000  C
  S23      1.0000 0.22606  0.45211  0.27412  Biso   1.000  S
  N167     1.0000 0.19240  0.38479  0.30753  Biso   1.000  N
  C743     1.0000 0.20652  0.41303  0.29386  Biso   1.000  C
  S24      1.0000 0.89272  0.78545  0.60746  Biso   1.000  S
  N168     1.0000 0.85906  0.71813  0.64087  Biso   1.000  N
  C744     1.0000 0.87318  0.74637  0.62720  Biso   1.000  C
  S25      1.0000 0.88122  0.44061  0.94079  Biso   1.000  S
  N169     1.0000 0.94854  0.47427  0.97420  Biso   1.000  N
  C745     1.0000 0.92030  0.46015  0.96053  Biso   1.000  C
  S26      1.0000 0.54789  0.77394  0.27412  Biso   1.000  S
  N170     1.0000 0.61521  0.80760  0.30753  Biso   1.000  N
  C746     1.0000 0.58697  0.79348  0.29386  Biso   1.000  C
  S27      1.0000 0.21455  0.10728  0.60746  Biso   1.000  S
  N171     1.0000 0.28187  0.14094  0.64087  Biso   1.000  N
  C747     1.0000 0.25363  0.12682  0.62720  Biso   1.000  C
  S28      1.0000 0.44061  0.55939  0.05921  Biso   1.000  S
  N172     1.0000 0.47427  0.52573  0.02580  Biso   1.000  N
  C748     1.0000 0.46015  0.53985  0.03947  Biso   1.000  C
  S29      1.0000 0.10728  0.89272  0.39254  Biso   1.000  S
  N173     1.0000 0.14094  0.85906  0.35913  Biso   1.000  N
  C749     1.0000 0.12682  0.87318  0.37280  Biso   1.000  C
  S30      1.0000 0.77394  0.22606  0.72588  Biso   1.000  S
  N174     1.0000 0.80760  0.19240  0.69247  Biso   1.000  N
  C750     1.0000 0.79348  0.20652  0.70614  Biso   1.000  C
  S31      1.0000 0.11878  0.55939  0.05921  Biso   1.000  S
  N175     1.0000 0.05146  0.52573  0.02580  Biso   1.000  N
  C751     1.0000 0.07970  0.53985  0.03947  Biso   1.000  C
  S32      1.0000 0.78545  0.89272  0.39254  Biso   1.000  S
  N176     1.0000 0.71813  0.85906  0.35913  Biso   1.000  N
  C752     1.0000 0.74637  0.87318  0.37280  Biso   1.000  C
  S33      1.0000 0.45211  0.22606  0.72588  Biso   1.000  S
  N177     1.0000 0.38479  0.19240  0.69247  Biso   1.000  N
  C753     1.0000 0.41303  0.20652  0.70614  Biso   1.000  C
  S34      1.0000 0.44061  0.88122  0.05921  Biso   1.000  S
  N178     1.0000 0.47427  0.94854  0.02580  Biso   1.000  N
  C754     1.0000 0.46015  0.92030  0.03947  Biso   1.000  C
  S35      1.0000 0.10728  0.21455  0.39254  Biso   1.000  S
  N179     1.0000 0.14094  0.28187  0.35913  Biso   1.000  N
  C755     1.0000 0.12682  0.25363  0.37280  Biso   1.000  C
  S36      1.0000 0.77394  0.54789  0.72588  Biso   1.000  S
  N180     1.0000 0.80760  0.61521  0.69247  Biso   1.000  N
  C756     1.0000 0.79348  0.58697  0.70614  Biso   1.000  C
