data_image0
_cell_length_a       16.154
_cell_length_b       33.51
_cell_length_c       41.623
_cell_angle_alpha    90
_cell_angle_beta     90
_cell_angle_gamma    90

_symmetry_space_group_name_H-M    "P 1"
_symmetry_int_tables_number       1

loop_
  _symmetry_equiv_pos_as_xyz
  'x, y, z'

loop_
  _atom_site_label
  _atom_site_occupancy
  _atom_site_fract_x
  _atom_site_fract_y
  _atom_site_fract_z
  _atom_site_thermal_displace_type
  _atom_site_B_iso_or_equiv
  _atom_site_type_symbol
  C1       1.0000 0.66630  0.11700  0.95410  Biso   1.000  C
  C2       1.0000 0.72770  0.15040  0.00620  Biso   1.000  C
  H1       1.0000 0.78050  0.14950  0.01670  Biso   1.000  H
  H2       1.0000 0.68560  0.14080  0.02050  Biso   1.000  H
  H3       1.0000 0.71550  0.17740  0.00010  Biso   1.000  H
  C3       1.0000 0.93710  0.23670  0.98580  Biso   1.000  C
  C4       1.0000 0.88260  0.19700  0.94870  Biso   1.000  C
  C5       1.0000 0.90870  0.30200  0.92490  Biso   1.000  C
  C6       1.0000 0.70220  0.26360  0.94450  Biso   1.000  C
  H4       1.0000 0.65660  0.27850  0.93580  Biso   1.000  H
  H5       1.0000 0.69950  0.26390  0.96750  Biso   1.000  H
  H6       1.0000 0.69930  0.23650  0.93700  Biso   1.000  H
  C7       1.0000 0.96920  0.26960  0.00640  Biso   1.000  C
  H7       1.0000 0.99760  0.25860  0.02460  Biso   1.000  H
  H8       1.0000 0.92390  0.28580  0.01370  Biso   1.000  H
  H9       1.0000 0.00690  0.28580  0.99410  Biso   1.000  H
  C8       1.0000 0.70110  0.09230  0.93110  Biso   1.000  C
  C9       1.0000 0.83900  0.18000  0.91970  Biso   1.000  C
  H10      1.0000 0.84150  0.15140  0.92040  Biso   1.000  H
  H11      1.0000 0.86560  0.18940  0.90050  Biso   1.000  H
  H12      1.0000 0.78220  0.18840  0.91970  Biso   1.000  H
  C10      1.0000 0.86200  0.27150  0.93940  Biso   1.000  C
  C11      1.0000 0.66830  0.07470  0.90110  Biso   1.000  C
  H13      1.0000 0.71030  0.05860  0.89120  Biso   1.000  H
  H14      1.0000 0.65190  0.09560  0.88670  Biso   1.000  H
  H15      1.0000 0.62120  0.05830  0.90610  Biso   1.000  H
  C12      1.0000 0.89250  0.23640  0.95700  Biso   1.000  C
  C13      1.0000 0.73000  0.12430  0.97640  Biso   1.000  C
  C14      1.0000 0.00060  0.30390  0.92480  Biso   1.000  C
  H16      1.0000 0.01830  0.32730  0.91340  Biso   1.000  H
  H17      1.0000 0.02240  0.28050  0.91440  Biso   1.000  H
  H18      1.0000 0.02050  0.30500  0.94650  Biso   1.000  H
  C15      1.0000 0.78120  0.28180  0.93370  Biso   1.000  C
  N1       1.0000 0.91930  0.17360  0.97100  Biso   1.000  N
  N2       1.0000 0.95190  0.19840  0.99290  Biso   1.000  N
  N3       1.0000 0.77980  0.08570  0.94050  Biso   1.000  N
  N4       1.0000 0.85970  0.32850  0.91060  Biso   1.000  N
  N5       1.0000 0.78190  0.31570  0.91650  Biso   1.000  N
  N6       1.0000 0.79930  0.10500  0.96810  Biso   1.000  N
  O1       1.0000 0.05330  0.11600  0.98870  Biso   1.000  O
  O2       1.0000 0.06960  0.15120  0.10376  Biso   1.000  O
  O3       1.0000 0.04310  0.16630  0.04180  Biso   1.000  O
  O4       1.0000 0.03090  0.22490  0.08780  Biso   1.000  O
  O5       1.0000 0.93280  0.09020  0.09680  Biso   1.000  O
  O6       1.0000 0.91050  0.16500  0.09279  Biso   1.000  O
  O7       1.0000 0.19640  0.21500  0.09773  Biso   1.000  O
  O8       1.0000 0.06800  0.09930  0.95140  Biso   1.000  O
  O9       1.0000 0.05610  0.09100  0.05213  Biso   1.000  O
  O10      1.0000 0.90660  0.12240  0.03270  Biso   1.000  O
  Co1      1.0000 0.92266  0.11206  0.98134  Biso   1.000  Co
  Mo1      1.0000 0.96947  0.12745  0.06336  Biso   1.000  Mo
  Mo2      1.0000 0.97020  0.20221  0.12239  Biso   1.000  Mo
  Mo3      1.0000 0.11951  0.20200  0.06533  Biso   1.000  Mo
  O11      1.0000 0.13800  0.11050  0.93070  Biso   1.000  O
  C16      1.0000 0.66630  0.61700  0.45410  Biso   1.000  C
  C17      1.0000 0.72770  0.65040  0.50620  Biso   1.000  C
  H19      1.0000 0.78050  0.64950  0.51670  Biso   1.000  H
  H20      1.0000 0.68560  0.64080  0.52050  Biso   1.000  H
  H21      1.0000 0.71550  0.67740  0.50010  Biso   1.000  H
  C18      1.0000 0.93710  0.73670  0.48580  Biso   1.000  C
  C19      1.0000 0.88260  0.69700  0.44870  Biso   1.000  C
  C20      1.0000 0.90870  0.80200  0.42490  Biso   1.000  C
  C21      1.0000 0.70220  0.76360  0.44450  Biso   1.000  C
  H22      1.0000 0.65660  0.77850  0.43580  Biso   1.000  H
  H23      1.0000 0.69950  0.76390  0.46750  Biso   1.000  H
  H24      1.0000 0.69930  0.73650  0.43700  Biso   1.000  H
  C22      1.0000 0.96920  0.76960  0.50640  Biso   1.000  C
  H25      1.0000 0.99760  0.75860  0.52460  Biso   1.000  H
  H26      1.0000 0.92390  0.78580  0.51370  Biso   1.000  H
  H27      1.0000 0.00690  0.78580  0.49410  Biso   1.000  H
  C23      1.0000 0.70110  0.59230  0.43110  Biso   1.000  C
  C24      1.0000 0.83900  0.68000  0.41970  Biso   1.000  C
  H28      1.0000 0.84150  0.65140  0.42040  Biso   1.000  H
  H29      1.0000 0.86560  0.68940  0.40050  Biso   1.000  H
  H30      1.0000 0.78220  0.68840  0.41970  Biso   1.000  H
  C25      1.0000 0.86200  0.77150  0.43940  Biso   1.000  C
  C26      1.0000 0.66830  0.57470  0.40110  Biso   1.000  C
  H31      1.0000 0.71030  0.55860  0.39120  Biso   1.000  H
  H32      1.0000 0.65190  0.59560  0.38670  Biso   1.000  H
  H33      1.0000 0.62120  0.55830  0.40610  Biso   1.000  H
  C27      1.0000 0.89250  0.73640  0.45700  Biso   1.000  C
  C28      1.0000 0.73000  0.62430  0.47640  Biso   1.000  C
  C29      1.0000 0.00060  0.80390  0.42480  Biso   1.000  C
  H34      1.0000 0.01830  0.82730  0.41340  Biso   1.000  H
  H35      1.0000 0.02240  0.78050  0.41440  Biso   1.000  H
  H36      1.0000 0.02050  0.80500  0.44650  Biso   1.000  H
  C30      1.0000 0.78120  0.78180  0.43370  Biso   1.000  C
  N7       1.0000 0.91930  0.67360  0.47100  Biso   1.000  N
  N8       1.0000 0.95190  0.69840  0.49290  Biso   1.000  N
  N9       1.0000 0.77980  0.58570  0.44050  Biso   1.000  N
  N10      1.0000 0.85970  0.82850  0.41060  Biso   1.000  N
  N11      1.0000 0.78190  0.81570  0.41650  Biso   1.000  N
  N12      1.0000 0.79930  0.60500  0.46810  Biso   1.000  N
  O12      1.0000 0.05330  0.61600  0.48870  Biso   1.000  O
  O13      1.0000 0.06960  0.65120  0.60376  Biso   1.000  O
  O14      1.0000 0.04310  0.66630  0.54180  Biso   1.000  O
  O15      1.0000 0.03090  0.72490  0.58780  Biso   1.000  O
  O16      1.0000 0.93280  0.59020  0.59680  Biso   1.000  O
  O17      1.0000 0.91050  0.66500  0.59279  Biso   1.000  O
  O18      1.0000 0.19640  0.71500  0.59773  Biso   1.000  O
  O19      1.0000 0.06800  0.59930  0.45140  Biso   1.000  O
  O20      1.0000 0.05610  0.59100  0.55213  Biso   1.000  O
  O21      1.0000 0.90660  0.62240  0.53270  Biso   1.000  O
  Co2      1.0000 0.92266  0.61206  0.48134  Biso   1.000  Co
  Mo4      1.0000 0.96947  0.62745  0.56336  Biso   1.000  Mo
  Mo5      1.0000 0.97020  0.70221  0.62239  Biso   1.000  Mo
  Mo6      1.0000 0.11951  0.70200  0.56533  Biso   1.000  Mo
  O22      1.0000 0.13800  0.61050  0.43070  Biso   1.000  O
  C31      1.0000 0.16630  0.11700  0.45410  Biso   1.000  C
  C32      1.0000 0.22770  0.15040  0.50620  Biso   1.000  C
  H37      1.0000 0.28050  0.14950  0.51670  Biso   1.000  H
  H38      1.0000 0.18560  0.14080  0.52050  Biso   1.000  H
  H39      1.0000 0.21550  0.17740  0.50010  Biso   1.000  H
  C33      1.0000 0.43710  0.23670  0.48580  Biso   1.000  C
  C34      1.0000 0.38260  0.19700  0.44870  Biso   1.000  C
  C35      1.0000 0.40870  0.30200  0.42490  Biso   1.000  C
  C36      1.0000 0.20220  0.26360  0.44450  Biso   1.000  C
  H40      1.0000 0.15660  0.27850  0.43580  Biso   1.000  H
  H41      1.0000 0.19950  0.26390  0.46750  Biso   1.000  H
  H42      1.0000 0.19930  0.23650  0.43700  Biso   1.000  H
  C37      1.0000 0.46920  0.26960  0.50640  Biso   1.000  C
  H43      1.0000 0.49760  0.25860  0.52460  Biso   1.000  H
  H44      1.0000 0.42390  0.28580  0.51370  Biso   1.000  H
  H45      1.0000 0.50690  0.28580  0.49410  Biso   1.000  H
  C38      1.0000 0.20110  0.09230  0.43110  Biso   1.000  C
  C39      1.0000 0.33900  0.18000  0.41970  Biso   1.000  C
  H46      1.0000 0.34150  0.15140  0.42040  Biso   1.000  H
  H47      1.0000 0.36560  0.18940  0.40050  Biso   1.000  H
  H48      1.0000 0.28220  0.18840  0.41970  Biso   1.000  H
  C40      1.0000 0.36200  0.27150  0.43940  Biso   1.000  C
  C41      1.0000 0.16830  0.07470  0.40110  Biso   1.000  C
  H49      1.0000 0.21030  0.05860  0.39120  Biso   1.000  H
  H50      1.0000 0.15190  0.09560  0.38670  Biso   1.000  H
  H51      1.0000 0.12120  0.05830  0.40610  Biso   1.000  H
  C42      1.0000 0.39250  0.23640  0.45700  Biso   1.000  C
  C43      1.0000 0.23000  0.12430  0.47640  Biso   1.000  C
  C44      1.0000 0.50060  0.30390  0.42480  Biso   1.000  C
  H52      1.0000 0.51830  0.32730  0.41340  Biso   1.000  H
  H53      1.0000 0.52240  0.28050  0.41440  Biso   1.000  H
  H54      1.0000 0.52050  0.30500  0.44650  Biso   1.000  H
  C45      1.0000 0.28120  0.28180  0.43370  Biso   1.000  C
  N13      1.0000 0.41930  0.17360  0.47100  Biso   1.000  N
  N14      1.0000 0.45190  0.19840  0.49290  Biso   1.000  N
  N15      1.0000 0.27980  0.08570  0.44050  Biso   1.000  N
  N16      1.0000 0.35970  0.32850  0.41060  Biso   1.000  N
  N17      1.0000 0.28190  0.31570  0.41650  Biso   1.000  N
  N18      1.0000 0.29930  0.10500  0.46810  Biso   1.000  N
  O23      1.0000 0.55330  0.11600  0.48870  Biso   1.000  O
  O24      1.0000 0.56960  0.15120  0.60376  Biso   1.000  O
  O25      1.0000 0.54310  0.16630  0.54180  Biso   1.000  O
  O26      1.0000 0.53090  0.22490  0.58780  Biso   1.000  O
  O27      1.0000 0.43280  0.09020  0.59680  Biso   1.000  O
  O28      1.0000 0.41050  0.16500  0.59279  Biso   1.000  O
  O29      1.0000 0.69640  0.21500  0.59773  Biso   1.000  O
  O30      1.0000 0.56800  0.09930  0.45140  Biso   1.000  O
  O31      1.0000 0.55610  0.09100  0.55213  Biso   1.000  O
  O32      1.0000 0.40660  0.12240  0.53270  Biso   1.000  O
  Co3      1.0000 0.42266  0.11206  0.48134  Biso   1.000  Co
  Mo7      1.0000 0.46947  0.12745  0.56336  Biso   1.000  Mo
  Mo8      1.0000 0.47020  0.20221  0.62239  Biso   1.000  Mo
  Mo9      1.0000 0.61951  0.20200  0.56533  Biso   1.000  Mo
  O33      1.0000 0.63800  0.11050  0.43070  Biso   1.000  O
  C46      1.0000 0.16630  0.61700  0.95410  Biso   1.000  C
  C47      1.0000 0.22770  0.65040  0.00620  Biso   1.000  C
  H55      1.0000 0.28050  0.64950  0.01670  Biso   1.000  H
  H56      1.0000 0.18560  0.64080  0.02050  Biso   1.000  H
  H57      1.0000 0.21550  0.67740  0.00010  Biso   1.000  H
  C48      1.0000 0.43710  0.73670  0.98580  Biso   1.000  C
  C49      1.0000 0.38260  0.69700  0.94870  Biso   1.000  C
  C50      1.0000 0.40870  0.80200  0.92490  Biso   1.000  C
  C51      1.0000 0.20220  0.76360  0.94450  Biso   1.000  C
  H58      1.0000 0.15660  0.77850  0.93580  Biso   1.000  H
  H59      1.0000 0.19950  0.76390  0.96750  Biso   1.000  H
  H60      1.0000 0.19930  0.73650  0.93700  Biso   1.000  H
  C52      1.0000 0.46920  0.76960  0.00640  Biso   1.000  C
  H61      1.0000 0.49760  0.75860  0.02460  Biso   1.000  H
  H62      1.0000 0.42390  0.78580  0.01370  Biso   1.000  H
  H63      1.0000 0.50690  0.78580  0.99410  Biso   1.000  H
  C53      1.0000 0.20110  0.59230  0.93110  Biso   1.000  C
  C54      1.0000 0.33900  0.68000  0.91970  Biso   1.000  C
  H64      1.0000 0.34150  0.65140  0.92040  Biso   1.000  H
  H65      1.0000 0.36560  0.68940  0.90050  Biso   1.000  H
  H66      1.0000 0.28220  0.68840  0.91970  Biso   1.000  H
  C55      1.0000 0.36200  0.77150  0.93940  Biso   1.000  C
  C56      1.0000 0.16830  0.57470  0.90110  Biso   1.000  C
  H67      1.0000 0.21030  0.55860  0.89120  Biso   1.000  H
  H68      1.0000 0.15190  0.59560  0.88670  Biso   1.000  H
  H69      1.0000 0.12120  0.55830  0.90610  Biso   1.000  H
  C57      1.0000 0.39250  0.73640  0.95700  Biso   1.000  C
  C58      1.0000 0.23000  0.62430  0.97640  Biso   1.000  C
  C59      1.0000 0.50060  0.80390  0.92480  Biso   1.000  C
  H70      1.0000 0.51830  0.82730  0.91340  Biso   1.000  H
  H71      1.0000 0.52240  0.78050  0.91440  Biso   1.000  H
  H72      1.0000 0.52050  0.80500  0.94650  Biso   1.000  H
  C60      1.0000 0.28120  0.78180  0.93370  Biso   1.000  C
  N19      1.0000 0.41930  0.67360  0.97100  Biso   1.000  N
  N20      1.0000 0.45190  0.69840  0.99290  Biso   1.000  N
  N21      1.0000 0.27980  0.58570  0.94050  Biso   1.000  N
  N22      1.0000 0.35970  0.82850  0.91060  Biso   1.000  N
  N23      1.0000 0.28190  0.81570  0.91650  Biso   1.000  N
  N24      1.0000 0.29930  0.60500  0.96810  Biso   1.000  N
  O34      1.0000 0.55330  0.61600  0.98870  Biso   1.000  O
  O35      1.0000 0.56960  0.65120  0.10376  Biso   1.000  O
  O36      1.0000 0.54310  0.66630  0.04180  Biso   1.000  O
  O37      1.0000 0.53090  0.72490  0.08780  Biso   1.000  O
  O38      1.0000 0.43280  0.59020  0.09680  Biso   1.000  O
  O39      1.0000 0.41050  0.66500  0.09279  Biso   1.000  O
  O40      1.0000 0.69640  0.71500  0.09773  Biso   1.000  O
  O41      1.0000 0.56800  0.59930  0.95140  Biso   1.000  O
  O42      1.0000 0.55610  0.59100  0.05213  Biso   1.000  O
  O43      1.0000 0.40660  0.62240  0.03270  Biso   1.000  O
  Co4      1.0000 0.42266  0.61206  0.98134  Biso   1.000  Co
  Mo10     1.0000 0.46947  0.62745  0.06336  Biso   1.000  Mo
  Mo11     1.0000 0.47020  0.70221  0.12239  Biso   1.000  Mo
  Mo12     1.0000 0.61951  0.70200  0.06533  Biso   1.000  Mo
  O44      1.0000 0.63800  0.61050  0.93070  Biso   1.000  O
  C61      1.0000 0.08370  0.63300  0.95410  Biso   1.000  C
  C62      1.0000 0.02230  0.59960  0.00620  Biso   1.000  C
  H73      1.0000 0.96950  0.60050  0.01670  Biso   1.000  H
  H74      1.0000 0.06440  0.60920  0.02050  Biso   1.000  H
  H75      1.0000 0.03450  0.57260  0.00010  Biso   1.000  H
  C63      1.0000 0.81290  0.51330  0.98580  Biso   1.000  C
  C64      1.0000 0.86740  0.55300  0.94870  Biso   1.000  C
  C65      1.0000 0.84130  0.44800  0.92490  Biso   1.000  C
  C66      1.0000 0.04780  0.48640  0.94450  Biso   1.000  C
  H76      1.0000 0.09340  0.47150  0.93580  Biso   1.000  H
  H77      1.0000 0.05050  0.48610  0.96750  Biso   1.000  H
  H78      1.0000 0.05070  0.51350  0.93700  Biso   1.000  H
  C67      1.0000 0.78080  0.48040  0.00640  Biso   1.000  C
  H79      1.0000 0.75240  0.49140  0.02460  Biso   1.000  H
  H80      1.0000 0.82610  0.46420  0.01370  Biso   1.000  H
  H81      1.0000 0.74310  0.46420  0.99410  Biso   1.000  H
  C68      1.0000 0.04890  0.65770  0.93110  Biso   1.000  C
  C69      1.0000 0.91100  0.57000  0.91970  Biso   1.000  C
  H82      1.0000 0.90850  0.59860  0.92040  Biso   1.000  H
  H83      1.0000 0.88440  0.56060  0.90050  Biso   1.000  H
  H84      1.0000 0.96780  0.56160  0.91970  Biso   1.000  H
  C70      1.0000 0.88800  0.47850  0.93940  Biso   1.000  C
  C71      1.0000 0.08170  0.67530  0.90110  Biso   1.000  C
  H85      1.0000 0.03970  0.69140  0.89120  Biso   1.000  H
  H86      1.0000 0.09810  0.65440  0.88670  Biso   1.000  H
  H87      1.0000 0.12880  0.69170  0.90610  Biso   1.000  H
  C72      1.0000 0.85750  0.51360  0.95700  Biso   1.000  C
  C73      1.0000 0.02000  0.62570  0.97640  Biso   1.000  C
  C74      1.0000 0.74940  0.44610  0.92480  Biso   1.000  C
  H88      1.0000 0.73170  0.42270  0.91340  Biso   1.000  H
  H89      1.0000 0.72760  0.46950  0.91440  Biso   1.000  H
  H90      1.0000 0.72950  0.44500  0.94650  Biso   1.000  H
  C75      1.0000 0.96880  0.46820  0.93370  Biso   1.000  C
  N25      1.0000 0.83070  0.57640  0.97100  Biso   1.000  N
  N26      1.0000 0.79810  0.55160  0.99290  Biso   1.000  N
  N27      1.0000 0.97020  0.66430  0.94050  Biso   1.000  N
  N28      1.0000 0.89030  0.42150  0.91060  Biso   1.000  N
  N29      1.0000 0.96810  0.43430  0.91650  Biso   1.000  N
  N30      1.0000 0.95070  0.64500  0.96810  Biso   1.000  N
  O45      1.0000 0.69670  0.63400  0.98870  Biso   1.000  O
  O46      1.0000 0.68040  0.59880  0.10376  Biso   1.000  O
  O47      1.0000 0.70690  0.58370  0.04180  Biso   1.000  O
  O48      1.0000 0.71910  0.52510  0.08780  Biso   1.000  O
  O49      1.0000 0.81720  0.65980  0.09680  Biso   1.000  O
  O50      1.0000 0.83950  0.58500  0.09279  Biso   1.000  O
  O51      1.0000 0.55360  0.53500  0.09773  Biso   1.000  O
  O52      1.0000 0.68200  0.65070  0.95140  Biso   1.000  O
  O53      1.0000 0.69390  0.65900  0.05213  Biso   1.000  O
  O54      1.0000 0.84340  0.62760  0.03270  Biso   1.000  O
  Co5      1.0000 0.82734  0.63794  0.98134  Biso   1.000  Co
  Mo13     1.0000 0.78053  0.62255  0.06336  Biso   1.000  Mo
  Mo14     1.0000 0.77980  0.54779  0.12239  Biso   1.000  Mo
  Mo15     1.0000 0.63049  0.54800  0.06533  Biso   1.000  Mo
  O55      1.0000 0.61200  0.63950  0.93070  Biso   1.000  O
  C76      1.0000 0.08370  0.13300  0.45410  Biso   1.000  C
  C77      1.0000 0.02230  0.09960  0.50620  Biso   1.000  C
  H91      1.0000 0.96950  0.10050  0.51670  Biso   1.000  H
  H92      1.0000 0.06440  0.10920  0.52050  Biso   1.000  H
  H93      1.0000 0.03450  0.07260  0.50010  Biso   1.000  H
  C78      1.0000 0.81290  0.01330  0.48580  Biso   1.000  C
  C79      1.0000 0.86740  0.05300  0.44870  Biso   1.000  C
  C80      1.0000 0.84130  0.94800  0.42490  Biso   1.000  C
  C81      1.0000 0.04780  0.98640  0.44450  Biso   1.000  C
  H94      1.0000 0.09340  0.97150  0.43580  Biso   1.000  H
  H95      1.0000 0.05050  0.98610  0.46750  Biso   1.000  H
  H96      1.0000 0.05070  0.01350  0.43700  Biso   1.000  H
  C82      1.0000 0.78080  0.98040  0.50640  Biso   1.000  C
  H97      1.0000 0.75240  0.99140  0.52460  Biso   1.000  H
  H98      1.0000 0.82610  0.96420  0.51370  Biso   1.000  H
  H99      1.0000 0.74310  0.96420  0.49410  Biso   1.000  H
  C83      1.0000 0.04890  0.15770  0.43110  Biso   1.000  C
  C84      1.0000 0.91100  0.07000  0.41970  Biso   1.000  C
  H100     1.0000 0.90850  0.09860  0.42040  Biso   1.000  H
  H101     1.0000 0.88440  0.06060  0.40050  Biso   1.000  H
  H102     1.0000 0.96780  0.06160  0.41970  Biso   1.000  H
  C85      1.0000 0.88800  0.97850  0.43940  Biso   1.000  C
  C86      1.0000 0.08170  0.17530  0.40110  Biso   1.000  C
  H103     1.0000 0.03970  0.19140  0.39120  Biso   1.000  H
  H104     1.0000 0.09810  0.15440  0.38670  Biso   1.000  H
  H105     1.0000 0.12880  0.19170  0.40610  Biso   1.000  H
  C87      1.0000 0.85750  0.01360  0.45700  Biso   1.000  C
  C88      1.0000 0.02000  0.12570  0.47640  Biso   1.000  C
  C89      1.0000 0.74940  0.94610  0.42480  Biso   1.000  C
  H106     1.0000 0.73170  0.92270  0.41340  Biso   1.000  H
  H107     1.0000 0.72760  0.96950  0.41440  Biso   1.000  H
  H108     1.0000 0.72950  0.94500  0.44650  Biso   1.000  H
  C90      1.0000 0.96880  0.96820  0.43370  Biso   1.000  C
  N31      1.0000 0.83070  0.07640  0.47100  Biso   1.000  N
  N32      1.0000 0.79810  0.05160  0.49290  Biso   1.000  N
  N33      1.0000 0.97020  0.16430  0.44050  Biso   1.000  N
  N34      1.0000 0.89030  0.92150  0.41060  Biso   1.000  N
  N35      1.0000 0.96810  0.93430  0.41650  Biso   1.000  N
  N36      1.0000 0.95070  0.14500  0.46810  Biso   1.000  N
  O56      1.0000 0.69670  0.13400  0.48870  Biso   1.000  O
  O57      1.0000 0.68040  0.09880  0.60376  Biso   1.000  O
  O58      1.0000 0.70690  0.08370  0.54180  Biso   1.000  O
  O59      1.0000 0.71910  0.02510  0.58780  Biso   1.000  O
  O60      1.0000 0.81720  0.15980  0.59680  Biso   1.000  O
  O61      1.0000 0.83950  0.08500  0.59279  Biso   1.000  O
  O62      1.0000 0.55360  0.03500  0.59773  Biso   1.000  O
  O63      1.0000 0.68200  0.15070  0.45140  Biso   1.000  O
  O64      1.0000 0.69390  0.15900  0.55213  Biso   1.000  O
  O65      1.0000 0.84340  0.12760  0.53270  Biso   1.000  O
  Co6      1.0000 0.82734  0.13794  0.48134  Biso   1.000  Co
  Mo16     1.0000 0.78053  0.12255  0.56336  Biso   1.000  Mo
  Mo17     1.0000 0.77980  0.04779  0.62239  Biso   1.000  Mo
  Mo18     1.0000 0.63049  0.04800  0.56533  Biso   1.000  Mo
  O66      1.0000 0.61200  0.13950  0.43070  Biso   1.000  O
  C91      1.0000 0.58370  0.63300  0.45410  Biso   1.000  C
  C92      1.0000 0.52230  0.59960  0.50620  Biso   1.000  C
  H109     1.0000 0.46950  0.60050  0.51670  Biso   1.000  H
  H110     1.0000 0.56440  0.60920  0.52050  Biso   1.000  H
  H111     1.0000 0.53450  0.57260  0.50010  Biso   1.000  H
  C93      1.0000 0.31290  0.51330  0.48580  Biso   1.000  C
  C94      1.0000 0.36740  0.55300  0.44870  Biso   1.000  C
  C95      1.0000 0.34130  0.44800  0.42490  Biso   1.000  C
  C96      1.0000 0.54780  0.48640  0.44450  Biso   1.000  C
  H112     1.0000 0.59340  0.47150  0.43580  Biso   1.000  H
  H113     1.0000 0.55050  0.48610  0.46750  Biso   1.000  H
  H114     1.0000 0.55070  0.51350  0.43700  Biso   1.000  H
  C97      1.0000 0.28080  0.48040  0.50640  Biso   1.000  C
  H115     1.0000 0.25240  0.49140  0.52460  Biso   1.000  H
  H116     1.0000 0.32610  0.46420  0.51370  Biso   1.000  H
  H117     1.0000 0.24310  0.46420  0.49410  Biso   1.000  H
  C98      1.0000 0.54890  0.65770  0.43110  Biso   1.000  C
  C99      1.0000 0.41100  0.57000  0.41970  Biso   1.000  C
  H118     1.0000 0.40850  0.59860  0.42040  Biso   1.000  H
  H119     1.0000 0.38440  0.56060  0.40050  Biso   1.000  H
  H120     1.0000 0.46780  0.56160  0.41970  Biso   1.000  H
  C100     1.0000 0.38800  0.47850  0.43940  Biso   1.000  C
  C101     1.0000 0.58170  0.67530  0.40110  Biso   1.000  C
  H121     1.0000 0.53970  0.69140  0.39120  Biso   1.000  H
  H122     1.0000 0.59810  0.65440  0.38670  Biso   1.000  H
  H123     1.0000 0.62880  0.69170  0.40610  Biso   1.000  H
  C102     1.0000 0.35750  0.51360  0.45700  Biso   1.000  C
  C103     1.0000 0.52000  0.62570  0.47640  Biso   1.000  C
  C104     1.0000 0.24940  0.44610  0.42480  Biso   1.000  C
  H124     1.0000 0.23170  0.42270  0.41340  Biso   1.000  H
  H125     1.0000 0.22760  0.46950  0.41440  Biso   1.000  H
  H126     1.0000 0.22950  0.44500  0.44650  Biso   1.000  H
  C105     1.0000 0.46880  0.46820  0.43370  Biso   1.000  C
  N37      1.0000 0.33070  0.57640  0.47100  Biso   1.000  N
  N38      1.0000 0.29810  0.55160  0.49290  Biso   1.000  N
  N39      1.0000 0.47020  0.66430  0.44050  Biso   1.000  N
  N40      1.0000 0.39030  0.42150  0.41060  Biso   1.000  N
  N41      1.0000 0.46810  0.43430  0.41650  Biso   1.000  N
  N42      1.0000 0.45070  0.64500  0.46810  Biso   1.000  N
  O67      1.0000 0.19670  0.63400  0.48870  Biso   1.000  O
  O68      1.0000 0.18040  0.59880  0.60376  Biso   1.000  O
  O69      1.0000 0.20690  0.58370  0.54180  Biso   1.000  O
  O70      1.0000 0.21910  0.52510  0.58780  Biso   1.000  O
  O71      1.0000 0.31720  0.65980  0.59680  Biso   1.000  O
  O72      1.0000 0.33950  0.58500  0.59279  Biso   1.000  O
  O73      1.0000 0.05360  0.53500  0.59773  Biso   1.000  O
  O74      1.0000 0.18200  0.65070  0.45140  Biso   1.000  O
  O75      1.0000 0.19390  0.65900  0.55213  Biso   1.000  O
  O76      1.0000 0.34340  0.62760  0.53270  Biso   1.000  O
  Co7      1.0000 0.32734  0.63794  0.48134  Biso   1.000  Co
  Mo19     1.0000 0.28053  0.62255  0.56336  Biso   1.000  Mo
  Mo20     1.0000 0.27980  0.54779  0.62239  Biso   1.000  Mo
  Mo21     1.0000 0.13049  0.54800  0.56533  Biso   1.000  Mo
  O77      1.0000 0.11200  0.63950  0.43070  Biso   1.000  O
  C106     1.0000 0.58370  0.13300  0.95410  Biso   1.000  C
  C107     1.0000 0.52230  0.09960  0.00620  Biso   1.000  C
  H127     1.0000 0.46950  0.10050  0.01670  Biso   1.000  H
  H128     1.0000 0.56440  0.10920  0.02050  Biso   1.000  H
  H129     1.0000 0.53450  0.07260  0.00010  Biso   1.000  H
  C108     1.0000 0.31290  0.01330  0.98580  Biso   1.000  C
  C109     1.0000 0.36740  0.05300  0.94870  Biso   1.000  C
  C110     1.0000 0.34130  0.94800  0.92490  Biso   1.000  C
  C111     1.0000 0.54780  0.98640  0.94450  Biso   1.000  C
  H130     1.0000 0.59340  0.97150  0.93580  Biso   1.000  H
  H131     1.0000 0.55050  0.98610  0.96750  Biso   1.000  H
  H132     1.0000 0.55070  0.01350  0.93700  Biso   1.000  H
  C112     1.0000 0.28080  0.98040  0.00640  Biso   1.000  C
  H133     1.0000 0.25240  0.99140  0.02460  Biso   1.000  H
  H134     1.0000 0.32610  0.96420  0.01370  Biso   1.000  H
  H135     1.0000 0.24310  0.96420  0.99410  Biso   1.000  H
  C113     1.0000 0.54890  0.15770  0.93110  Biso   1.000  C
  C114     1.0000 0.41100  0.07000  0.91970  Biso   1.000  C
  H136     1.0000 0.40850  0.09860  0.92040  Biso   1.000  H
  H137     1.0000 0.38440  0.06060  0.90050  Biso   1.000  H
  H138     1.0000 0.46780  0.06160  0.91970  Biso   1.000  H
  C115     1.0000 0.38800  0.97850  0.93940  Biso   1.000  C
  C116     1.0000 0.58170  0.17530  0.90110  Biso   1.000  C
  H139     1.0000 0.53970  0.19140  0.89120  Biso   1.000  H
  H140     1.0000 0.59810  0.15440  0.88670  Biso   1.000  H
  H141     1.0000 0.62880  0.19170  0.90610  Biso   1.000  H
  C117     1.0000 0.35750  0.01360  0.95700  Biso   1.000  C
  C118     1.0000 0.52000  0.12570  0.97640  Biso   1.000  C
  C119     1.0000 0.24940  0.94610  0.92480  Biso   1.000  C
  H142     1.0000 0.23170  0.92270  0.91340  Biso   1.000  H
  H143     1.0000 0.22760  0.96950  0.91440  Biso   1.000  H
  H144     1.0000 0.22950  0.94500  0.94650  Biso   1.000  H
  C120     1.0000 0.46880  0.96820  0.93370  Biso   1.000  C
  N43      1.0000 0.33070  0.07640  0.97100  Biso   1.000  N
  N44      1.0000 0.29810  0.05160  0.99290  Biso   1.000  N
  N45      1.0000 0.47020  0.16430  0.94050  Biso   1.000  N
  N46      1.0000 0.39030  0.92150  0.91060  Biso   1.000  N
  N47      1.0000 0.46810  0.93430  0.91650  Biso   1.000  N
  N48      1.0000 0.45070  0.14500  0.96810  Biso   1.000  N
  O78      1.0000 0.19670  0.13400  0.98870  Biso   1.000  O
  O79      1.0000 0.18040  0.09880  0.10376  Biso   1.000  O
  O80      1.0000 0.20690  0.08370  0.04180  Biso   1.000  O
  O81      1.0000 0.21910  0.02510  0.08780  Biso   1.000  O
  O82      1.0000 0.31720  0.15980  0.09680  Biso   1.000  O
  O83      1.0000 0.33950  0.08500  0.09279  Biso   1.000  O
  O84      1.0000 0.05360  0.03500  0.09773  Biso   1.000  O
  O85      1.0000 0.18200  0.15070  0.95140  Biso   1.000  O
  O86      1.0000 0.19390  0.15900  0.05213  Biso   1.000  O
  O87      1.0000 0.34340  0.12760  0.03270  Biso   1.000  O
  Co8      1.0000 0.32734  0.13794  0.98134  Biso   1.000  Co
  Mo22     1.0000 0.28053  0.12255  0.06336  Biso   1.000  Mo
  Mo23     1.0000 0.27980  0.04779  0.12239  Biso   1.000  Mo
  Mo24     1.0000 0.13049  0.04800  0.06533  Biso   1.000  Mo
  O88      1.0000 0.11200  0.13950  0.93070  Biso   1.000  O
  C121     1.0000 0.08370  0.11700  0.79590  Biso   1.000  C
  C122     1.0000 0.02230  0.15040  0.74380  Biso   1.000  C
  H145     1.0000 0.96950  0.14950  0.73330  Biso   1.000  H
  H146     1.0000 0.06440  0.14080  0.72950  Biso   1.000  H
  H147     1.0000 0.03450  0.17740  0.74990  Biso   1.000  H
  C123     1.0000 0.81290  0.23670  0.76420  Biso   1.000  C
  C124     1.0000 0.86740  0.19700  0.80130  Biso   1.000  C
  C125     1.0000 0.84130  0.30200  0.82510  Biso   1.000  C
  C126     1.0000 0.04780  0.26360  0.80550  Biso   1.000  C
  H148     1.0000 0.09340  0.27850  0.81420  Biso   1.000  H
  H149     1.0000 0.05050  0.26390  0.78250  Biso   1.000  H
  H150     1.0000 0.05070  0.23650  0.81300  Biso   1.000  H
  C127     1.0000 0.78080  0.26960  0.74360  Biso   1.000  C
  H151     1.0000 0.75240  0.25860  0.72540  Biso   1.000  H
  H152     1.0000 0.82610  0.28580  0.73630  Biso   1.000  H
  H153     1.0000 0.74310  0.28580  0.75590  Biso   1.000  H
  C128     1.0000 0.04890  0.09230  0.81890  Biso   1.000  C
  C129     1.0000 0.91100  0.18000  0.83030  Biso   1.000  C
  H154     1.0000 0.90850  0.15140  0.82960  Biso   1.000  H
  H155     1.0000 0.88440  0.18940  0.84950  Biso   1.000  H
  H156     1.0000 0.96780  0.18840  0.83030  Biso   1.000  H
  C130     1.0000 0.88800  0.27150  0.81060  Biso   1.000  C
  C131     1.0000 0.08170  0.07470  0.84890  Biso   1.000  C
  H157     1.0000 0.03970  0.05860  0.85880  Biso   1.000  H
  H158     1.0000 0.09810  0.09560  0.86330  Biso   1.000  H
  H159     1.0000 0.12880  0.05830  0.84390  Biso   1.000  H
  C132     1.0000 0.85750  0.23640  0.79300  Biso   1.000  C
  C133     1.0000 0.02000  0.12430  0.77360  Biso   1.000  C
  C134     1.0000 0.74940  0.30390  0.82520  Biso   1.000  C
  H160     1.0000 0.73170  0.32730  0.83660  Biso   1.000  H
  H161     1.0000 0.72760  0.28050  0.83560  Biso   1.000  H
  H162     1.0000 0.72950  0.30500  0.80350  Biso   1.000  H
  C135     1.0000 0.96880  0.28180  0.81630  Biso   1.000  C
  N49      1.0000 0.83070  0.17360  0.77900  Biso   1.000  N
  N50      1.0000 0.79810  0.19840  0.75710  Biso   1.000  N
  N51      1.0000 0.97020  0.08570  0.80950  Biso   1.000  N
  N52      1.0000 0.89030  0.32850  0.83940  Biso   1.000  N
  N53      1.0000 0.96810  0.31570  0.83350  Biso   1.000  N
  N54      1.0000 0.95070  0.10500  0.78190  Biso   1.000  N
  O89      1.0000 0.69670  0.11600  0.76130  Biso   1.000  O
  O90      1.0000 0.68040  0.15120  0.64624  Biso   1.000  O
  O91      1.0000 0.70690  0.16630  0.70820  Biso   1.000  O
  O92      1.0000 0.71910  0.22490  0.66220  Biso   1.000  O
  O93      1.0000 0.81720  0.09020  0.65320  Biso   1.000  O
  O94      1.0000 0.83950  0.16500  0.65721  Biso   1.000  O
  O95      1.0000 0.55360  0.21500  0.65227  Biso   1.000  O
  O96      1.0000 0.68200  0.09930  0.79860  Biso   1.000  O
  O97      1.0000 0.69390  0.09100  0.69787  Biso   1.000  O
  O98      1.0000 0.84340  0.12240  0.71730  Biso   1.000  O
  Co9      1.0000 0.82734  0.11206  0.76866  Biso   1.000  Co
  Mo25     1.0000 0.78053  0.12745  0.68664  Biso   1.000  Mo
  Mo26     1.0000 0.77980  0.20221  0.62761  Biso   1.000  Mo
  Mo27     1.0000 0.63049  0.20200  0.68467  Biso   1.000  Mo
  O99      1.0000 0.61200  0.11050  0.81930  Biso   1.000  O
  C136     1.0000 0.08370  0.61700  0.29590  Biso   1.000  C
  C137     1.0000 0.02230  0.65040  0.24380  Biso   1.000  C
  H163     1.0000 0.96950  0.64950  0.23330  Biso   1.000  H
  H164     1.0000 0.06440  0.64080  0.22950  Biso   1.000  H
  H165     1.0000 0.03450  0.67740  0.24990  Biso   1.000  H
  C138     1.0000 0.81290  0.73670  0.26420  Biso   1.000  C
  C139     1.0000 0.86740  0.69700  0.30130  Biso   1.000  C
  C140     1.0000 0.84130  0.80200  0.32510  Biso   1.000  C
  C141     1.0000 0.04780  0.76360  0.30550  Biso   1.000  C
  H166     1.0000 0.09340  0.77850  0.31420  Biso   1.000  H
  H167     1.0000 0.05050  0.76390  0.28250  Biso   1.000  H
  H168     1.0000 0.05070  0.73650  0.31300  Biso   1.000  H
  C142     1.0000 0.78080  0.76960  0.24360  Biso   1.000  C
  H169     1.0000 0.75240  0.75860  0.22540  Biso   1.000  H
  H170     1.0000 0.82610  0.78580  0.23630  Biso   1.000  H
  H171     1.0000 0.74310  0.78580  0.25590  Biso   1.000  H
  C143     1.0000 0.04890  0.59230  0.31890  Biso   1.000  C
  C144     1.0000 0.91100  0.68000  0.33030  Biso   1.000  C
  H172     1.0000 0.90850  0.65140  0.32960  Biso   1.000  H
  H173     1.0000 0.88440  0.68940  0.34950  Biso   1.000  H
  H174     1.0000 0.96780  0.68840  0.33030  Biso   1.000  H
  C145     1.0000 0.88800  0.77150  0.31060  Biso   1.000  C
  C146     1.0000 0.08170  0.57470  0.34890  Biso   1.000  C
  H175     1.0000 0.03970  0.55860  0.35880  Biso   1.000  H
  H176     1.0000 0.09810  0.59560  0.36330  Biso   1.000  H
  H177     1.0000 0.12880  0.55830  0.34390  Biso   1.000  H
  C147     1.0000 0.85750  0.73640  0.29300  Biso   1.000  C
  C148     1.0000 0.02000  0.62430  0.27360  Biso   1.000  C
  C149     1.0000 0.74940  0.80390  0.32520  Biso   1.000  C
  H178     1.0000 0.73170  0.82730  0.33660  Biso   1.000  H
  H179     1.0000 0.72760  0.78050  0.33560  Biso   1.000  H
  H180     1.0000 0.72950  0.80500  0.30350  Biso   1.000  H
  C150     1.0000 0.96880  0.78180  0.31630  Biso   1.000  C
  N55      1.0000 0.83070  0.67360  0.27900  Biso   1.000  N
  N56      1.0000 0.79810  0.69840  0.25710  Biso   1.000  N
  N57      1.0000 0.97020  0.58570  0.30950  Biso   1.000  N
  N58      1.0000 0.89030  0.82850  0.33940  Biso   1.000  N
  N59      1.0000 0.96810  0.81570  0.33350  Biso   1.000  N
  N60      1.0000 0.95070  0.60500  0.28190  Biso   1.000  N
  O100     1.0000 0.69670  0.61600  0.26130  Biso   1.000  O
  O101     1.0000 0.68040  0.65120  0.14624  Biso   1.000  O
  O102     1.0000 0.70690  0.66630  0.20820  Biso   1.000  O
  O103     1.0000 0.71910  0.72490  0.16220  Biso   1.000  O
  O104     1.0000 0.81720  0.59020  0.15320  Biso   1.000  O
  O105     1.0000 0.83950  0.66500  0.15721  Biso   1.000  O
  O106     1.0000 0.55360  0.71500  0.15227  Biso   1.000  O
  O107     1.0000 0.68200  0.59930  0.29860  Biso   1.000  O
  O108     1.0000 0.69390  0.59100  0.19787  Biso   1.000  O
  O109     1.0000 0.84340  0.62240  0.21730  Biso   1.000  O
  Co10     1.0000 0.82734  0.61206  0.26866  Biso   1.000  Co
  Mo28     1.0000 0.78053  0.62745  0.18664  Biso   1.000  Mo
  Mo29     1.0000 0.77980  0.70221  0.12761  Biso   1.000  Mo
  Mo30     1.0000 0.63049  0.70200  0.18467  Biso   1.000  Mo
  O110     1.0000 0.61200  0.61050  0.31930  Biso   1.000  O
  C151     1.0000 0.58370  0.11700  0.29590  Biso   1.000  C
  C152     1.0000 0.52230  0.15040  0.24380  Biso   1.000  C
  H181     1.0000 0.46950  0.14950  0.23330  Biso   1.000  H
  H182     1.0000 0.56440  0.14080  0.22950  Biso   1.000  H
  H183     1.0000 0.53450  0.17740  0.24990  Biso   1.000  H
  C153     1.0000 0.31290  0.23670  0.26420  Biso   1.000  C
  C154     1.0000 0.36740  0.19700  0.30130  Biso   1.000  C
  C155     1.0000 0.34130  0.30200  0.32510  Biso   1.000  C
  C156     1.0000 0.54780  0.26360  0.30550  Biso   1.000  C
  H184     1.0000 0.59340  0.27850  0.31420  Biso   1.000  H
  H185     1.0000 0.55050  0.26390  0.28250  Biso   1.000  H
  H186     1.0000 0.55070  0.23650  0.31300  Biso   1.000  H
  C157     1.0000 0.28080  0.26960  0.24360  Biso   1.000  C
  H187     1.0000 0.25240  0.25860  0.22540  Biso   1.000  H
  H188     1.0000 0.32610  0.28580  0.23630  Biso   1.000  H
  H189     1.0000 0.24310  0.28580  0.25590  Biso   1.000  H
  C158     1.0000 0.54890  0.09230  0.31890  Biso   1.000  C
  C159     1.0000 0.41100  0.18000  0.33030  Biso   1.000  C
  H190     1.0000 0.40850  0.15140  0.32960  Biso   1.000  H
  H191     1.0000 0.38440  0.18940  0.34950  Biso   1.000  H
  H192     1.0000 0.46780  0.18840  0.33030  Biso   1.000  H
  C160     1.0000 0.38800  0.27150  0.31060  Biso   1.000  C
  C161     1.0000 0.58170  0.07470  0.34890  Biso   1.000  C
  H193     1.0000 0.53970  0.05860  0.35880  Biso   1.000  H
  H194     1.0000 0.59810  0.09560  0.36330  Biso   1.000  H
  H195     1.0000 0.62880  0.05830  0.34390  Biso   1.000  H
  C162     1.0000 0.35750  0.23640  0.29300  Biso   1.000  C
  C163     1.0000 0.52000  0.12430  0.27360  Biso   1.000  C
  C164     1.0000 0.24940  0.30390  0.32520  Biso   1.000  C
  H196     1.0000 0.23170  0.32730  0.33660  Biso   1.000  H
  H197     1.0000 0.22760  0.28050  0.33560  Biso   1.000  H
  H198     1.0000 0.22950  0.30500  0.30350  Biso   1.000  H
  C165     1.0000 0.46880  0.28180  0.31630  Biso   1.000  C
  N61      1.0000 0.33070  0.17360  0.27900  Biso   1.000  N
  N62      1.0000 0.29810  0.19840  0.25710  Biso   1.000  N
  N63      1.0000 0.47020  0.08570  0.30950  Biso   1.000  N
  N64      1.0000 0.39030  0.32850  0.33940  Biso   1.000  N
  N65      1.0000 0.46810  0.31570  0.33350  Biso   1.000  N
  N66      1.0000 0.45070  0.10500  0.28190  Biso   1.000  N
  O111     1.0000 0.19670  0.11600  0.26130  Biso   1.000  O
  O112     1.0000 0.18040  0.15120  0.14624  Biso   1.000  O
  O113     1.0000 0.20690  0.16630  0.20820  Biso   1.000  O
  O114     1.0000 0.21910  0.22490  0.16220  Biso   1.000  O
  O115     1.0000 0.31720  0.09020  0.15320  Biso   1.000  O
  O116     1.0000 0.33950  0.16500  0.15721  Biso   1.000  O
  O117     1.0000 0.05360  0.21500  0.15227  Biso   1.000  O
  O118     1.0000 0.18200  0.09930  0.29860  Biso   1.000  O
  O119     1.0000 0.19390  0.09100  0.19787  Biso   1.000  O
  O120     1.0000 0.34340  0.12240  0.21730  Biso   1.000  O
  Co11     1.0000 0.32734  0.11206  0.26866  Biso   1.000  Co
  Mo31     1.0000 0.28053  0.12745  0.18664  Biso   1.000  Mo
  Mo32     1.0000 0.27980  0.20221  0.12761  Biso   1.000  Mo
  Mo33     1.0000 0.13049  0.20200  0.18467  Biso   1.000  Mo
  O121     1.0000 0.11200  0.11050  0.31930  Biso   1.000  O
  C166     1.0000 0.58370  0.61700  0.79590  Biso   1.000  C
  C167     1.0000 0.52230  0.65040  0.74380  Biso   1.000  C
  H199     1.0000 0.46950  0.64950  0.73330  Biso   1.000  H
  H200     1.0000 0.56440  0.64080  0.72950  Biso   1.000  H
  H201     1.0000 0.53450  0.67740  0.74990  Biso   1.000  H
  C168     1.0000 0.31290  0.73670  0.76420  Biso   1.000  C
  C169     1.0000 0.36740  0.69700  0.80130  Biso   1.000  C
  C170     1.0000 0.34130  0.80200  0.82510  Biso   1.000  C
  C171     1.0000 0.54780  0.76360  0.80550  Biso   1.000  C
  H202     1.0000 0.59340  0.77850  0.81420  Biso   1.000  H
  H203     1.0000 0.55050  0.76390  0.78250  Biso   1.000  H
  H204     1.0000 0.55070  0.73650  0.81300  Biso   1.000  H
  C172     1.0000 0.28080  0.76960  0.74360  Biso   1.000  C
  H205     1.0000 0.25240  0.75860  0.72540  Biso   1.000  H
  H206     1.0000 0.32610  0.78580  0.73630  Biso   1.000  H
  H207     1.0000 0.24310  0.78580  0.75590  Biso   1.000  H
  C173     1.0000 0.54890  0.59230  0.81890  Biso   1.000  C
  C174     1.0000 0.41100  0.68000  0.83030  Biso   1.000  C
  H208     1.0000 0.40850  0.65140  0.82960  Biso   1.000  H
  H209     1.0000 0.38440  0.68940  0.84950  Biso   1.000  H
  H210     1.0000 0.46780  0.68840  0.83030  Biso   1.000  H
  C175     1.0000 0.38800  0.77150  0.81060  Biso   1.000  C
  C176     1.0000 0.58170  0.57470  0.84890  Biso   1.000  C
  H211     1.0000 0.53970  0.55860  0.85880  Biso   1.000  H
  H212     1.0000 0.59810  0.59560  0.86330  Biso   1.000  H
  H213     1.0000 0.62880  0.55830  0.84390  Biso   1.000  H
  C177     1.0000 0.35750  0.73640  0.79300  Biso   1.000  C
  C178     1.0000 0.52000  0.62430  0.77360  Biso   1.000  C
  C179     1.0000 0.24940  0.80390  0.82520  Biso   1.000  C
  H214     1.0000 0.23170  0.82730  0.83660  Biso   1.000  H
  H215     1.0000 0.22760  0.78050  0.83560  Biso   1.000  H
  H216     1.0000 0.22950  0.80500  0.80350  Biso   1.000  H
  C180     1.0000 0.46880  0.78180  0.81630  Biso   1.000  C
  N67      1.0000 0.33070  0.67360  0.77900  Biso   1.000  N
  N68      1.0000 0.29810  0.69840  0.75710  Biso   1.000  N
  N69      1.0000 0.47020  0.58570  0.80950  Biso   1.000  N
  N70      1.0000 0.39030  0.82850  0.83940  Biso   1.000  N
  N71      1.0000 0.46810  0.81570  0.83350  Biso   1.000  N
  N72      1.0000 0.45070  0.60500  0.78190  Biso   1.000  N
  O122     1.0000 0.19670  0.61600  0.76130  Biso   1.000  O
  O123     1.0000 0.18040  0.65120  0.64624  Biso   1.000  O
  O124     1.0000 0.20690  0.66630  0.70820  Biso   1.000  O
  O125     1.0000 0.21910  0.72490  0.66220  Biso   1.000  O
  O126     1.0000 0.31720  0.59020  0.65320  Biso   1.000  O
  O127     1.0000 0.33950  0.66500  0.65721  Biso   1.000  O
  O128     1.0000 0.05360  0.71500  0.65227  Biso   1.000  O
  O129     1.0000 0.18200  0.59930  0.79860  Biso   1.000  O
  O130     1.0000 0.19390  0.59100  0.69787  Biso   1.000  O
  O131     1.0000 0.34340  0.62240  0.71730  Biso   1.000  O
  Co12     1.0000 0.32734  0.61206  0.76866  Biso   1.000  Co
  Mo34     1.0000 0.28053  0.62745  0.68664  Biso   1.000  Mo
  Mo35     1.0000 0.27980  0.70221  0.62761  Biso   1.000  Mo
  Mo36     1.0000 0.13049  0.70200  0.68467  Biso   1.000  Mo
  O132     1.0000 0.11200  0.61050  0.81930  Biso   1.000  O
  C181     1.0000 0.66630  0.63300  0.79590  Biso   1.000  C
  C182     1.0000 0.72770  0.59960  0.74380  Biso   1.000  C
  H217     1.0000 0.78050  0.60050  0.73330  Biso   1.000  H
  H218     1.0000 0.68560  0.60920  0.72950  Biso   1.000  H
  H219     1.0000 0.71550  0.57260  0.74990  Biso   1.000  H
  C183     1.0000 0.93710  0.51330  0.76420  Biso   1.000  C
  C184     1.0000 0.88260  0.55300  0.80130  Biso   1.000  C
  C185     1.0000 0.90870  0.44800  0.82510  Biso   1.000  C
  C186     1.0000 0.70220  0.48640  0.80550  Biso   1.000  C
  H220     1.0000 0.65660  0.47150  0.81420  Biso   1.000  H
  H221     1.0000 0.69950  0.48610  0.78250  Biso   1.000  H
  H222     1.0000 0.69930  0.51350  0.81300  Biso   1.000  H
  C187     1.0000 0.96920  0.48040  0.74360  Biso   1.000  C
  H223     1.0000 0.99760  0.49140  0.72540  Biso   1.000  H
  H224     1.0000 0.92390  0.46420  0.73630  Biso   1.000  H
  H225     1.0000 0.00690  0.46420  0.75590  Biso   1.000  H
  C188     1.0000 0.70110  0.65770  0.81890  Biso   1.000  C
  C189     1.0000 0.83900  0.57000  0.83030  Biso   1.000  C
  H226     1.0000 0.84150  0.59860  0.82960  Biso   1.000  H
  H227     1.0000 0.86560  0.56060  0.84950  Biso   1.000  H
  H228     1.0000 0.78220  0.56160  0.83030  Biso   1.000  H
  C190     1.0000 0.86200  0.47850  0.81060  Biso   1.000  C
  C191     1.0000 0.66830  0.67530  0.84890  Biso   1.000  C
  H229     1.0000 0.71030  0.69140  0.85880  Biso   1.000  H
  H230     1.0000 0.65190  0.65440  0.86330  Biso   1.000  H
  H231     1.0000 0.62120  0.69170  0.84390  Biso   1.000  H
  C192     1.0000 0.89250  0.51360  0.79300  Biso   1.000  C
  C193     1.0000 0.73000  0.62570  0.77360  Biso   1.000  C
  C194     1.0000 0.00060  0.44610  0.82520  Biso   1.000  C
  H232     1.0000 0.01830  0.42270  0.83660  Biso   1.000  H
  H233     1.0000 0.02240  0.46950  0.83560  Biso   1.000  H
  H234     1.0000 0.02050  0.44500  0.80350  Biso   1.000  H
  C195     1.0000 0.78120  0.46820  0.81630  Biso   1.000  C
  N73      1.0000 0.91930  0.57640  0.77900  Biso   1.000  N
  N74      1.0000 0.95190  0.55160  0.75710  Biso   1.000  N
  N75      1.0000 0.77980  0.66430  0.80950  Biso   1.000  N
  N76      1.0000 0.85970  0.42150  0.83940  Biso   1.000  N
  N77      1.0000 0.78190  0.43430  0.83350  Biso   1.000  N
  N78      1.0000 0.79930  0.64500  0.78190  Biso   1.000  N
  O133     1.0000 0.05330  0.63400  0.76130  Biso   1.000  O
  O134     1.0000 0.06960  0.59880  0.64624  Biso   1.000  O
  O135     1.0000 0.04310  0.58370  0.70820  Biso   1.000  O
  O136     1.0000 0.03090  0.52510  0.66220  Biso   1.000  O
  O137     1.0000 0.93280  0.65980  0.65320  Biso   1.000  O
  O138     1.0000 0.91050  0.58500  0.65721  Biso   1.000  O
  O139     1.0000 0.19640  0.53500  0.65227  Biso   1.000  O
  O140     1.0000 0.06800  0.65070  0.79860  Biso   1.000  O
  O141     1.0000 0.05610  0.65900  0.69787  Biso   1.000  O
  O142     1.0000 0.90660  0.62760  0.71730  Biso   1.000  O
  Co13     1.0000 0.92266  0.63794  0.76866  Biso   1.000  Co
  Mo37     1.0000 0.96947  0.62255  0.68664  Biso   1.000  Mo
  Mo38     1.0000 0.97020  0.54779  0.62761  Biso   1.000  Mo
  Mo39     1.0000 0.11951  0.54800  0.68467  Biso   1.000  Mo
  O143     1.0000 0.13800  0.63950  0.81930  Biso   1.000  O
  C196     1.0000 0.66630  0.13300  0.29590  Biso   1.000  C
  C197     1.0000 0.72770  0.09960  0.24380  Biso   1.000  C
  H235     1.0000 0.78050  0.10050  0.23330  Biso   1.000  H
  H236     1.0000 0.68560  0.10920  0.22950  Biso   1.000  H
  H237     1.0000 0.71550  0.07260  0.24990  Biso   1.000  H
  C198     1.0000 0.93710  0.01330  0.26420  Biso   1.000  C
  C199     1.0000 0.88260  0.05300  0.30130  Biso   1.000  C
  C200     1.0000 0.90870  0.94800  0.32510  Biso   1.000  C
  C201     1.0000 0.70220  0.98640  0.30550  Biso   1.000  C
  H238     1.0000 0.65660  0.97150  0.31420  Biso   1.000  H
  H239     1.0000 0.69950  0.98610  0.28250  Biso   1.000  H
  H240     1.0000 0.69930  0.01350  0.31300  Biso   1.000  H
  C202     1.0000 0.96920  0.98040  0.24360  Biso   1.000  C
  H241     1.0000 0.99760  0.99140  0.22540  Biso   1.000  H
  H242     1.0000 0.92390  0.96420  0.23630  Biso   1.000  H
  H243     1.0000 0.00690  0.96420  0.25590  Biso   1.000  H
  C203     1.0000 0.70110  0.15770  0.31890  Biso   1.000  C
  C204     1.0000 0.83900  0.07000  0.33030  Biso   1.000  C
  H244     1.0000 0.84150  0.09860  0.32960  Biso   1.000  H
  H245     1.0000 0.86560  0.06060  0.34950  Biso   1.000  H
  H246     1.0000 0.78220  0.06160  0.33030  Biso   1.000  H
  C205     1.0000 0.86200  0.97850  0.31060  Biso   1.000  C
  C206     1.0000 0.66830  0.17530  0.34890  Biso   1.000  C
  H247     1.0000 0.71030  0.19140  0.35880  Biso   1.000  H
  H248     1.0000 0.65190  0.15440  0.36330  Biso   1.000  H
  H249     1.0000 0.62120  0.19170  0.34390  Biso   1.000  H
  C207     1.0000 0.89250  0.01360  0.29300  Biso   1.000  C
  C208     1.0000 0.73000  0.12570  0.27360  Biso   1.000  C
  C209     1.0000 0.00060  0.94610  0.32520  Biso   1.000  C
  H250     1.0000 0.01830  0.92270  0.33660  Biso   1.000  H
  H251     1.0000 0.02240  0.96950  0.33560  Biso   1.000  H
  H252     1.0000 0.02050  0.94500  0.30350  Biso   1.000  H
  C210     1.0000 0.78120  0.96820  0.31630  Biso   1.000  C
  N79      1.0000 0.91930  0.07640  0.27900  Biso   1.000  N
  N80      1.0000 0.95190  0.05160  0.25710  Biso   1.000  N
  N81      1.0000 0.77980  0.16430  0.30950  Biso   1.000  N
  N82      1.0000 0.85970  0.92150  0.33940  Biso   1.000  N
  N83      1.0000 0.78190  0.93430  0.33350  Biso   1.000  N
  N84      1.0000 0.79930  0.14500  0.28190  Biso   1.000  N
  O144     1.0000 0.05330  0.13400  0.26130  Biso   1.000  O
  O145     1.0000 0.06960  0.09880  0.14624  Biso   1.000  O
  O146     1.0000 0.04310  0.08370  0.20820  Biso   1.000  O
  O147     1.0000 0.03090  0.02510  0.16220  Biso   1.000  O
  O148     1.0000 0.93280  0.15980  0.15320  Biso   1.000  O
  O149     1.0000 0.91050  0.08500  0.15721  Biso   1.000  O
  O150     1.0000 0.19640  0.03500  0.15227  Biso   1.000  O
  O151     1.0000 0.06800  0.15070  0.29860  Biso   1.000  O
  O152     1.0000 0.05610  0.15900  0.19787  Biso   1.000  O
  O153     1.0000 0.90660  0.12760  0.21730  Biso   1.000  O
  Co14     1.0000 0.92266  0.13794  0.26866  Biso   1.000  Co
  Mo40     1.0000 0.96947  0.12255  0.18664  Biso   1.000  Mo
  Mo41     1.0000 0.97020  0.04779  0.12761  Biso   1.000  Mo
  Mo42     1.0000 0.11951  0.04800  0.18467  Biso   1.000  Mo
  O154     1.0000 0.13800  0.13950  0.31930  Biso   1.000  O
  C211     1.0000 0.16630  0.63300  0.29590  Biso   1.000  C
  C212     1.0000 0.22770  0.59960  0.24380  Biso   1.000  C
  H253     1.0000 0.28050  0.60050  0.23330  Biso   1.000  H
  H254     1.0000 0.18560  0.60920  0.22950  Biso   1.000  H
  H255     1.0000 0.21550  0.57260  0.24990  Biso   1.000  H
  C213     1.0000 0.43710  0.51330  0.26420  Biso   1.000  C
  C214     1.0000 0.38260  0.55300  0.30130  Biso   1.000  C
  C215     1.0000 0.40870  0.44800  0.32510  Biso   1.000  C
  C216     1.0000 0.20220  0.48640  0.30550  Biso   1.000  C
  H256     1.0000 0.15660  0.47150  0.31420  Biso   1.000  H
  H257     1.0000 0.19950  0.48610  0.28250  Biso   1.000  H
  H258     1.0000 0.19930  0.51350  0.31300  Biso   1.000  H
  C217     1.0000 0.46920  0.48040  0.24360  Biso   1.000  C
  H259     1.0000 0.49760  0.49140  0.22540  Biso   1.000  H
  H260     1.0000 0.42390  0.46420  0.23630  Biso   1.000  H
  H261     1.0000 0.50690  0.46420  0.25590  Biso   1.000  H
  C218     1.0000 0.20110  0.65770  0.31890  Biso   1.000  C
  C219     1.0000 0.33900  0.57000  0.33030  Biso   1.000  C
  H262     1.0000 0.34150  0.59860  0.32960  Biso   1.000  H
  H263     1.0000 0.36560  0.56060  0.34950  Biso   1.000  H
  H264     1.0000 0.28220  0.56160  0.33030  Biso   1.000  H
  C220     1.0000 0.36200  0.47850  0.31060  Biso   1.000  C
  C221     1.0000 0.16830  0.67530  0.34890  Biso   1.000  C
  H265     1.0000 0.21030  0.69140  0.35880  Biso   1.000  H
  H266     1.0000 0.15190  0.65440  0.36330  Biso   1.000  H
  H267     1.0000 0.12120  0.69170  0.34390  Biso   1.000  H
  C222     1.0000 0.39250  0.51360  0.29300  Biso   1.000  C
  C223     1.0000 0.23000  0.62570  0.27360  Biso   1.000  C
  C224     1.0000 0.50060  0.44610  0.32520  Biso   1.000  C
  H268     1.0000 0.51830  0.42270  0.33660  Biso   1.000  H
  H269     1.0000 0.52240  0.46950  0.33560  Biso   1.000  H
  H270     1.0000 0.52050  0.44500  0.30350  Biso   1.000  H
  C225     1.0000 0.28120  0.46820  0.31630  Biso   1.000  C
  N85      1.0000 0.41930  0.57640  0.27900  Biso   1.000  N
  N86      1.0000 0.45190  0.55160  0.25710  Biso   1.000  N
  N87      1.0000 0.27980  0.66430  0.30950  Biso   1.000  N
  N88      1.0000 0.35970  0.42150  0.33940  Biso   1.000  N
  N89      1.0000 0.28190  0.43430  0.33350  Biso   1.000  N
  N90      1.0000 0.29930  0.64500  0.28190  Biso   1.000  N
  O155     1.0000 0.55330  0.63400  0.26130  Biso   1.000  O
  O156     1.0000 0.56960  0.59880  0.14624  Biso   1.000  O
  O157     1.0000 0.54310  0.58370  0.20820  Biso   1.000  O
  O158     1.0000 0.53090  0.52510  0.16220  Biso   1.000  O
  O159     1.0000 0.43280  0.65980  0.15320  Biso   1.000  O
  O160     1.0000 0.41050  0.58500  0.15721  Biso   1.000  O
  O161     1.0000 0.69640  0.53500  0.15227  Biso   1.000  O
  O162     1.0000 0.56800  0.65070  0.29860  Biso   1.000  O
  O163     1.0000 0.55610  0.65900  0.19787  Biso   1.000  O
  O164     1.0000 0.40660  0.62760  0.21730  Biso   1.000  O
  Co15     1.0000 0.42266  0.63794  0.26866  Biso   1.000  Co
  Mo43     1.0000 0.46947  0.62255  0.18664  Biso   1.000  Mo
  Mo44     1.0000 0.47020  0.54779  0.12761  Biso   1.000  Mo
  Mo45     1.0000 0.61951  0.54800  0.18467  Biso   1.000  Mo
  O165     1.0000 0.63800  0.63950  0.31930  Biso   1.000  O
  C226     1.0000 0.16630  0.13300  0.79590  Biso   1.000  C
  C227     1.0000 0.22770  0.09960  0.74380  Biso   1.000  C
  H271     1.0000 0.28050  0.10050  0.73330  Biso   1.000  H
  H272     1.0000 0.18560  0.10920  0.72950  Biso   1.000  H
  H273     1.0000 0.21550  0.07260  0.74990  Biso   1.000  H
  C228     1.0000 0.43710  0.01330  0.76420  Biso   1.000  C
  C229     1.0000 0.38260  0.05300  0.80130  Biso   1.000  C
  C230     1.0000 0.40870  0.94800  0.82510  Biso   1.000  C
  C231     1.0000 0.20220  0.98640  0.80550  Biso   1.000  C
  H274     1.0000 0.15660  0.97150  0.81420  Biso   1.000  H
  H275     1.0000 0.19950  0.98610  0.78250  Biso   1.000  H
  H276     1.0000 0.19930  0.01350  0.81300  Biso   1.000  H
  C232     1.0000 0.46920  0.98040  0.74360  Biso   1.000  C
  H277     1.0000 0.49760  0.99140  0.72540  Biso   1.000  H
  H278     1.0000 0.42390  0.96420  0.73630  Biso   1.000  H
  H279     1.0000 0.50690  0.96420  0.75590  Biso   1.000  H
  C233     1.0000 0.20110  0.15770  0.81890  Biso   1.000  C
  C234     1.0000 0.33900  0.07000  0.83030  Biso   1.000  C
  H280     1.0000 0.34150  0.09860  0.82960  Biso   1.000  H
  H281     1.0000 0.36560  0.06060  0.84950  Biso   1.000  H
  H282     1.0000 0.28220  0.06160  0.83030  Biso   1.000  H
  C235     1.0000 0.36200  0.97850  0.81060  Biso   1.000  C
  C236     1.0000 0.16830  0.17530  0.84890  Biso   1.000  C
  H283     1.0000 0.21030  0.19140  0.85880  Biso   1.000  H
  H284     1.0000 0.15190  0.15440  0.86330  Biso   1.000  H
  H285     1.0000 0.12120  0.19170  0.84390  Biso   1.000  H
  C237     1.0000 0.39250  0.01360  0.79300  Biso   1.000  C
  C238     1.0000 0.23000  0.12570  0.77360  Biso   1.000  C
  C239     1.0000 0.50060  0.94610  0.82520  Biso   1.000  C
  H286     1.0000 0.51830  0.92270  0.83660  Biso   1.000  H
  H287     1.0000 0.52240  0.96950  0.83560  Biso   1.000  H
  H288     1.0000 0.52050  0.94500  0.80350  Biso   1.000  H
  C240     1.0000 0.28120  0.96820  0.81630  Biso   1.000  C
  N91      1.0000 0.41930  0.07640  0.77900  Biso   1.000  N
  N92      1.0000 0.45190  0.05160  0.75710  Biso   1.000  N
  N93      1.0000 0.27980  0.16430  0.80950  Biso   1.000  N
  N94      1.0000 0.35970  0.92150  0.83940  Biso   1.000  N
  N95      1.0000 0.28190  0.93430  0.83350  Biso   1.000  N
  N96      1.0000 0.29930  0.14500  0.78190  Biso   1.000  N
  O166     1.0000 0.55330  0.13400  0.76130  Biso   1.000  O
  O167     1.0000 0.56960  0.09880  0.64624  Biso   1.000  O
  O168     1.0000 0.54310  0.08370  0.70820  Biso   1.000  O
  O169     1.0000 0.53090  0.02510  0.66220  Biso   1.000  O
  O170     1.0000 0.43280  0.15980  0.65320  Biso   1.000  O
  O171     1.0000 0.41050  0.08500  0.65721  Biso   1.000  O
  O172     1.0000 0.69640  0.03500  0.65227  Biso   1.000  O
  O173     1.0000 0.56800  0.15070  0.79860  Biso   1.000  O
  O174     1.0000 0.55610  0.15900  0.69787  Biso   1.000  O
  O175     1.0000 0.40660  0.12760  0.71730  Biso   1.000  O
  Co16     1.0000 0.42266  0.13794  0.76866  Biso   1.000  Co
  Mo46     1.0000 0.46947  0.12255  0.68664  Biso   1.000  Mo
  Mo47     1.0000 0.47020  0.04779  0.62761  Biso   1.000  Mo
  Mo48     1.0000 0.61951  0.04800  0.68467  Biso   1.000  Mo
  O176     1.0000 0.63800  0.13950  0.81930  Biso   1.000  O
  V1       1.0000 0.87529  0.12500  0.12500  Biso   1.000  V
  V2       1.0000 0.37529  0.12500  0.62500  Biso   1.000  V
  V3       1.0000 0.87471  0.62500  0.12500  Biso   1.000  V
  V4       1.0000 0.37471  0.62500  0.62500  Biso   1.000  V
  V5       1.0000 0.87471  0.12500  0.62500  Biso   1.000  V
  V6       1.0000 0.37471  0.12500  0.12500  Biso   1.000  V
  V7       1.0000 0.87529  0.62500  0.62500  Biso   1.000  V
  V8       1.0000 0.37529  0.62500  0.12500  Biso   1.000  V
  P1       1.0000 0.12500  0.12500  0.12500  Biso   1.000  P
  P2       1.0000 0.62500  0.62500  0.12500  Biso   1.000  P
  P3       1.0000 0.62500  0.12500  0.62500  Biso   1.000  P
  P4       1.0000 0.12500  0.62500  0.62500  Biso   1.000  P
  V9       1.0000 0.12500  0.12500  0.02629  Biso   1.000  V
  S1       1.0000 0.12500  0.12500  0.96110  Biso   1.000  S
  V10      1.0000 0.12500  0.62500  0.52629  Biso   1.000  V
  S2       1.0000 0.12500  0.62500  0.46110  Biso   1.000  S
  V11      1.0000 0.62500  0.62500  0.02629  Biso   1.000  V
  S3       1.0000 0.62500  0.62500  0.96110  Biso   1.000  S
  V12      1.0000 0.62500  0.12500  0.52629  Biso   1.000  V
  S4       1.0000 0.62500  0.12500  0.46110  Biso   1.000  S
  V13      1.0000 0.62500  0.12500  0.72371  Biso   1.000  V
  S5       1.0000 0.62500  0.12500  0.78890  Biso   1.000  S
  V14      1.0000 0.62500  0.62500  0.22371  Biso   1.000  V
  S6       1.0000 0.62500  0.62500  0.28890  Biso   1.000  S
  V15      1.0000 0.12500  0.62500  0.72371  Biso   1.000  V
  S7       1.0000 0.12500  0.62500  0.78890  Biso   1.000  S
  V16      1.0000 0.12500  0.12500  0.22371  Biso   1.000  V
  S8       1.0000 0.12500  0.12500  0.28890  Biso   1.000  S
  Co17     1.0000 0.37500  0.87500  0.87500  Biso   1.000  Co
  Co18     1.0000 0.87500  0.37500  0.87500  Biso   1.000  Co
  Co19     1.0000 0.87500  0.87500  0.37500  Biso   1.000  Co
  Co20     1.0000 0.37500  0.37500  0.37500  Biso   1.000  Co
  C241     1.0000 0.33370  0.88300  0.04590  Biso   1.000  C
  C242     1.0000 0.27230  0.84960  0.99380  Biso   1.000  C
  H289     1.0000 0.21950  0.85050  0.98330  Biso   1.000  H
  H290     1.0000 0.31440  0.85920  0.97950  Biso   1.000  H
  H291     1.0000 0.28450  0.82260  0.99990  Biso   1.000  H
  C243     1.0000 0.06290  0.76330  0.01420  Biso   1.000  C
  C244     1.0000 0.11740  0.80300  0.05130  Biso   1.000  C
  C245     1.0000 0.09130  0.69800  0.07510  Biso   1.000  C
  C246     1.0000 0.29780  0.73640  0.05550  Biso   1.000  C
  H292     1.0000 0.34340  0.72150  0.06420  Biso   1.000  H
  H293     1.0000 0.30050  0.73610  0.03250  Biso   1.000  H
  H294     1.0000 0.30070  0.76350  0.06300  Biso   1.000  H
  C247     1.0000 0.03080  0.73040  0.99360  Biso   1.000  C
  H295     1.0000 0.00240  0.74140  0.97540  Biso   1.000  H
  H296     1.0000 0.07610  0.71420  0.98630  Biso   1.000  H
  H297     1.0000 0.99310  0.71420  0.00590  Biso   1.000  H
  C248     1.0000 0.29890  0.90770  0.06890  Biso   1.000  C
  C249     1.0000 0.16100  0.82000  0.08030  Biso   1.000  C
  H298     1.0000 0.15850  0.84860  0.07960  Biso   1.000  H
  H299     1.0000 0.13440  0.81060  0.09950  Biso   1.000  H
  H300     1.0000 0.21780  0.81160  0.08030  Biso   1.000  H
  C250     1.0000 0.13800  0.72850  0.06060  Biso   1.000  C
  C251     1.0000 0.33170  0.92530  0.09890  Biso   1.000  C
  H301     1.0000 0.28970  0.94140  0.10880  Biso   1.000  H
  H302     1.0000 0.34810  0.90440  0.11330  Biso   1.000  H
  H303     1.0000 0.37880  0.94170  0.09390  Biso   1.000  H
  C252     1.0000 0.10750  0.76360  0.04300  Biso   1.000  C
  C253     1.0000 0.27000  0.87570  0.02360  Biso   1.000  C
  C254     1.0000 0.99940  0.69610  0.07520  Biso   1.000  C
  H304     1.0000 0.98170  0.67270  0.08660  Biso   1.000  H
  H305     1.0000 0.97760  0.71950  0.08560  Biso   1.000  H
  H306     1.0000 0.97950  0.69500  0.05350  Biso   1.000  H
  C255     1.0000 0.21880  0.71820  0.06630  Biso   1.000  C
  N97      1.0000 0.08070  0.82640  0.02900  Biso   1.000  N
  N98      1.0000 0.04810  0.80160  0.00710  Biso   1.000  N
  N99      1.0000 0.22020  0.91430  0.05950  Biso   1.000  N
  N100     1.0000 0.14030  0.67150  0.08940  Biso   1.000  N
  N101     1.0000 0.21810  0.68430  0.08350  Biso   1.000  N
  N102     1.0000 0.20070  0.89500  0.03190  Biso   1.000  N
  O177     1.0000 0.94670  0.88400  0.01130  Biso   1.000  O
  O178     1.0000 0.93040  0.84880  0.89624  Biso   1.000  O
  O179     1.0000 0.95690  0.83370  0.95820  Biso   1.000  O
  O180     1.0000 0.96910  0.77510  0.91220  Biso   1.000  O
  O181     1.0000 0.06720  0.90980  0.90320  Biso   1.000  O
  O182     1.0000 0.08950  0.83500  0.90721  Biso   1.000  O
  O183     1.0000 0.80360  0.78500  0.90227  Biso   1.000  O
  O184     1.0000 0.93200  0.90070  0.04860  Biso   1.000  O
  O185     1.0000 0.94390  0.90900  0.94787  Biso   1.000  O
  O186     1.0000 0.09340  0.87760  0.96730  Biso   1.000  O
  Co21     1.0000 0.07734  0.88794  0.01866  Biso   1.000  Co
  Mo49     1.0000 0.03053  0.87255  0.93664  Biso   1.000  Mo
  Mo50     1.0000 0.02980  0.79779  0.87761  Biso   1.000  Mo
  Mo51     1.0000 0.88049  0.79800  0.93467  Biso   1.000  Mo
  O187     1.0000 0.86200  0.88950  0.06930  Biso   1.000  O
  C256     1.0000 0.33370  0.38300  0.54590  Biso   1.000  C
  C257     1.0000 0.27230  0.34960  0.49380  Biso   1.000  C
  H307     1.0000 0.21950  0.35050  0.48330  Biso   1.000  H
  H308     1.0000 0.31440  0.35920  0.47950  Biso   1.000  H
  H309     1.0000 0.28450  0.32260  0.49990  Biso   1.000  H
  C258     1.0000 0.06290  0.26330  0.51420  Biso   1.000  C
  C259     1.0000 0.11740  0.30300  0.55130  Biso   1.000  C
  C260     1.0000 0.09130  0.19800  0.57510  Biso   1.000  C
  C261     1.0000 0.29780  0.23640  0.55550  Biso   1.000  C
  H310     1.0000 0.34340  0.22150  0.56420  Biso   1.000  H
  H311     1.0000 0.30050  0.23610  0.53250  Biso   1.000  H
  H312     1.0000 0.30070  0.26350  0.56300  Biso   1.000  H
  C262     1.0000 0.03080  0.23040  0.49360  Biso   1.000  C
  H313     1.0000 0.00240  0.24140  0.47540  Biso   1.000  H
  H314     1.0000 0.07610  0.21420  0.48630  Biso   1.000  H
  H315     1.0000 0.99310  0.21420  0.50590  Biso   1.000  H
  C263     1.0000 0.29890  0.40770  0.56890  Biso   1.000  C
  C264     1.0000 0.16100  0.32000  0.58030  Biso   1.000  C
  H316     1.0000 0.15850  0.34860  0.57960  Biso   1.000  H
  H317     1.0000 0.13440  0.31060  0.59950  Biso   1.000  H
  H318     1.0000 0.21780  0.31160  0.58030  Biso   1.000  H
  C265     1.0000 0.13800  0.22850  0.56060  Biso   1.000  C
  C266     1.0000 0.33170  0.42530  0.59890  Biso   1.000  C
  H319     1.0000 0.28970  0.44140  0.60880  Biso   1.000  H
  H320     1.0000 0.34810  0.40440  0.61330  Biso   1.000  H
  H321     1.0000 0.37880  0.44170  0.59390  Biso   1.000  H
  C267     1.0000 0.10750  0.26360  0.54300  Biso   1.000  C
  C268     1.0000 0.27000  0.37570  0.52360  Biso   1.000  C
  C269     1.0000 0.99940  0.19610  0.57520  Biso   1.000  C
  H322     1.0000 0.98170  0.17270  0.58660  Biso   1.000  H
  H323     1.0000 0.97760  0.21950  0.58560  Biso   1.000  H
  H324     1.0000 0.97950  0.19500  0.55350  Biso   1.000  H
  C270     1.0000 0.21880  0.21820  0.56630  Biso   1.000  C
  N103     1.0000 0.08070  0.32640  0.52900  Biso   1.000  N
  N104     1.0000 0.04810  0.30160  0.50710  Biso   1.000  N
  N105     1.0000 0.22020  0.41430  0.55950  Biso   1.000  N
  N106     1.0000 0.14030  0.17150  0.58940  Biso   1.000  N
  N107     1.0000 0.21810  0.18430  0.58350  Biso   1.000  N
  N108     1.0000 0.20070  0.39500  0.53190  Biso   1.000  N
  O188     1.0000 0.94670  0.38400  0.51130  Biso   1.000  O
  O189     1.0000 0.93040  0.34880  0.39624  Biso   1.000  O
  O190     1.0000 0.95690  0.33370  0.45820  Biso   1.000  O
  O191     1.0000 0.96910  0.27510  0.41220  Biso   1.000  O
  O192     1.0000 0.06720  0.40980  0.40320  Biso   1.000  O
  O193     1.0000 0.08950  0.33500  0.40721  Biso   1.000  O
  O194     1.0000 0.80360  0.28500  0.40227  Biso   1.000  O
  O195     1.0000 0.93200  0.40070  0.54860  Biso   1.000  O
  O196     1.0000 0.94390  0.40900  0.44787  Biso   1.000  O
  O197     1.0000 0.09340  0.37760  0.46730  Biso   1.000  O
  Co22     1.0000 0.07734  0.38794  0.51866  Biso   1.000  Co
  Mo52     1.0000 0.03053  0.37255  0.43664  Biso   1.000  Mo
  Mo53     1.0000 0.02980  0.29779  0.37761  Biso   1.000  Mo
  Mo54     1.0000 0.88049  0.29800  0.43467  Biso   1.000  Mo
  O198     1.0000 0.86200  0.38950  0.56930  Biso   1.000  O
  C271     1.0000 0.83370  0.88300  0.54590  Biso   1.000  C
  C272     1.0000 0.77230  0.84960  0.49380  Biso   1.000  C
  H325     1.0000 0.71950  0.85050  0.48330  Biso   1.000  H
  H326     1.0000 0.81440  0.85920  0.47950  Biso   1.000  H
  H327     1.0000 0.78450  0.82260  0.49990  Biso   1.000  H
  C273     1.0000 0.56290  0.76330  0.51420  Biso   1.000  C
  C274     1.0000 0.61740  0.80300  0.55130  Biso   1.000  C
  C275     1.0000 0.59130  0.69800  0.57510  Biso   1.000  C
  C276     1.0000 0.79780  0.73640  0.55550  Biso   1.000  C
  H328     1.0000 0.84340  0.72150  0.56420  Biso   1.000  H
  H329     1.0000 0.80050  0.73610  0.53250  Biso   1.000  H
  H330     1.0000 0.80070  0.76350  0.56300  Biso   1.000  H
  C277     1.0000 0.53080  0.73040  0.49360  Biso   1.000  C
  H331     1.0000 0.50240  0.74140  0.47540  Biso   1.000  H
  H332     1.0000 0.57610  0.71420  0.48630  Biso   1.000  H
  H333     1.0000 0.49310  0.71420  0.50590  Biso   1.000  H
  C278     1.0000 0.79890  0.90770  0.56890  Biso   1.000  C
  C279     1.0000 0.66100  0.82000  0.58030  Biso   1.000  C
  H334     1.0000 0.65850  0.84860  0.57960  Biso   1.000  H
  H335     1.0000 0.63440  0.81060  0.59950  Biso   1.000  H
  H336     1.0000 0.71780  0.81160  0.58030  Biso   1.000  H
  C280     1.0000 0.63800  0.72850  0.56060  Biso   1.000  C
  C281     1.0000 0.83170  0.92530  0.59890  Biso   1.000  C
  H337     1.0000 0.78970  0.94140  0.60880  Biso   1.000  H
  H338     1.0000 0.84810  0.90440  0.61330  Biso   1.000  H
  H339     1.0000 0.87880  0.94170  0.59390  Biso   1.000  H
  C282     1.0000 0.60750  0.76360  0.54300  Biso   1.000  C
  C283     1.0000 0.77000  0.87570  0.52360  Biso   1.000  C
  C284     1.0000 0.49940  0.69610  0.57520  Biso   1.000  C
  H340     1.0000 0.48170  0.67270  0.58660  Biso   1.000  H
  H341     1.0000 0.47760  0.71950  0.58560  Biso   1.000  H
  H342     1.0000 0.47950  0.69500  0.55350  Biso   1.000  H
  C285     1.0000 0.71880  0.71820  0.56630  Biso   1.000  C
  N109     1.0000 0.58070  0.82640  0.52900  Biso   1.000  N
  N110     1.0000 0.54810  0.80160  0.50710  Biso   1.000  N
  N111     1.0000 0.72020  0.91430  0.55950  Biso   1.000  N
  N112     1.0000 0.64030  0.67150  0.58940  Biso   1.000  N
  N113     1.0000 0.71810  0.68430  0.58350  Biso   1.000  N
  N114     1.0000 0.70070  0.89500  0.53190  Biso   1.000  N
  O199     1.0000 0.44670  0.88400  0.51130  Biso   1.000  O
  O200     1.0000 0.43040  0.84880  0.39624  Biso   1.000  O
  O201     1.0000 0.45690  0.83370  0.45820  Biso   1.000  O
  O202     1.0000 0.46910  0.77510  0.41220  Biso   1.000  O
  O203     1.0000 0.56720  0.90980  0.40320  Biso   1.000  O
  O204     1.0000 0.58950  0.83500  0.40721  Biso   1.000  O
  O205     1.0000 0.30360  0.78500  0.40227  Biso   1.000  O
  O206     1.0000 0.43200  0.90070  0.54860  Biso   1.000  O
  O207     1.0000 0.44390  0.90900  0.44787  Biso   1.000  O
  O208     1.0000 0.59340  0.87760  0.46730  Biso   1.000  O
  Co23     1.0000 0.57734  0.88794  0.51866  Biso   1.000  Co
  Mo55     1.0000 0.53053  0.87255  0.43664  Biso   1.000  Mo
  Mo56     1.0000 0.52980  0.79779  0.37761  Biso   1.000  Mo
  Mo57     1.0000 0.38049  0.79800  0.43467  Biso   1.000  Mo
  O209     1.0000 0.36200  0.88950  0.56930  Biso   1.000  O
  C286     1.0000 0.83370  0.38300  0.04590  Biso   1.000  C
  C287     1.0000 0.77230  0.34960  0.99380  Biso   1.000  C
  H343     1.0000 0.71950  0.35050  0.98330  Biso   1.000  H
  H344     1.0000 0.81440  0.35920  0.97950  Biso   1.000  H
  H345     1.0000 0.78450  0.32260  0.99990  Biso   1.000  H
  C288     1.0000 0.56290  0.26330  0.01420  Biso   1.000  C
  C289     1.0000 0.61740  0.30300  0.05130  Biso   1.000  C
  C290     1.0000 0.59130  0.19800  0.07510  Biso   1.000  C
  C291     1.0000 0.79780  0.23640  0.05550  Biso   1.000  C
  H346     1.0000 0.84340  0.22150  0.06420  Biso   1.000  H
  H347     1.0000 0.80050  0.23610  0.03250  Biso   1.000  H
  H348     1.0000 0.80070  0.26350  0.06300  Biso   1.000  H
  C292     1.0000 0.53080  0.23040  0.99360  Biso   1.000  C
  H349     1.0000 0.50240  0.24140  0.97540  Biso   1.000  H
  H350     1.0000 0.57610  0.21420  0.98630  Biso   1.000  H
  H351     1.0000 0.49310  0.21420  0.00590  Biso   1.000  H
  C293     1.0000 0.79890  0.40770  0.06890  Biso   1.000  C
  C294     1.0000 0.66100  0.32000  0.08030  Biso   1.000  C
  H352     1.0000 0.65850  0.34860  0.07960  Biso   1.000  H
  H353     1.0000 0.63440  0.31060  0.09950  Biso   1.000  H
  H354     1.0000 0.71780  0.31160  0.08030  Biso   1.000  H
  C295     1.0000 0.63800  0.22850  0.06060  Biso   1.000  C
  C296     1.0000 0.83170  0.42530  0.09890  Biso   1.000  C
  H355     1.0000 0.78970  0.44140  0.10880  Biso   1.000  H
  H356     1.0000 0.84810  0.40440  0.11330  Biso   1.000  H
  H357     1.0000 0.87880  0.44170  0.09390  Biso   1.000  H
  C297     1.0000 0.60750  0.26360  0.04300  Biso   1.000  C
  C298     1.0000 0.77000  0.37570  0.02360  Biso   1.000  C
  C299     1.0000 0.49940  0.19610  0.07520  Biso   1.000  C
  H358     1.0000 0.48170  0.17270  0.08660  Biso   1.000  H
  H359     1.0000 0.47760  0.21950  0.08560  Biso   1.000  H
  H360     1.0000 0.47950  0.19500  0.05350  Biso   1.000  H
  C300     1.0000 0.71880  0.21820  0.06630  Biso   1.000  C
  N115     1.0000 0.58070  0.32640  0.02900  Biso   1.000  N
  N116     1.0000 0.54810  0.30160  0.00710  Biso   1.000  N
  N117     1.0000 0.72020  0.41430  0.05950  Biso   1.000  N
  N118     1.0000 0.64030  0.17150  0.08940  Biso   1.000  N
  N119     1.0000 0.71810  0.18430  0.08350  Biso   1.000  N
  N120     1.0000 0.70070  0.39500  0.03190  Biso   1.000  N
  O210     1.0000 0.44670  0.38400  0.01130  Biso   1.000  O
  O211     1.0000 0.43040  0.34880  0.89624  Biso   1.000  O
  O212     1.0000 0.45690  0.33370  0.95820  Biso   1.000  O
  O213     1.0000 0.46910  0.27510  0.91220  Biso   1.000  O
  O214     1.0000 0.56720  0.40980  0.90320  Biso   1.000  O
  O215     1.0000 0.58950  0.33500  0.90721  Biso   1.000  O
  O216     1.0000 0.30360  0.28500  0.90227  Biso   1.000  O
  O217     1.0000 0.43200  0.40070  0.04860  Biso   1.000  O
  O218     1.0000 0.44390  0.40900  0.94787  Biso   1.000  O
  O219     1.0000 0.59340  0.37760  0.96730  Biso   1.000  O
  Co24     1.0000 0.57734  0.38794  0.01866  Biso   1.000  Co
  Mo58     1.0000 0.53053  0.37255  0.93664  Biso   1.000  Mo
  Mo59     1.0000 0.52980  0.29779  0.87761  Biso   1.000  Mo
  Mo60     1.0000 0.38049  0.29800  0.93467  Biso   1.000  Mo
  O220     1.0000 0.36200  0.38950  0.06930  Biso   1.000  O
  C301     1.0000 0.91630  0.36700  0.04590  Biso   1.000  C
  C302     1.0000 0.97770  0.40040  0.99380  Biso   1.000  C
  H361     1.0000 0.03050  0.39950  0.98330  Biso   1.000  H
  H362     1.0000 0.93560  0.39080  0.97950  Biso   1.000  H
  H363     1.0000 0.96550  0.42740  0.99990  Biso   1.000  H
  C303     1.0000 0.18710  0.48670  0.01420  Biso   1.000  C
  C304     1.0000 0.13260  0.44700  0.05130  Biso   1.000  C
  C305     1.0000 0.15870  0.55200  0.07510  Biso   1.000  C
  C306     1.0000 0.95220  0.51360  0.05550  Biso   1.000  C
  H364     1.0000 0.90660  0.52850  0.06420  Biso   1.000  H
  H365     1.0000 0.94950  0.51390  0.03250  Biso   1.000  H
  H366     1.0000 0.94930  0.48650  0.06300  Biso   1.000  H
  C307     1.0000 0.21920  0.51960  0.99360  Biso   1.000  C
  H367     1.0000 0.24760  0.50860  0.97540  Biso   1.000  H
  H368     1.0000 0.17390  0.53580  0.98630  Biso   1.000  H
  H369     1.0000 0.25690  0.53580  0.00590  Biso   1.000  H
  C308     1.0000 0.95110  0.34230  0.06890  Biso   1.000  C
  C309     1.0000 0.08900  0.43000  0.08030  Biso   1.000  C
  H370     1.0000 0.09150  0.40140  0.07960  Biso   1.000  H
  H371     1.0000 0.11560  0.43940  0.09950  Biso   1.000  H
  H372     1.0000 0.03220  0.43840  0.08030  Biso   1.000  H
  C310     1.0000 0.11200  0.52150  0.06060  Biso   1.000  C
  C311     1.0000 0.91830  0.32470  0.09890  Biso   1.000  C
  H373     1.0000 0.96030  0.30860  0.10880  Biso   1.000  H
  H374     1.0000 0.90190  0.34560  0.11330  Biso   1.000  H
  H375     1.0000 0.87120  0.30830  0.09390  Biso   1.000  H
  C312     1.0000 0.14250  0.48640  0.04300  Biso   1.000  C
  C313     1.0000 0.98000  0.37430  0.02360  Biso   1.000  C
  C314     1.0000 0.25060  0.55390  0.07520  Biso   1.000  C
  H376     1.0000 0.26830  0.57730  0.08660  Biso   1.000  H
  H377     1.0000 0.27240  0.53050  0.08560  Biso   1.000  H
  H378     1.0000 0.27050  0.55500  0.05350  Biso   1.000  H
  C315     1.0000 0.03120  0.53180  0.06630  Biso   1.000  C
  N121     1.0000 0.16930  0.42360  0.02900  Biso   1.000  N
  N122     1.0000 0.20190  0.44840  0.00710  Biso   1.000  N
  N123     1.0000 0.02980  0.33570  0.05950  Biso   1.000  N
  N124     1.0000 0.10970  0.57850  0.08940  Biso   1.000  N
  N125     1.0000 0.03190  0.56570  0.08350  Biso   1.000  N
  N126     1.0000 0.04930  0.35500  0.03190  Biso   1.000  N
  O221     1.0000 0.30330  0.36600  0.01130  Biso   1.000  O
  O222     1.0000 0.31960  0.40120  0.89624  Biso   1.000  O
  O223     1.0000 0.29310  0.41630  0.95820  Biso   1.000  O
  O224     1.0000 0.28090  0.47490  0.91220  Biso   1.000  O
  O225     1.0000 0.18280  0.34020  0.90320  Biso   1.000  O
  O226     1.0000 0.16050  0.41500  0.90721  Biso   1.000  O
  O227     1.0000 0.44640  0.46500  0.90227  Biso   1.000  O
  O228     1.0000 0.31800  0.34930  0.04860  Biso   1.000  O
  O229     1.0000 0.30610  0.34100  0.94787  Biso   1.000  O
  O230     1.0000 0.15660  0.37240  0.96730  Biso   1.000  O
  Co25     1.0000 0.17266  0.36206  0.01866  Biso   1.000  Co
  Mo61     1.0000 0.21947  0.37745  0.93664  Biso   1.000  Mo
  Mo62     1.0000 0.22020  0.45221  0.87761  Biso   1.000  Mo
  Mo63     1.0000 0.36951  0.45200  0.93467  Biso   1.000  Mo
  O231     1.0000 0.38800  0.36050  0.06930  Biso   1.000  O
  C316     1.0000 0.91630  0.86700  0.54590  Biso   1.000  C
  C317     1.0000 0.97770  0.90040  0.49380  Biso   1.000  C
  H379     1.0000 0.03050  0.89950  0.48330  Biso   1.000  H
  H380     1.0000 0.93560  0.89080  0.47950  Biso   1.000  H
  H381     1.0000 0.96550  0.92740  0.49990  Biso   1.000  H
  C318     1.0000 0.18710  0.98670  0.51420  Biso   1.000  C
  C319     1.0000 0.13260  0.94700  0.55130  Biso   1.000  C
  C320     1.0000 0.15870  0.05200  0.57510  Biso   1.000  C
  C321     1.0000 0.95220  0.01360  0.55550  Biso   1.000  C
  H382     1.0000 0.90660  0.02850  0.56420  Biso   1.000  H
  H383     1.0000 0.94950  0.01390  0.53250  Biso   1.000  H
  H384     1.0000 0.94930  0.98650  0.56300  Biso   1.000  H
  C322     1.0000 0.21920  0.01960  0.49360  Biso   1.000  C
  H385     1.0000 0.24760  0.00860  0.47540  Biso   1.000  H
  H386     1.0000 0.17390  0.03580  0.48630  Biso   1.000  H
  H387     1.0000 0.25690  0.03580  0.50590  Biso   1.000  H
  C323     1.0000 0.95110  0.84230  0.56890  Biso   1.000  C
  C324     1.0000 0.08900  0.93000  0.58030  Biso   1.000  C
  H388     1.0000 0.09150  0.90140  0.57960  Biso   1.000  H
  H389     1.0000 0.11560  0.93940  0.59950  Biso   1.000  H
  H390     1.0000 0.03220  0.93840  0.58030  Biso   1.000  H
  C325     1.0000 0.11200  0.02150  0.56060  Biso   1.000  C
  C326     1.0000 0.91830  0.82470  0.59890  Biso   1.000  C
  H391     1.0000 0.96030  0.80860  0.60880  Biso   1.000  H
  H392     1.0000 0.90190  0.84560  0.61330  Biso   1.000  H
  H393     1.0000 0.87120  0.80830  0.59390  Biso   1.000  H
  C327     1.0000 0.14250  0.98640  0.54300  Biso   1.000  C
  C328     1.0000 0.98000  0.87430  0.52360  Biso   1.000  C
  C329     1.0000 0.25060  0.05390  0.57520  Biso   1.000  C
  H394     1.0000 0.26830  0.07730  0.58660  Biso   1.000  H
  H395     1.0000 0.27240  0.03050  0.58560  Biso   1.000  H
  H396     1.0000 0.27050  0.05500  0.55350  Biso   1.000  H
  C330     1.0000 0.03120  0.03180  0.56630  Biso   1.000  C
  N127     1.0000 0.16930  0.92360  0.52900  Biso   1.000  N
  N128     1.0000 0.20190  0.94840  0.50710  Biso   1.000  N
  N129     1.0000 0.02980  0.83570  0.55950  Biso   1.000  N
  N130     1.0000 0.10970  0.07850  0.58940  Biso   1.000  N
  N131     1.0000 0.03190  0.06570  0.58350  Biso   1.000  N
  N132     1.0000 0.04930  0.85500  0.53190  Biso   1.000  N
  O232     1.0000 0.30330  0.86600  0.51130  Biso   1.000  O
  O233     1.0000 0.31960  0.90120  0.39624  Biso   1.000  O
  O234     1.0000 0.29310  0.91630  0.45820  Biso   1.000  O
  O235     1.0000 0.28090  0.97490  0.41220  Biso   1.000  O
  O236     1.0000 0.18280  0.84020  0.40320  Biso   1.000  O
  O237     1.0000 0.16050  0.91500  0.40721  Biso   1.000  O
  O238     1.0000 0.44640  0.96500  0.40227  Biso   1.000  O
  O239     1.0000 0.31800  0.84930  0.54860  Biso   1.000  O
  O240     1.0000 0.30610  0.84100  0.44787  Biso   1.000  O
  O241     1.0000 0.15660  0.87240  0.46730  Biso   1.000  O
  Co26     1.0000 0.17266  0.86206  0.51866  Biso   1.000  Co
  Mo64     1.0000 0.21947  0.87745  0.43664  Biso   1.000  Mo
  Mo65     1.0000 0.22020  0.95221  0.37761  Biso   1.000  Mo
  Mo66     1.0000 0.36951  0.95200  0.43467  Biso   1.000  Mo
  O242     1.0000 0.38800  0.86050  0.56930  Biso   1.000  O
  C331     1.0000 0.41630  0.36700  0.54590  Biso   1.000  C
  C332     1.0000 0.47770  0.40040  0.49380  Biso   1.000  C
  H397     1.0000 0.53050  0.39950  0.48330  Biso   1.000  H
  H398     1.0000 0.43560  0.39080  0.47950  Biso   1.000  H
  H399     1.0000 0.46550  0.42740  0.49990  Biso   1.000  H
  C333     1.0000 0.68710  0.48670  0.51420  Biso   1.000  C
  C334     1.0000 0.63260  0.44700  0.55130  Biso   1.000  C
  C335     1.0000 0.65870  0.55200  0.57510  Biso   1.000  C
  C336     1.0000 0.45220  0.51360  0.55550  Biso   1.000  C
  H400     1.0000 0.40660  0.52850  0.56420  Biso   1.000  H
  H401     1.0000 0.44950  0.51390  0.53250  Biso   1.000  H
  H402     1.0000 0.44930  0.48650  0.56300  Biso   1.000  H
  C337     1.0000 0.71920  0.51960  0.49360  Biso   1.000  C
  H403     1.0000 0.74760  0.50860  0.47540  Biso   1.000  H
  H404     1.0000 0.67390  0.53580  0.48630  Biso   1.000  H
  H405     1.0000 0.75690  0.53580  0.50590  Biso   1.000  H
  C338     1.0000 0.45110  0.34230  0.56890  Biso   1.000  C
  C339     1.0000 0.58900  0.43000  0.58030  Biso   1.000  C
  H406     1.0000 0.59150  0.40140  0.57960  Biso   1.000  H
  H407     1.0000 0.61560  0.43940  0.59950  Biso   1.000  H
  H408     1.0000 0.53220  0.43840  0.58030  Biso   1.000  H
  C340     1.0000 0.61200  0.52150  0.56060  Biso   1.000  C
  C341     1.0000 0.41830  0.32470  0.59890  Biso   1.000  C
  H409     1.0000 0.46030  0.30860  0.60880  Biso   1.000  H
  H410     1.0000 0.40190  0.34560  0.61330  Biso   1.000  H
  H411     1.0000 0.37120  0.30830  0.59390  Biso   1.000  H
  C342     1.0000 0.64250  0.48640  0.54300  Biso   1.000  C
  C343     1.0000 0.48000  0.37430  0.52360  Biso   1.000  C
  C344     1.0000 0.75060  0.55390  0.57520  Biso   1.000  C
  H412     1.0000 0.76830  0.57730  0.58660  Biso   1.000  H
  H413     1.0000 0.77240  0.53050  0.58560  Biso   1.000  H
  H414     1.0000 0.77050  0.55500  0.55350  Biso   1.000  H
  C345     1.0000 0.53120  0.53180  0.56630  Biso   1.000  C
  N133     1.0000 0.66930  0.42360  0.52900  Biso   1.000  N
  N134     1.0000 0.70190  0.44840  0.50710  Biso   1.000  N
  N135     1.0000 0.52980  0.33570  0.55950  Biso   1.000  N
  N136     1.0000 0.60970  0.57850  0.58940  Biso   1.000  N
  N137     1.0000 0.53190  0.56570  0.58350  Biso   1.000  N
  N138     1.0000 0.54930  0.35500  0.53190  Biso   1.000  N
  O243     1.0000 0.80330  0.36600  0.51130  Biso   1.000  O
  O244     1.0000 0.81960  0.40120  0.39624  Biso   1.000  O
  O245     1.0000 0.79310  0.41630  0.45820  Biso   1.000  O
  O246     1.0000 0.78090  0.47490  0.41220  Biso   1.000  O
  O247     1.0000 0.68280  0.34020  0.40320  Biso   1.000  O
  O248     1.0000 0.66050  0.41500  0.40721  Biso   1.000  O
  O249     1.0000 0.94640  0.46500  0.40227  Biso   1.000  O
  O250     1.0000 0.81800  0.34930  0.54860  Biso   1.000  O
  O251     1.0000 0.80610  0.34100  0.44787  Biso   1.000  O
  O252     1.0000 0.65660  0.37240  0.46730  Biso   1.000  O
  Co27     1.0000 0.67266  0.36206  0.51866  Biso   1.000  Co
  Mo67     1.0000 0.71947  0.37745  0.43664  Biso   1.000  Mo
  Mo68     1.0000 0.72020  0.45221  0.37761  Biso   1.000  Mo
  Mo69     1.0000 0.86951  0.45200  0.43467  Biso   1.000  Mo
  O253     1.0000 0.88800  0.36050  0.56930  Biso   1.000  O
  C346     1.0000 0.41630  0.86700  0.04590  Biso   1.000  C
  C347     1.0000 0.47770  0.90040  0.99380  Biso   1.000  C
  H415     1.0000 0.53050  0.89950  0.98330  Biso   1.000  H
  H416     1.0000 0.43560  0.89080  0.97950  Biso   1.000  H
  H417     1.0000 0.46550  0.92740  0.99990  Biso   1.000  H
  C348     1.0000 0.68710  0.98670  0.01420  Biso   1.000  C
  C349     1.0000 0.63260  0.94700  0.05130  Biso   1.000  C
  C350     1.0000 0.65870  0.05200  0.07510  Biso   1.000  C
  C351     1.0000 0.45220  0.01360  0.05550  Biso   1.000  C
  H418     1.0000 0.40660  0.02850  0.06420  Biso   1.000  H
  H419     1.0000 0.44950  0.01390  0.03250  Biso   1.000  H
  H420     1.0000 0.44930  0.98650  0.06300  Biso   1.000  H
  C352     1.0000 0.71920  0.01960  0.99360  Biso   1.000  C
  H421     1.0000 0.74760  0.00860  0.97540  Biso   1.000  H
  H422     1.0000 0.67390  0.03580  0.98630  Biso   1.000  H
  H423     1.0000 0.75690  0.03580  0.00590  Biso   1.000  H
  C353     1.0000 0.45110  0.84230  0.06890  Biso   1.000  C
  C354     1.0000 0.58900  0.93000  0.08030  Biso   1.000  C
  H424     1.0000 0.59150  0.90140  0.07960  Biso   1.000  H
  H425     1.0000 0.61560  0.93940  0.09950  Biso   1.000  H
  H426     1.0000 0.53220  0.93840  0.08030  Biso   1.000  H
  C355     1.0000 0.61200  0.02150  0.06060  Biso   1.000  C
  C356     1.0000 0.41830  0.82470  0.09890  Biso   1.000  C
  H427     1.0000 0.46030  0.80860  0.10880  Biso   1.000  H
  H428     1.0000 0.40190  0.84560  0.11330  Biso   1.000  H
  H429     1.0000 0.37120  0.80830  0.09390  Biso   1.000  H
  C357     1.0000 0.64250  0.98640  0.04300  Biso   1.000  C
  C358     1.0000 0.48000  0.87430  0.02360  Biso   1.000  C
  C359     1.0000 0.75060  0.05390  0.07520  Biso   1.000  C
  H430     1.0000 0.76830  0.07730  0.08660  Biso   1.000  H
  H431     1.0000 0.77240  0.03050  0.08560  Biso   1.000  H
  H432     1.0000 0.77050  0.05500  0.05350  Biso   1.000  H
  C360     1.0000 0.53120  0.03180  0.06630  Biso   1.000  C
  N139     1.0000 0.66930  0.92360  0.02900  Biso   1.000  N
  N140     1.0000 0.70190  0.94840  0.00710  Biso   1.000  N
  N141     1.0000 0.52980  0.83570  0.05950  Biso   1.000  N
  N142     1.0000 0.60970  0.07850  0.08940  Biso   1.000  N
  N143     1.0000 0.53190  0.06570  0.08350  Biso   1.000  N
  N144     1.0000 0.54930  0.85500  0.03190  Biso   1.000  N
  O254     1.0000 0.80330  0.86600  0.01130  Biso   1.000  O
  O255     1.0000 0.81960  0.90120  0.89624  Biso   1.000  O
  O256     1.0000 0.79310  0.91630  0.95820  Biso   1.000  O
  O257     1.0000 0.78090  0.97490  0.91220  Biso   1.000  O
  O258     1.0000 0.68280  0.84020  0.90320  Biso   1.000  O
  O259     1.0000 0.66050  0.91500  0.90721  Biso   1.000  O
  O260     1.0000 0.94640  0.96500  0.90227  Biso   1.000  O
  O261     1.0000 0.81800  0.84930  0.04860  Biso   1.000  O
  O262     1.0000 0.80610  0.84100  0.94787  Biso   1.000  O
  O263     1.0000 0.65660  0.87240  0.96730  Biso   1.000  O
  Co28     1.0000 0.67266  0.86206  0.01866  Biso   1.000  Co
  Mo70     1.0000 0.71947  0.87745  0.93664  Biso   1.000  Mo
  Mo71     1.0000 0.72020  0.95221  0.87761  Biso   1.000  Mo
  Mo72     1.0000 0.86951  0.95200  0.93467  Biso   1.000  Mo
  O264     1.0000 0.88800  0.86050  0.06930  Biso   1.000  O
  C361     1.0000 0.91630  0.88300  0.20410  Biso   1.000  C
  C362     1.0000 0.97770  0.84960  0.25620  Biso   1.000  C
  H433     1.0000 0.03050  0.85050  0.26670  Biso   1.000  H
  H434     1.0000 0.93560  0.85920  0.27050  Biso   1.000  H
  H435     1.0000 0.96550  0.82260  0.25010  Biso   1.000  H
  C363     1.0000 0.18710  0.76330  0.23580  Biso   1.000  C
  C364     1.0000 0.13260  0.80300  0.19870  Biso   1.000  C
  C365     1.0000 0.15870  0.69800  0.17490  Biso   1.000  C
  C366     1.0000 0.95220  0.73640  0.19450  Biso   1.000  C
  H436     1.0000 0.90660  0.72150  0.18580  Biso   1.000  H
  H437     1.0000 0.94950  0.73610  0.21750  Biso   1.000  H
  H438     1.0000 0.94930  0.76350  0.18700  Biso   1.000  H
  C367     1.0000 0.21920  0.73040  0.25640  Biso   1.000  C
  H439     1.0000 0.24760  0.74140  0.27460  Biso   1.000  H
  H440     1.0000 0.17390  0.71420  0.26370  Biso   1.000  H
  H441     1.0000 0.25690  0.71420  0.24410  Biso   1.000  H
  C368     1.0000 0.95110  0.90770  0.18110  Biso   1.000  C
  C369     1.0000 0.08900  0.82000  0.16970  Biso   1.000  C
  H442     1.0000 0.09150  0.84860  0.17040  Biso   1.000  H
  H443     1.0000 0.11560  0.81060  0.15050  Biso   1.000  H
  H444     1.0000 0.03220  0.81160  0.16970  Biso   1.000  H
  C370     1.0000 0.11200  0.72850  0.18940  Biso   1.000  C
  C371     1.0000 0.91830  0.92530  0.15110  Biso   1.000  C
  H445     1.0000 0.96030  0.94140  0.14120  Biso   1.000  H
  H446     1.0000 0.90190  0.90440  0.13670  Biso   1.000  H
  H447     1.0000 0.87120  0.94170  0.15610  Biso   1.000  H
  C372     1.0000 0.14250  0.76360  0.20700  Biso   1.000  C
  C373     1.0000 0.98000  0.87570  0.22640  Biso   1.000  C
  C374     1.0000 0.25060  0.69610  0.17480  Biso   1.000  C
  H448     1.0000 0.26830  0.67270  0.16340  Biso   1.000  H
  H449     1.0000 0.27240  0.71950  0.16440  Biso   1.000  H
  H450     1.0000 0.27050  0.69500  0.19650  Biso   1.000  H
  C375     1.0000 0.03120  0.71820  0.18370  Biso   1.000  C
  N145     1.0000 0.16930  0.82640  0.22100  Biso   1.000  N
  N146     1.0000 0.20190  0.80160  0.24290  Biso   1.000  N
  N147     1.0000 0.02980  0.91430  0.19050  Biso   1.000  N
  N148     1.0000 0.10970  0.67150  0.16060  Biso   1.000  N
  N149     1.0000 0.03190  0.68430  0.16650  Biso   1.000  N
  N150     1.0000 0.04930  0.89500  0.21810  Biso   1.000  N
  O265     1.0000 0.30330  0.88400  0.23870  Biso   1.000  O
  O266     1.0000 0.31960  0.84880  0.35376  Biso   1.000  O
  O267     1.0000 0.29310  0.83370  0.29180  Biso   1.000  O
  O268     1.0000 0.28090  0.77510  0.33780  Biso   1.000  O
  O269     1.0000 0.18280  0.90980  0.34680  Biso   1.000  O
  O270     1.0000 0.16050  0.83500  0.34279  Biso   1.000  O
  O271     1.0000 0.44640  0.78500  0.34773  Biso   1.000  O
  O272     1.0000 0.31800  0.90070  0.20140  Biso   1.000  O
  O273     1.0000 0.30610  0.90900  0.30213  Biso   1.000  O
  O274     1.0000 0.15660  0.87760  0.28270  Biso   1.000  O
  Co29     1.0000 0.17266  0.88794  0.23134  Biso   1.000  Co
  Mo73     1.0000 0.21947  0.87255  0.31336  Biso   1.000  Mo
  Mo74     1.0000 0.22020  0.79779  0.37239  Biso   1.000  Mo
  Mo75     1.0000 0.36951  0.79800  0.31533  Biso   1.000  Mo
  O275     1.0000 0.38800  0.88950  0.18070  Biso   1.000  O
  C376     1.0000 0.91630  0.38300  0.70410  Biso   1.000  C
  C377     1.0000 0.97770  0.34960  0.75620  Biso   1.000  C
  H451     1.0000 0.03050  0.35050  0.76670  Biso   1.000  H
  H452     1.0000 0.93560  0.35920  0.77050  Biso   1.000  H
  H453     1.0000 0.96550  0.32260  0.75010  Biso   1.000  H
  C378     1.0000 0.18710  0.26330  0.73580  Biso   1.000  C
  C379     1.0000 0.13260  0.30300  0.69870  Biso   1.000  C
  C380     1.0000 0.15870  0.19800  0.67490  Biso   1.000  C
  C381     1.0000 0.95220  0.23640  0.69450  Biso   1.000  C
  H454     1.0000 0.90660  0.22150  0.68580  Biso   1.000  H
  H455     1.0000 0.94950  0.23610  0.71750  Biso   1.000  H
  H456     1.0000 0.94930  0.26350  0.68700  Biso   1.000  H
  C382     1.0000 0.21920  0.23040  0.75640  Biso   1.000  C
  H457     1.0000 0.24760  0.24140  0.77460  Biso   1.000  H
  H458     1.0000 0.17390  0.21420  0.76370  Biso   1.000  H
  H459     1.0000 0.25690  0.21420  0.74410  Biso   1.000  H
  C383     1.0000 0.95110  0.40770  0.68110  Biso   1.000  C
  C384     1.0000 0.08900  0.32000  0.66970  Biso   1.000  C
  H460     1.0000 0.09150  0.34860  0.67040  Biso   1.000  H
  H461     1.0000 0.11560  0.31060  0.65050  Biso   1.000  H
  H462     1.0000 0.03220  0.31160  0.66970  Biso   1.000  H
  C385     1.0000 0.11200  0.22850  0.68940  Biso   1.000  C
  C386     1.0000 0.91830  0.42530  0.65110  Biso   1.000  C
  H463     1.0000 0.96030  0.44140  0.64120  Biso   1.000  H
  H464     1.0000 0.90190  0.40440  0.63670  Biso   1.000  H
  H465     1.0000 0.87120  0.44170  0.65610  Biso   1.000  H
  C387     1.0000 0.14250  0.26360  0.70700  Biso   1.000  C
  C388     1.0000 0.98000  0.37570  0.72640  Biso   1.000  C
  C389     1.0000 0.25060  0.19610  0.67480  Biso   1.000  C
  H466     1.0000 0.26830  0.17270  0.66340  Biso   1.000  H
  H467     1.0000 0.27240  0.21950  0.66440  Biso   1.000  H
  H468     1.0000 0.27050  0.19500  0.69650  Biso   1.000  H
  C390     1.0000 0.03120  0.21820  0.68370  Biso   1.000  C
  N151     1.0000 0.16930  0.32640  0.72100  Biso   1.000  N
  N152     1.0000 0.20190  0.30160  0.74290  Biso   1.000  N
  N153     1.0000 0.02980  0.41430  0.69050  Biso   1.000  N
  N154     1.0000 0.10970  0.17150  0.66060  Biso   1.000  N
  N155     1.0000 0.03190  0.18430  0.66650  Biso   1.000  N
  N156     1.0000 0.04930  0.39500  0.71810  Biso   1.000  N
  O276     1.0000 0.30330  0.38400  0.73870  Biso   1.000  O
  O277     1.0000 0.31960  0.34880  0.85376  Biso   1.000  O
  O278     1.0000 0.29310  0.33370  0.79180  Biso   1.000  O
  O279     1.0000 0.28090  0.27510  0.83780  Biso   1.000  O
  O280     1.0000 0.18280  0.40980  0.84680  Biso   1.000  O
  O281     1.0000 0.16050  0.33500  0.84279  Biso   1.000  O
  O282     1.0000 0.44640  0.28500  0.84773  Biso   1.000  O
  O283     1.0000 0.31800  0.40070  0.70140  Biso   1.000  O
  O284     1.0000 0.30610  0.40900  0.80213  Biso   1.000  O
  O285     1.0000 0.15660  0.37760  0.78270  Biso   1.000  O
  Co30     1.0000 0.17266  0.38794  0.73134  Biso   1.000  Co
  Mo76     1.0000 0.21947  0.37255  0.81336  Biso   1.000  Mo
  Mo77     1.0000 0.22020  0.29779  0.87239  Biso   1.000  Mo
  Mo78     1.0000 0.36951  0.29800  0.81533  Biso   1.000  Mo
  O286     1.0000 0.38800  0.38950  0.68070  Biso   1.000  O
  C391     1.0000 0.41630  0.88300  0.70410  Biso   1.000  C
  C392     1.0000 0.47770  0.84960  0.75620  Biso   1.000  C
  H469     1.0000 0.53050  0.85050  0.76670  Biso   1.000  H
  H470     1.0000 0.43560  0.85920  0.77050  Biso   1.000  H
  H471     1.0000 0.46550  0.82260  0.75010  Biso   1.000  H
  C393     1.0000 0.68710  0.76330  0.73580  Biso   1.000  C
  C394     1.0000 0.63260  0.80300  0.69870  Biso   1.000  C
  C395     1.0000 0.65870  0.69800  0.67490  Biso   1.000  C
  C396     1.0000 0.45220  0.73640  0.69450  Biso   1.000  C
  H472     1.0000 0.40660  0.72150  0.68580  Biso   1.000  H
  H473     1.0000 0.44950  0.73610  0.71750  Biso   1.000  H
  H474     1.0000 0.44930  0.76350  0.68700  Biso   1.000  H
  C397     1.0000 0.71920  0.73040  0.75640  Biso   1.000  C
  H475     1.0000 0.74760  0.74140  0.77460  Biso   1.000  H
  H476     1.0000 0.67390  0.71420  0.76370  Biso   1.000  H
  H477     1.0000 0.75690  0.71420  0.74410  Biso   1.000  H
  C398     1.0000 0.45110  0.90770  0.68110  Biso   1.000  C
  C399     1.0000 0.58900  0.82000  0.66970  Biso   1.000  C
  H478     1.0000 0.59150  0.84860  0.67040  Biso   1.000  H
  H479     1.0000 0.61560  0.81060  0.65050  Biso   1.000  H
  H480     1.0000 0.53220  0.81160  0.66970  Biso   1.000  H
  C400     1.0000 0.61200  0.72850  0.68940  Biso   1.000  C
  C401     1.0000 0.41830  0.92530  0.65110  Biso   1.000  C
  H481     1.0000 0.46030  0.94140  0.64120  Biso   1.000  H
  H482     1.0000 0.40190  0.90440  0.63670  Biso   1.000  H
  H483     1.0000 0.37120  0.94170  0.65610  Biso   1.000  H
  C402     1.0000 0.64250  0.76360  0.70700  Biso   1.000  C
  C403     1.0000 0.48000  0.87570  0.72640  Biso   1.000  C
  C404     1.0000 0.75060  0.69610  0.67480  Biso   1.000  C
  H484     1.0000 0.76830  0.67270  0.66340  Biso   1.000  H
  H485     1.0000 0.77240  0.71950  0.66440  Biso   1.000  H
  H486     1.0000 0.77050  0.69500  0.69650  Biso   1.000  H
  C405     1.0000 0.53120  0.71820  0.68370  Biso   1.000  C
  N157     1.0000 0.66930  0.82640  0.72100  Biso   1.000  N
  N158     1.0000 0.70190  0.80160  0.74290  Biso   1.000  N
  N159     1.0000 0.52980  0.91430  0.69050  Biso   1.000  N
  N160     1.0000 0.60970  0.67150  0.66060  Biso   1.000  N
  N161     1.0000 0.53190  0.68430  0.66650  Biso   1.000  N
  N162     1.0000 0.54930  0.89500  0.71810  Biso   1.000  N
  O287     1.0000 0.80330  0.88400  0.73870  Biso   1.000  O
  O288     1.0000 0.81960  0.84880  0.85376  Biso   1.000  O
  O289     1.0000 0.79310  0.83370  0.79180  Biso   1.000  O
  O290     1.0000 0.78090  0.77510  0.83780  Biso   1.000  O
  O291     1.0000 0.68280  0.90980  0.84680  Biso   1.000  O
  O292     1.0000 0.66050  0.83500  0.84279  Biso   1.000  O
  O293     1.0000 0.94640  0.78500  0.84773  Biso   1.000  O
  O294     1.0000 0.81800  0.90070  0.70140  Biso   1.000  O
  O295     1.0000 0.80610  0.90900  0.80213  Biso   1.000  O
  O296     1.0000 0.65660  0.87760  0.78270  Biso   1.000  O
  Co31     1.0000 0.67266  0.88794  0.73134  Biso   1.000  Co
  Mo79     1.0000 0.71947  0.87255  0.81336  Biso   1.000  Mo
  Mo80     1.0000 0.72020  0.79779  0.87239  Biso   1.000  Mo
  Mo81     1.0000 0.86951  0.79800  0.81533  Biso   1.000  Mo
  O297     1.0000 0.88800  0.88950  0.68070  Biso   1.000  O
  C406     1.0000 0.41630  0.38300  0.20410  Biso   1.000  C
  C407     1.0000 0.47770  0.34960  0.25620  Biso   1.000  C
  H487     1.0000 0.53050  0.35050  0.26670  Biso   1.000  H
  H488     1.0000 0.43560  0.35920  0.27050  Biso   1.000  H
  H489     1.0000 0.46550  0.32260  0.25010  Biso   1.000  H
  C408     1.0000 0.68710  0.26330  0.23580  Biso   1.000  C
  C409     1.0000 0.63260  0.30300  0.19870  Biso   1.000  C
  C410     1.0000 0.65870  0.19800  0.17490  Biso   1.000  C
  C411     1.0000 0.45220  0.23640  0.19450  Biso   1.000  C
  H490     1.0000 0.40660  0.22150  0.18580  Biso   1.000  H
  H491     1.0000 0.44950  0.23610  0.21750  Biso   1.000  H
  H492     1.0000 0.44930  0.26350  0.18700  Biso   1.000  H
  C412     1.0000 0.71920  0.23040  0.25640  Biso   1.000  C
  H493     1.0000 0.74760  0.24140  0.27460  Biso   1.000  H
  H494     1.0000 0.67390  0.21420  0.26370  Biso   1.000  H
  H495     1.0000 0.75690  0.21420  0.24410  Biso   1.000  H
  C413     1.0000 0.45110  0.40770  0.18110  Biso   1.000  C
  C414     1.0000 0.58900  0.32000  0.16970  Biso   1.000  C
  H496     1.0000 0.59150  0.34860  0.17040  Biso   1.000  H
  H497     1.0000 0.61560  0.31060  0.15050  Biso   1.000  H
  H498     1.0000 0.53220  0.31160  0.16970  Biso   1.000  H
  C415     1.0000 0.61200  0.22850  0.18940  Biso   1.000  C
  C416     1.0000 0.41830  0.42530  0.15110  Biso   1.000  C
  H499     1.0000 0.46030  0.44140  0.14120  Biso   1.000  H
  H500     1.0000 0.40190  0.40440  0.13670  Biso   1.000  H
  H501     1.0000 0.37120  0.44170  0.15610  Biso   1.000  H
  C417     1.0000 0.64250  0.26360  0.20700  Biso   1.000  C
  C418     1.0000 0.48000  0.37570  0.22640  Biso   1.000  C
  C419     1.0000 0.75060  0.19610  0.17480  Biso   1.000  C
  H502     1.0000 0.76830  0.17270  0.16340  Biso   1.000  H
  H503     1.0000 0.77240  0.21950  0.16440  Biso   1.000  H
  H504     1.0000 0.77050  0.19500  0.19650  Biso   1.000  H
  C420     1.0000 0.53120  0.21820  0.18370  Biso   1.000  C
  N163     1.0000 0.66930  0.32640  0.22100  Biso   1.000  N
  N164     1.0000 0.70190  0.30160  0.24290  Biso   1.000  N
  N165     1.0000 0.52980  0.41430  0.19050  Biso   1.000  N
  N166     1.0000 0.60970  0.17150  0.16060  Biso   1.000  N
  N167     1.0000 0.53190  0.18430  0.16650  Biso   1.000  N
  N168     1.0000 0.54930  0.39500  0.21810  Biso   1.000  N
  O298     1.0000 0.80330  0.38400  0.23870  Biso   1.000  O
  O299     1.0000 0.81960  0.34880  0.35376  Biso   1.000  O
  O300     1.0000 0.79310  0.33370  0.29180  Biso   1.000  O
  O301     1.0000 0.78090  0.27510  0.33780  Biso   1.000  O
  O302     1.0000 0.68280  0.40980  0.34680  Biso   1.000  O
  O303     1.0000 0.66050  0.33500  0.34279  Biso   1.000  O
  O304     1.0000 0.94640  0.28500  0.34773  Biso   1.000  O
  O305     1.0000 0.81800  0.40070  0.20140  Biso   1.000  O
  O306     1.0000 0.80610  0.40900  0.30213  Biso   1.000  O
  O307     1.0000 0.65660  0.37760  0.28270  Biso   1.000  O
  Co32     1.0000 0.67266  0.38794  0.23134  Biso   1.000  Co
  Mo82     1.0000 0.71947  0.37255  0.31336  Biso   1.000  Mo
  Mo83     1.0000 0.72020  0.29779  0.37239  Biso   1.000  Mo
  Mo84     1.0000 0.86951  0.29800  0.31533  Biso   1.000  Mo
  O308     1.0000 0.88800  0.38950  0.18070  Biso   1.000  O
  C421     1.0000 0.33370  0.36700  0.20410  Biso   1.000  C
  C422     1.0000 0.27230  0.40040  0.25620  Biso   1.000  C
  H505     1.0000 0.21950  0.39950  0.26670  Biso   1.000  H
  H506     1.0000 0.31440  0.39080  0.27050  Biso   1.000  H
  H507     1.0000 0.28450  0.42740  0.25010  Biso   1.000  H
  C423     1.0000 0.06290  0.48670  0.23580  Biso   1.000  C
  C424     1.0000 0.11740  0.44700  0.19870  Biso   1.000  C
  C425     1.0000 0.09130  0.55200  0.17490  Biso   1.000  C
  C426     1.0000 0.29780  0.51360  0.19450  Biso   1.000  C
  H508     1.0000 0.34340  0.52850  0.18580  Biso   1.000  H
  H509     1.0000 0.30050  0.51390  0.21750  Biso   1.000  H
  H510     1.0000 0.30070  0.48650  0.18700  Biso   1.000  H
  C427     1.0000 0.03080  0.51960  0.25640  Biso   1.000  C
  H511     1.0000 0.00240  0.50860  0.27460  Biso   1.000  H
  H512     1.0000 0.07610  0.53580  0.26370  Biso   1.000  H
  H513     1.0000 0.99310  0.53580  0.24410  Biso   1.000  H
  C428     1.0000 0.29890  0.34230  0.18110  Biso   1.000  C
  C429     1.0000 0.16100  0.43000  0.16970  Biso   1.000  C
  H514     1.0000 0.15850  0.40140  0.17040  Biso   1.000  H
  H515     1.0000 0.13440  0.43940  0.15050  Biso   1.000  H
  H516     1.0000 0.21780  0.43840  0.16970  Biso   1.000  H
  C430     1.0000 0.13800  0.52150  0.18940  Biso   1.000  C
  C431     1.0000 0.33170  0.32470  0.15110  Biso   1.000  C
  H517     1.0000 0.28970  0.30860  0.14120  Biso   1.000  H
  H518     1.0000 0.34810  0.34560  0.13670  Biso   1.000  H
  H519     1.0000 0.37880  0.30830  0.15610  Biso   1.000  H
  C432     1.0000 0.10750  0.48640  0.20700  Biso   1.000  C
  C433     1.0000 0.27000  0.37430  0.22640  Biso   1.000  C
  C434     1.0000 0.99940  0.55390  0.17480  Biso   1.000  C
  H520     1.0000 0.98170  0.57730  0.16340  Biso   1.000  H
  H521     1.0000 0.97760  0.53050  0.16440  Biso   1.000  H
  H522     1.0000 0.97950  0.55500  0.19650  Biso   1.000  H
  C435     1.0000 0.21880  0.53180  0.18370  Biso   1.000  C
  N169     1.0000 0.08070  0.42360  0.22100  Biso   1.000  N
  N170     1.0000 0.04810  0.44840  0.24290  Biso   1.000  N
  N171     1.0000 0.22020  0.33570  0.19050  Biso   1.000  N
  N172     1.0000 0.14030  0.57850  0.16060  Biso   1.000  N
  N173     1.0000 0.21810  0.56570  0.16650  Biso   1.000  N
  N174     1.0000 0.20070  0.35500  0.21810  Biso   1.000  N
  O309     1.0000 0.94670  0.36600  0.23870  Biso   1.000  O
  O310     1.0000 0.93040  0.40120  0.35376  Biso   1.000  O
  O311     1.0000 0.95690  0.41630  0.29180  Biso   1.000  O
  O312     1.0000 0.96910  0.47490  0.33780  Biso   1.000  O
  O313     1.0000 0.06720  0.34020  0.34680  Biso   1.000  O
  O314     1.0000 0.08950  0.41500  0.34279  Biso   1.000  O
  O315     1.0000 0.80360  0.46500  0.34773  Biso   1.000  O
  O316     1.0000 0.93200  0.34930  0.20140  Biso   1.000  O
  O317     1.0000 0.94390  0.34100  0.30213  Biso   1.000  O
  O318     1.0000 0.09340  0.37240  0.28270  Biso   1.000  O
  Co33     1.0000 0.07734  0.36206  0.23134  Biso   1.000  Co
  Mo85     1.0000 0.03053  0.37745  0.31336  Biso   1.000  Mo
  Mo86     1.0000 0.02980  0.45221  0.37239  Biso   1.000  Mo
  Mo87     1.0000 0.88049  0.45200  0.31533  Biso   1.000  Mo
  O319     1.0000 0.86200  0.36050  0.18070  Biso   1.000  O
  C436     1.0000 0.33370  0.86700  0.70410  Biso   1.000  C
  C437     1.0000 0.27230  0.90040  0.75620  Biso   1.000  C
  H523     1.0000 0.21950  0.89950  0.76670  Biso   1.000  H
  H524     1.0000 0.31440  0.89080  0.77050  Biso   1.000  H
  H525     1.0000 0.28450  0.92740  0.75010  Biso   1.000  H
  C438     1.0000 0.06290  0.98670  0.73580  Biso   1.000  C
  C439     1.0000 0.11740  0.94700  0.69870  Biso   1.000  C
  C440     1.0000 0.09130  0.05200  0.67490  Biso   1.000  C
  C441     1.0000 0.29780  0.01360  0.69450  Biso   1.000  C
  H526     1.0000 0.34340  0.02850  0.68580  Biso   1.000  H
  H527     1.0000 0.30050  0.01390  0.71750  Biso   1.000  H
  H528     1.0000 0.30070  0.98650  0.68700  Biso   1.000  H
  C442     1.0000 0.03080  0.01960  0.75640  Biso   1.000  C
  H529     1.0000 0.00240  0.00860  0.77460  Biso   1.000  H
  H530     1.0000 0.07610  0.03580  0.76370  Biso   1.000  H
  H531     1.0000 0.99310  0.03580  0.74410  Biso   1.000  H
  C443     1.0000 0.29890  0.84230  0.68110  Biso   1.000  C
  C444     1.0000 0.16100  0.93000  0.66970  Biso   1.000  C
  H532     1.0000 0.15850  0.90140  0.67040  Biso   1.000  H
  H533     1.0000 0.13440  0.93940  0.65050  Biso   1.000  H
  H534     1.0000 0.21780  0.93840  0.66970  Biso   1.000  H
  C445     1.0000 0.13800  0.02150  0.68940  Biso   1.000  C
  C446     1.0000 0.33170  0.82470  0.65110  Biso   1.000  C
  H535     1.0000 0.28970  0.80860  0.64120  Biso   1.000  H
  H536     1.0000 0.34810  0.84560  0.63670  Biso   1.000  H
  H537     1.0000 0.37880  0.80830  0.65610  Biso   1.000  H
  C447     1.0000 0.10750  0.98640  0.70700  Biso   1.000  C
  C448     1.0000 0.27000  0.87430  0.72640  Biso   1.000  C
  C449     1.0000 0.99940  0.05390  0.67480  Biso   1.000  C
  H538     1.0000 0.98170  0.07730  0.66340  Biso   1.000  H
  H539     1.0000 0.97760  0.03050  0.66440  Biso   1.000  H
  H540     1.0000 0.97950  0.05500  0.69650  Biso   1.000  H
  C450     1.0000 0.21880  0.03180  0.68370  Biso   1.000  C
  N175     1.0000 0.08070  0.92360  0.72100  Biso   1.000  N
  N176     1.0000 0.04810  0.94840  0.74290  Biso   1.000  N
  N177     1.0000 0.22020  0.83570  0.69050  Biso   1.000  N
  N178     1.0000 0.14030  0.07850  0.66060  Biso   1.000  N
  N179     1.0000 0.21810  0.06570  0.66650  Biso   1.000  N
  N180     1.0000 0.20070  0.85500  0.71810  Biso   1.000  N
  O320     1.0000 0.94670  0.86600  0.73870  Biso   1.000  O
  O321     1.0000 0.93040  0.90120  0.85376  Biso   1.000  O
  O322     1.0000 0.95690  0.91630  0.79180  Biso   1.000  O
  O323     1.0000 0.96910  0.97490  0.83780  Biso   1.000  O
  O324     1.0000 0.06720  0.84020  0.84680  Biso   1.000  O
  O325     1.0000 0.08950  0.91500  0.84279  Biso   1.000  O
  O326     1.0000 0.80360  0.96500  0.84773  Biso   1.000  O
  O327     1.0000 0.93200  0.84930  0.70140  Biso   1.000  O
  O328     1.0000 0.94390  0.84100  0.80213  Biso   1.000  O
  O329     1.0000 0.09340  0.87240  0.78270  Biso   1.000  O
  Co34     1.0000 0.07734  0.86206  0.73134  Biso   1.000  Co
  Mo88     1.0000 0.03053  0.87745  0.81336  Biso   1.000  Mo
  Mo89     1.0000 0.02980  0.95221  0.87239  Biso   1.000  Mo
  Mo90     1.0000 0.88049  0.95200  0.81533  Biso   1.000  Mo
  O330     1.0000 0.86200  0.86050  0.68070  Biso   1.000  O
  C451     1.0000 0.83370  0.36700  0.70410  Biso   1.000  C
  C452     1.0000 0.77230  0.40040  0.75620  Biso   1.000  C
  H541     1.0000 0.71950  0.39950  0.76670  Biso   1.000  H
  H542     1.0000 0.81440  0.39080  0.77050  Biso   1.000  H
  H543     1.0000 0.78450  0.42740  0.75010  Biso   1.000  H
  C453     1.0000 0.56290  0.48670  0.73580  Biso   1.000  C
  C454     1.0000 0.61740  0.44700  0.69870  Biso   1.000  C
  C455     1.0000 0.59130  0.55200  0.67490  Biso   1.000  C
  C456     1.0000 0.79780  0.51360  0.69450  Biso   1.000  C
  H544     1.0000 0.84340  0.52850  0.68580  Biso   1.000  H
  H545     1.0000 0.80050  0.51390  0.71750  Biso   1.000  H
  H546     1.0000 0.80070  0.48650  0.68700  Biso   1.000  H
  C457     1.0000 0.53080  0.51960  0.75640  Biso   1.000  C
  H547     1.0000 0.50240  0.50860  0.77460  Biso   1.000  H
  H548     1.0000 0.57610  0.53580  0.76370  Biso   1.000  H
  H549     1.0000 0.49310  0.53580  0.74410  Biso   1.000  H
  C458     1.0000 0.79890  0.34230  0.68110  Biso   1.000  C
  C459     1.0000 0.66100  0.43000  0.66970  Biso   1.000  C
  H550     1.0000 0.65850  0.40140  0.67040  Biso   1.000  H
  H551     1.0000 0.63440  0.43940  0.65050  Biso   1.000  H
  H552     1.0000 0.71780  0.43840  0.66970  Biso   1.000  H
  C460     1.0000 0.63800  0.52150  0.68940  Biso   1.000  C
  C461     1.0000 0.83170  0.32470  0.65110  Biso   1.000  C
  H553     1.0000 0.78970  0.30860  0.64120  Biso   1.000  H
  H554     1.0000 0.84810  0.34560  0.63670  Biso   1.000  H
  H555     1.0000 0.87880  0.30830  0.65610  Biso   1.000  H
  C462     1.0000 0.60750  0.48640  0.70700  Biso   1.000  C
  C463     1.0000 0.77000  0.37430  0.72640  Biso   1.000  C
  C464     1.0000 0.49940  0.55390  0.67480  Biso   1.000  C
  H556     1.0000 0.48170  0.57730  0.66340  Biso   1.000  H
  H557     1.0000 0.47760  0.53050  0.66440  Biso   1.000  H
  H558     1.0000 0.47950  0.55500  0.69650  Biso   1.000  H
  C465     1.0000 0.71880  0.53180  0.68370  Biso   1.000  C
  N181     1.0000 0.58070  0.42360  0.72100  Biso   1.000  N
  N182     1.0000 0.54810  0.44840  0.74290  Biso   1.000  N
  N183     1.0000 0.72020  0.33570  0.69050  Biso   1.000  N
  N184     1.0000 0.64030  0.57850  0.66060  Biso   1.000  N
  N185     1.0000 0.71810  0.56570  0.66650  Biso   1.000  N
  N186     1.0000 0.70070  0.35500  0.71810  Biso   1.000  N
  O331     1.0000 0.44670  0.36600  0.73870  Biso   1.000  O
  O332     1.0000 0.43040  0.40120  0.85376  Biso   1.000  O
  O333     1.0000 0.45690  0.41630  0.79180  Biso   1.000  O
  O334     1.0000 0.46910  0.47490  0.83780  Biso   1.000  O
  O335     1.0000 0.56720  0.34020  0.84680  Biso   1.000  O
  O336     1.0000 0.58950  0.41500  0.84279  Biso   1.000  O
  O337     1.0000 0.30360  0.46500  0.84773  Biso   1.000  O
  O338     1.0000 0.43200  0.34930  0.70140  Biso   1.000  O
  O339     1.0000 0.44390  0.34100  0.80213  Biso   1.000  O
  O340     1.0000 0.59340  0.37240  0.78270  Biso   1.000  O
  Co35     1.0000 0.57734  0.36206  0.73134  Biso   1.000  Co
  Mo91     1.0000 0.53053  0.37745  0.81336  Biso   1.000  Mo
  Mo92     1.0000 0.52980  0.45221  0.87239  Biso   1.000  Mo
  Mo93     1.0000 0.38049  0.45200  0.81533  Biso   1.000  Mo
  O341     1.0000 0.36200  0.36050  0.68070  Biso   1.000  O
  C466     1.0000 0.83370  0.86700  0.20410  Biso   1.000  C
  C467     1.0000 0.77230  0.90040  0.25620  Biso   1.000  C
  H559     1.0000 0.71950  0.89950  0.26670  Biso   1.000  H
  H560     1.0000 0.81440  0.89080  0.27050  Biso   1.000  H
  H561     1.0000 0.78450  0.92740  0.25010  Biso   1.000  H
  C468     1.0000 0.56290  0.98670  0.23580  Biso   1.000  C
  C469     1.0000 0.61740  0.94700  0.19870  Biso   1.000  C
  C470     1.0000 0.59130  0.05200  0.17490  Biso   1.000  C
  C471     1.0000 0.79780  0.01360  0.19450  Biso   1.000  C
  H562     1.0000 0.84340  0.02850  0.18580  Biso   1.000  H
  H563     1.0000 0.80050  0.01390  0.21750  Biso   1.000  H
  H564     1.0000 0.80070  0.98650  0.18700  Biso   1.000  H
  C472     1.0000 0.53080  0.01960  0.25640  Biso   1.000  C
  H565     1.0000 0.50240  0.00860  0.27460  Biso   1.000  H
  H566     1.0000 0.57610  0.03580  0.26370  Biso   1.000  H
  H567     1.0000 0.49310  0.03580  0.24410  Biso   1.000  H
  C473     1.0000 0.79890  0.84230  0.18110  Biso   1.000  C
  C474     1.0000 0.66100  0.93000  0.16970  Biso   1.000  C
  H568     1.0000 0.65850  0.90140  0.17040  Biso   1.000  H
  H569     1.0000 0.63440  0.93940  0.15050  Biso   1.000  H
  H570     1.0000 0.71780  0.93840  0.16970  Biso   1.000  H
  C475     1.0000 0.63800  0.02150  0.18940  Biso   1.000  C
  C476     1.0000 0.83170  0.82470  0.15110  Biso   1.000  C
  H571     1.0000 0.78970  0.80860  0.14120  Biso   1.000  H
  H572     1.0000 0.84810  0.84560  0.13670  Biso   1.000  H
  H573     1.0000 0.87880  0.80830  0.15610  Biso   1.000  H
  C477     1.0000 0.60750  0.98640  0.20700  Biso   1.000  C
  C478     1.0000 0.77000  0.87430  0.22640  Biso   1.000  C
  C479     1.0000 0.49940  0.05390  0.17480  Biso   1.000  C
  H574     1.0000 0.48170  0.07730  0.16340  Biso   1.000  H
  H575     1.0000 0.47760  0.03050  0.16440  Biso   1.000  H
  H576     1.0000 0.47950  0.05500  0.19650  Biso   1.000  H
  C480     1.0000 0.71880  0.03180  0.18370  Biso   1.000  C
  N187     1.0000 0.58070  0.92360  0.22100  Biso   1.000  N
  N188     1.0000 0.54810  0.94840  0.24290  Biso   1.000  N
  N189     1.0000 0.72020  0.83570  0.19050  Biso   1.000  N
  N190     1.0000 0.64030  0.07850  0.16060  Biso   1.000  N
  N191     1.0000 0.71810  0.06570  0.16650  Biso   1.000  N
  N192     1.0000 0.70070  0.85500  0.21810  Biso   1.000  N
  O342     1.0000 0.44670  0.86600  0.23870  Biso   1.000  O
  O343     1.0000 0.43040  0.90120  0.35376  Biso   1.000  O
  O344     1.0000 0.45690  0.91630  0.29180  Biso   1.000  O
  O345     1.0000 0.46910  0.97490  0.33780  Biso   1.000  O
  O346     1.0000 0.56720  0.84020  0.34680  Biso   1.000  O
  O347     1.0000 0.58950  0.91500  0.34279  Biso   1.000  O
  O348     1.0000 0.30360  0.96500  0.34773  Biso   1.000  O
  O349     1.0000 0.43200  0.84930  0.20140  Biso   1.000  O
  O350     1.0000 0.44390  0.84100  0.30213  Biso   1.000  O
  O351     1.0000 0.59340  0.87240  0.28270  Biso   1.000  O
  Co36     1.0000 0.57734  0.86206  0.23134  Biso   1.000  Co
  Mo94     1.0000 0.53053  0.87745  0.31336  Biso   1.000  Mo
  Mo95     1.0000 0.52980  0.95221  0.37239  Biso   1.000  Mo
  Mo96     1.0000 0.38049  0.95200  0.31533  Biso   1.000  Mo
  O352     1.0000 0.36200  0.86050  0.18070  Biso   1.000  O
  V17      1.0000 0.12471  0.87500  0.87500  Biso   1.000  V
  V18      1.0000 0.62471  0.87500  0.37500  Biso   1.000  V
  V19      1.0000 0.12529  0.37500  0.87500  Biso   1.000  V
  V20      1.0000 0.62529  0.37500  0.37500  Biso   1.000  V
  V21      1.0000 0.12529  0.87500  0.37500  Biso   1.000  V
  V22      1.0000 0.62529  0.87500  0.87500  Biso   1.000  V
  V23      1.0000 0.12471  0.37500  0.37500  Biso   1.000  V
  V24      1.0000 0.62471  0.37500  0.87500  Biso   1.000  V
  P5       1.0000 0.87500  0.87500  0.87500  Biso   1.000  P
  P6       1.0000 0.37500  0.37500  0.87500  Biso   1.000  P
  P7       1.0000 0.37500  0.87500  0.37500  Biso   1.000  P
  P8       1.0000 0.87500  0.37500  0.37500  Biso   1.000  P
  V25      1.0000 0.87500  0.87500  0.97371  Biso   1.000  V
  S9       1.0000 0.87500  0.87500  0.03890  Biso   1.000  S
  V26      1.0000 0.87500  0.37500  0.47371  Biso   1.000  V
  S10      1.0000 0.87500  0.37500  0.53890  Biso   1.000  S
  V27      1.0000 0.37500  0.37500  0.97371  Biso   1.000  V
  S11      1.0000 0.37500  0.37500  0.03890  Biso   1.000  S
  V28      1.0000 0.37500  0.87500  0.47371  Biso   1.000  V
  S12      1.0000 0.37500  0.87500  0.53890  Biso   1.000  S
  V29      1.0000 0.37500  0.87500  0.27629  Biso   1.000  V
  S13      1.0000 0.37500  0.87500  0.21110  Biso   1.000  S
  V30      1.0000 0.37500  0.37500  0.77629  Biso   1.000  V
  S14      1.0000 0.37500  0.37500  0.71110  Biso   1.000  S
  V31      1.0000 0.87500  0.37500  0.27629  Biso   1.000  V
  S15      1.0000 0.87500  0.37500  0.21110  Biso   1.000  S
  V32      1.0000 0.87500  0.87500  0.77629  Biso   1.000  V
  S16      1.0000 0.87500  0.87500  0.71110  Biso   1.000  S
  Co37     1.0000 0.62500  0.12500  0.12500  Biso   1.000  Co
  Co38     1.0000 0.12500  0.62500  0.12500  Biso   1.000  Co
  Co39     1.0000 0.12500  0.12500  0.62500  Biso   1.000  Co
  Co40     1.0000 0.62500  0.62500  0.62500  Biso   1.000  Co
