data_image0
_cell_length_a       26.923
_cell_length_b       26.923
_cell_length_c       39.422
_cell_angle_alpha    90
_cell_angle_beta     90
_cell_angle_gamma    90

_symmetry_space_group_name_H-M    "P 1"
_symmetry_int_tables_number       1

loop_
  _symmetry_equiv_pos_as_xyz
  'x, y, z'

loop_
  _atom_site_label
  _atom_site_occupancy
  _atom_site_fract_x
  _atom_site_fract_y
  _atom_site_fract_z
  _atom_site_thermal_displace_type
  _atom_site_B_iso_or_equiv
  _atom_site_type_symbol
  Cu1      1.0000 0.75259  0.12802  0.30256  Biso   1.000  Cu
  Cu2      1.0000 0.81573  0.09441  0.34970  Biso   1.000  Cu
  O1       1.0000 0.83941  0.34784  0.46413  Biso   1.000  O
  O2       1.0000 0.86262  0.26849  0.46440  Biso   1.000  O
  O3       1.0000 0.80505  0.15763  0.37356  Biso   1.000  O
  O4       1.0000 0.75593  0.18680  0.33266  Biso   1.000  O
  O5       1.0000 0.65035  0.31502  0.21810  Biso   1.000  O
  O6       1.0000 0.62711  0.36704  0.17701  Biso   1.000  O
  O7       1.0000 0.73740  0.56318  0.22089  Biso   1.000  O
  O8       1.0000 0.68234  0.53863  0.18193  Biso   1.000  O
  O9       1.0000 0.93651  0.37513  0.53492  Biso   1.000  O
  O10      1.0000 0.96042  0.29577  0.53603  Biso   1.000  O
  O11      1.0000 0.09541  0.29825  0.66846  Biso   1.000  O
  O12      1.0000 0.06673  0.24345  0.63004  Biso   1.000  O
  O13      1.0000 0.70018  0.15615  0.26750  Biso   1.000  O
  N1       1.0000 0.76430  0.42040  0.35924  Biso   1.000  N
  N2       1.0000 0.74770  0.44770  0.33113  Biso   1.000  N
  N3       1.0000 0.74030  0.36848  0.31755  Biso   1.000  N
  H1       1.0000 0.73380  0.34090  0.30640  Biso   1.000  H
  N4       1.0000 0.00580  0.47580  0.66568  Biso   1.000  N
  C1       1.0000 0.83980  0.30490  0.45186  Biso   1.000  C
  C2       1.0000 0.81160  0.29650  0.41969  Biso   1.000  C
  C3       1.0000 0.80610  0.24970  0.40623  Biso   1.000  C
  H2       1.0000 0.81800  0.22180  0.41850  Biso   1.000  H
  C4       1.0000 0.78360  0.24240  0.37518  Biso   1.000  C
  C5       1.0000 0.78060  0.19130  0.35928  Biso   1.000  C
  C6       1.0000 0.76720  0.28210  0.35695  Biso   1.000  C
  H3       1.0000 0.75180  0.27700  0.33550  Biso   1.000  H
  C7       1.0000 0.79490  0.33800  0.40165  Biso   1.000  C
  H4       1.0000 0.79840  0.37040  0.41090  Biso   1.000  H
  C8       1.0000 0.77290  0.33100  0.36979  Biso   1.000  C
  C9       1.0000 0.75800  0.37330  0.34883  Biso   1.000  C
  C10      1.0000 0.73460  0.41470  0.30720  Biso   1.000  C
  C11      1.0000 0.71430  0.42870  0.27284  Biso   1.000  C
  C12      1.0000 0.69170  0.39040  0.25518  Biso   1.000  C
  H5       1.0000 0.68990  0.35820  0.26500  Biso   1.000  H
  C13      1.0000 0.67180  0.39861  0.22344  Biso   1.000  C
  C14      1.0000 0.64750  0.35675  0.20468  Biso   1.000  C
  C15      1.0000 0.67670  0.44550  0.20915  Biso   1.000  C
  H6       1.0000 0.66280  0.45190  0.18740  Biso   1.000  H
  C16      1.0000 0.70150  0.48310  0.22604  Biso   1.000  C
  C17      1.0000 0.72040  0.47490  0.25814  Biso   1.000  C
  H7       1.0000 0.73730  0.50060  0.26990  Biso   1.000  H
  C18      1.0000 0.70810  0.53233  0.20787  Biso   1.000  C
  C19      1.0000 0.95960  0.33960  0.54689  Biso   1.000  C
  C20      1.0000 0.99110  0.35170  0.57810  Biso   1.000  C
  C21      1.0000 0.01720  0.31430  0.59456  Biso   1.000  C
  H8       1.0000 0.01800  0.28150  0.58570  Biso   1.000  H
  C22      1.0000 0.98850  0.39830  0.59064  Biso   1.000  C
  H9       1.0000 0.97050  0.42320  0.57870  Biso   1.000  H
  C23      1.0000 0.01210  0.40990  0.62094  Biso   1.000  C
  C24      1.0000 0.03960  0.37280  0.63820  Biso   1.000  C
  H10      1.0000 0.05590  0.38020  0.65900  Biso   1.000  H
  C25      1.0000 0.04230  0.32610  0.62456  Biso   1.000  C
  C26      1.0000 0.07100  0.28630  0.64279  Biso   1.000  C
  C27      1.0000 0.00650  0.46070  0.63346  Biso   1.000  C
  H11      1.0000 0.72390  0.25760  0.26690  Biso   1.000  H
  H12      1.0000 0.73400  0.24750  0.22750  Biso   1.000  H
  H13      1.0000 0.76430  0.21720  0.25560  Biso   1.000  H
  Cu3      1.0000 0.24741  0.87198  0.30256  Biso   1.000  Cu
  Cu4      1.0000 0.18427  0.90559  0.34970  Biso   1.000  Cu
  O14      1.0000 0.16059  0.65216  0.46413  Biso   1.000  O
  O15      1.0000 0.13738  0.73151  0.46440  Biso   1.000  O
  O16      1.0000 0.19495  0.84237  0.37356  Biso   1.000  O
  O17      1.0000 0.24407  0.81320  0.33266  Biso   1.000  O
  O18      1.0000 0.34965  0.68498  0.21810  Biso   1.000  O
  O19      1.0000 0.37289  0.63296  0.17701  Biso   1.000  O
  O20      1.0000 0.26260  0.43682  0.22089  Biso   1.000  O
  O21      1.0000 0.31766  0.46137  0.18193  Biso   1.000  O
  O22      1.0000 0.06349  0.62487  0.53492  Biso   1.000  O
  O23      1.0000 0.03958  0.70423  0.53603  Biso   1.000  O
  O24      1.0000 0.90459  0.70175  0.66846  Biso   1.000  O
  O25      1.0000 0.93327  0.75655  0.63004  Biso   1.000  O
  O26      1.0000 0.29982  0.84385  0.26750  Biso   1.000  O
  N5       1.0000 0.23570  0.57960  0.35924  Biso   1.000  N
  N6       1.0000 0.25230  0.55230  0.33113  Biso   1.000  N
  N7       1.0000 0.25970  0.63152  0.31755  Biso   1.000  N
  H14      1.0000 0.26620  0.65910  0.30640  Biso   1.000  H
  N8       1.0000 0.99420  0.52420  0.66568  Biso   1.000  N
  C28      1.0000 0.16020  0.69510  0.45186  Biso   1.000  C
  C29      1.0000 0.18840  0.70350  0.41969  Biso   1.000  C
  C30      1.0000 0.19390  0.75030  0.40623  Biso   1.000  C
  H15      1.0000 0.18200  0.77820  0.41850  Biso   1.000  H
  C31      1.0000 0.21640  0.75760  0.37518  Biso   1.000  C
  C32      1.0000 0.21940  0.80870  0.35928  Biso   1.000  C
  C33      1.0000 0.23280  0.71790  0.35695  Biso   1.000  C
  H16      1.0000 0.24820  0.72300  0.33550  Biso   1.000  H
  C34      1.0000 0.20510  0.66200  0.40165  Biso   1.000  C
  H17      1.0000 0.20160  0.62960  0.41090  Biso   1.000  H
  C35      1.0000 0.22710  0.66900  0.36979  Biso   1.000  C
  C36      1.0000 0.24200  0.62670  0.34883  Biso   1.000  C
  C37      1.0000 0.26540  0.58530  0.30720  Biso   1.000  C
  C38      1.0000 0.28570  0.57130  0.27284  Biso   1.000  C
  C39      1.0000 0.30830  0.60960  0.25518  Biso   1.000  C
  H18      1.0000 0.31010  0.64180  0.26500  Biso   1.000  H
  C40      1.0000 0.32820  0.60139  0.22344  Biso   1.000  C
  C41      1.0000 0.35250  0.64325  0.20468  Biso   1.000  C
  C42      1.0000 0.32330  0.55450  0.20915  Biso   1.000  C
  H19      1.0000 0.33720  0.54810  0.18740  Biso   1.000  H
  C43      1.0000 0.29850  0.51690  0.22604  Biso   1.000  C
  C44      1.0000 0.27960  0.52510  0.25814  Biso   1.000  C
  H20      1.0000 0.26270  0.49940  0.26990  Biso   1.000  H
  C45      1.0000 0.29190  0.46767  0.20787  Biso   1.000  C
  C46      1.0000 0.04040  0.66040  0.54689  Biso   1.000  C
  C47      1.0000 0.00890  0.64830  0.57810  Biso   1.000  C
  C48      1.0000 0.98280  0.68570  0.59456  Biso   1.000  C
  H21      1.0000 0.98200  0.71850  0.58570  Biso   1.000  H
  C49      1.0000 0.01150  0.60170  0.59064  Biso   1.000  C
  H22      1.0000 0.02950  0.57680  0.57870  Biso   1.000  H
  C50      1.0000 0.98790  0.59010  0.62094  Biso   1.000  C
  C51      1.0000 0.96040  0.62720  0.63820  Biso   1.000  C
  H23      1.0000 0.94410  0.61980  0.65900  Biso   1.000  H
  C52      1.0000 0.95770  0.67390  0.62456  Biso   1.000  C
  C53      1.0000 0.92900  0.71370  0.64279  Biso   1.000  C
  C54      1.0000 0.99350  0.53930  0.63346  Biso   1.000  C
  H24      1.0000 0.27610  0.74240  0.26690  Biso   1.000  H
  H25      1.0000 0.26600  0.75250  0.22750  Biso   1.000  H
  H26      1.0000 0.23570  0.78280  0.25560  Biso   1.000  H
  Cu5      1.0000 0.87198  0.75259  0.30256  Biso   1.000  Cu
  Cu6      1.0000 0.90559  0.81573  0.34970  Biso   1.000  Cu
  O27      1.0000 0.65216  0.83941  0.46413  Biso   1.000  O
  O28      1.0000 0.73151  0.86262  0.46440  Biso   1.000  O
  O29      1.0000 0.84237  0.80505  0.37356  Biso   1.000  O
  O30      1.0000 0.81320  0.75593  0.33266  Biso   1.000  O
  O31      1.0000 0.68498  0.65035  0.21810  Biso   1.000  O
  O32      1.0000 0.63296  0.62711  0.17701  Biso   1.000  O
  O33      1.0000 0.43682  0.73740  0.22089  Biso   1.000  O
  O34      1.0000 0.46137  0.68234  0.18193  Biso   1.000  O
  O35      1.0000 0.62487  0.93651  0.53492  Biso   1.000  O
  O36      1.0000 0.70423  0.96042  0.53603  Biso   1.000  O
  O37      1.0000 0.70175  0.09541  0.66846  Biso   1.000  O
  O38      1.0000 0.75655  0.06673  0.63004  Biso   1.000  O
  O39      1.0000 0.84385  0.70018  0.26750  Biso   1.000  O
  N9       1.0000 0.57960  0.76430  0.35924  Biso   1.000  N
  N10      1.0000 0.55230  0.74770  0.33113  Biso   1.000  N
  N11      1.0000 0.63152  0.74030  0.31755  Biso   1.000  N
  H27      1.0000 0.65910  0.73380  0.30640  Biso   1.000  H
  N12      1.0000 0.52420  0.00580  0.66568  Biso   1.000  N
  C55      1.0000 0.69510  0.83980  0.45186  Biso   1.000  C
  C56      1.0000 0.70350  0.81160  0.41969  Biso   1.000  C
  C57      1.0000 0.75030  0.80610  0.40623  Biso   1.000  C
  H28      1.0000 0.77820  0.81800  0.41850  Biso   1.000  H
  C58      1.0000 0.75760  0.78360  0.37518  Biso   1.000  C
  C59      1.0000 0.80870  0.78060  0.35928  Biso   1.000  C
  C60      1.0000 0.71790  0.76720  0.35695  Biso   1.000  C
  H29      1.0000 0.72300  0.75180  0.33550  Biso   1.000  H
  C61      1.0000 0.66200  0.79490  0.40165  Biso   1.000  C
  H30      1.0000 0.62960  0.79840  0.41090  Biso   1.000  H
  C62      1.0000 0.66900  0.77290  0.36979  Biso   1.000  C
  C63      1.0000 0.62670  0.75800  0.34883  Biso   1.000  C
  C64      1.0000 0.58530  0.73460  0.30720  Biso   1.000  C
  C65      1.0000 0.57130  0.71430  0.27284  Biso   1.000  C
  C66      1.0000 0.60960  0.69170  0.25518  Biso   1.000  C
  H31      1.0000 0.64180  0.68990  0.26500  Biso   1.000  H
  C67      1.0000 0.60139  0.67180  0.22344  Biso   1.000  C
  C68      1.0000 0.64325  0.64750  0.20468  Biso   1.000  C
  C69      1.0000 0.55450  0.67670  0.20915  Biso   1.000  C
  H32      1.0000 0.54810  0.66280  0.18740  Biso   1.000  H
  C70      1.0000 0.51690  0.70150  0.22604  Biso   1.000  C
  C71      1.0000 0.52510  0.72040  0.25814  Biso   1.000  C
  H33      1.0000 0.49940  0.73730  0.26990  Biso   1.000  H
  C72      1.0000 0.46767  0.70810  0.20787  Biso   1.000  C
  C73      1.0000 0.66040  0.95960  0.54689  Biso   1.000  C
  C74      1.0000 0.64830  0.99110  0.57810  Biso   1.000  C
  C75      1.0000 0.68570  0.01720  0.59456  Biso   1.000  C
  H34      1.0000 0.71850  0.01800  0.58570  Biso   1.000  H
  C76      1.0000 0.60170  0.98850  0.59064  Biso   1.000  C
  H35      1.0000 0.57680  0.97050  0.57870  Biso   1.000  H
  C77      1.0000 0.59010  0.01210  0.62094  Biso   1.000  C
  C78      1.0000 0.62720  0.03960  0.63820  Biso   1.000  C
  H36      1.0000 0.61980  0.05590  0.65900  Biso   1.000  H
  C79      1.0000 0.67390  0.04230  0.62456  Biso   1.000  C
  C80      1.0000 0.71370  0.07100  0.64279  Biso   1.000  C
  C81      1.0000 0.53930  0.00650  0.63346  Biso   1.000  C
  H37      1.0000 0.74240  0.72390  0.26690  Biso   1.000  H
  H38      1.0000 0.75250  0.73400  0.22750  Biso   1.000  H
  H39      1.0000 0.78280  0.76430  0.25560  Biso   1.000  H
  Cu7      1.0000 0.12802  0.24741  0.30256  Biso   1.000  Cu
  Cu8      1.0000 0.09441  0.18427  0.34970  Biso   1.000  Cu
  O40      1.0000 0.34784  0.16059  0.46413  Biso   1.000  O
  O41      1.0000 0.26849  0.13738  0.46440  Biso   1.000  O
  O42      1.0000 0.15763  0.19495  0.37356  Biso   1.000  O
  O43      1.0000 0.18680  0.24407  0.33266  Biso   1.000  O
  O44      1.0000 0.31502  0.34965  0.21810  Biso   1.000  O
  O45      1.0000 0.36704  0.37289  0.17701  Biso   1.000  O
  O46      1.0000 0.56318  0.26260  0.22089  Biso   1.000  O
  O47      1.0000 0.53863  0.31766  0.18193  Biso   1.000  O
  O48      1.0000 0.37513  0.06349  0.53492  Biso   1.000  O
  O49      1.0000 0.29577  0.03958  0.53603  Biso   1.000  O
  O50      1.0000 0.29825  0.90459  0.66846  Biso   1.000  O
  O51      1.0000 0.24345  0.93327  0.63004  Biso   1.000  O
  O52      1.0000 0.15615  0.29982  0.26750  Biso   1.000  O
  N13      1.0000 0.42040  0.23570  0.35924  Biso   1.000  N
  N14      1.0000 0.44770  0.25230  0.33113  Biso   1.000  N
  N15      1.0000 0.36848  0.25970  0.31755  Biso   1.000  N
  H40      1.0000 0.34090  0.26620  0.30640  Biso   1.000  H
  N16      1.0000 0.47580  0.99420  0.66568  Biso   1.000  N
  C82      1.0000 0.30490  0.16020  0.45186  Biso   1.000  C
  C83      1.0000 0.29650  0.18840  0.41969  Biso   1.000  C
  C84      1.0000 0.24970  0.19390  0.40623  Biso   1.000  C
  H41      1.0000 0.22180  0.18200  0.41850  Biso   1.000  H
  C85      1.0000 0.24240  0.21640  0.37518  Biso   1.000  C
  C86      1.0000 0.19130  0.21940  0.35928  Biso   1.000  C
  C87      1.0000 0.28210  0.23280  0.35695  Biso   1.000  C
  H42      1.0000 0.27700  0.24820  0.33550  Biso   1.000  H
  C88      1.0000 0.33800  0.20510  0.40165  Biso   1.000  C
  H43      1.0000 0.37040  0.20160  0.41090  Biso   1.000  H
  C89      1.0000 0.33100  0.22710  0.36979  Biso   1.000  C
  C90      1.0000 0.37330  0.24200  0.34883  Biso   1.000  C
  C91      1.0000 0.41470  0.26540  0.30720  Biso   1.000  C
  C92      1.0000 0.42870  0.28570  0.27284  Biso   1.000  C
  C93      1.0000 0.39040  0.30830  0.25518  Biso   1.000  C
  H44      1.0000 0.35820  0.31010  0.26500  Biso   1.000  H
  C94      1.0000 0.39861  0.32820  0.22344  Biso   1.000  C
  C95      1.0000 0.35675  0.35250  0.20468  Biso   1.000  C
  C96      1.0000 0.44550  0.32330  0.20915  Biso   1.000  C
  H45      1.0000 0.45190  0.33720  0.18740  Biso   1.000  H
  C97      1.0000 0.48310  0.29850  0.22604  Biso   1.000  C
  C98      1.0000 0.47490  0.27960  0.25814  Biso   1.000  C
  H46      1.0000 0.50060  0.26270  0.26990  Biso   1.000  H
  C99      1.0000 0.53233  0.29190  0.20787  Biso   1.000  C
  C100     1.0000 0.33960  0.04040  0.54689  Biso   1.000  C
  C101     1.0000 0.35170  0.00890  0.57810  Biso   1.000  C
  C102     1.0000 0.31430  0.98280  0.59456  Biso   1.000  C
  H47      1.0000 0.28150  0.98200  0.58570  Biso   1.000  H
  C103     1.0000 0.39830  0.01150  0.59064  Biso   1.000  C
  H48      1.0000 0.42320  0.02950  0.57870  Biso   1.000  H
  C104     1.0000 0.40990  0.98790  0.62094  Biso   1.000  C
  C105     1.0000 0.37280  0.96040  0.63820  Biso   1.000  C
  H49      1.0000 0.38020  0.94410  0.65900  Biso   1.000  H
  C106     1.0000 0.32610  0.95770  0.62456  Biso   1.000  C
  C107     1.0000 0.28630  0.92900  0.64279  Biso   1.000  C
  C108     1.0000 0.46070  0.99350  0.63346  Biso   1.000  C
  H50      1.0000 0.25760  0.27610  0.26690  Biso   1.000  H
  H51      1.0000 0.24750  0.26600  0.22750  Biso   1.000  H
  H52      1.0000 0.21720  0.23570  0.25560  Biso   1.000  H
  Cu9      1.0000 0.74741  0.62802  0.19744  Biso   1.000  Cu
  Cu10     1.0000 0.68427  0.59441  0.15030  Biso   1.000  Cu
  O53      1.0000 0.66059  0.84784  0.03587  Biso   1.000  O
  O54      1.0000 0.63738  0.76849  0.03560  Biso   1.000  O
  O55      1.0000 0.69495  0.65763  0.12644  Biso   1.000  O
  O56      1.0000 0.74407  0.68680  0.16734  Biso   1.000  O
  O57      1.0000 0.84965  0.81502  0.28190  Biso   1.000  O
  O58      1.0000 0.87289  0.86704  0.32299  Biso   1.000  O
  O59      1.0000 0.76260  0.06318  0.27911  Biso   1.000  O
  O60      1.0000 0.81766  0.03863  0.31807  Biso   1.000  O
  O61      1.0000 0.56349  0.87513  0.96508  Biso   1.000  O
  O62      1.0000 0.53958  0.79577  0.96397  Biso   1.000  O
  O63      1.0000 0.40459  0.79825  0.83154  Biso   1.000  O
  O64      1.0000 0.43327  0.74345  0.86996  Biso   1.000  O
  O65      1.0000 0.79982  0.65615  0.23250  Biso   1.000  O
  N17      1.0000 0.73570  0.92040  0.14076  Biso   1.000  N
  N18      1.0000 0.75230  0.94770  0.16887  Biso   1.000  N
  N19      1.0000 0.75970  0.86848  0.18245  Biso   1.000  N
  H53      1.0000 0.76620  0.84090  0.19360  Biso   1.000  H
  N20      1.0000 0.49420  0.97580  0.83432  Biso   1.000  N
  C109     1.0000 0.66020  0.80490  0.04814  Biso   1.000  C
  C110     1.0000 0.68840  0.79650  0.08031  Biso   1.000  C
  C111     1.0000 0.69390  0.74970  0.09377  Biso   1.000  C
  H54      1.0000 0.68200  0.72180  0.08150  Biso   1.000  H
  C112     1.0000 0.71640  0.74240  0.12482  Biso   1.000  C
  C113     1.0000 0.71940  0.69130  0.14072  Biso   1.000  C
  C114     1.0000 0.73280  0.78210  0.14305  Biso   1.000  C
  H55      1.0000 0.74820  0.77700  0.16450  Biso   1.000  H
  C115     1.0000 0.70510  0.83800  0.09835  Biso   1.000  C
  H56      1.0000 0.70160  0.87040  0.08910  Biso   1.000  H
  C116     1.0000 0.72710  0.83100  0.13021  Biso   1.000  C
  C117     1.0000 0.74200  0.87330  0.15117  Biso   1.000  C
  C118     1.0000 0.76540  0.91470  0.19280  Biso   1.000  C
  C119     1.0000 0.78570  0.92870  0.22716  Biso   1.000  C
  C120     1.0000 0.80830  0.89040  0.24482  Biso   1.000  C
  H57      1.0000 0.81010  0.85820  0.23500  Biso   1.000  H
  C121     1.0000 0.82820  0.89861  0.27656  Biso   1.000  C
  C122     1.0000 0.85250  0.85675  0.29532  Biso   1.000  C
  C123     1.0000 0.82330  0.94550  0.29085  Biso   1.000  C
  H58      1.0000 0.83720  0.95190  0.31260  Biso   1.000  H
  C124     1.0000 0.79850  0.98310  0.27396  Biso   1.000  C
  C125     1.0000 0.77960  0.97490  0.24186  Biso   1.000  C
  H59      1.0000 0.76270  0.00060  0.23010  Biso   1.000  H
  C126     1.0000 0.79190  0.03233  0.29213  Biso   1.000  C
  C127     1.0000 0.54040  0.83960  0.95311  Biso   1.000  C
  C128     1.0000 0.50890  0.85170  0.92190  Biso   1.000  C
  C129     1.0000 0.48280  0.81430  0.90544  Biso   1.000  C
  H60      1.0000 0.48200  0.78150  0.91430  Biso   1.000  H
  C130     1.0000 0.51150  0.89830  0.90936  Biso   1.000  C
  H61      1.0000 0.52950  0.92320  0.92130  Biso   1.000  H
  C131     1.0000 0.48790  0.90990  0.87906  Biso   1.000  C
  C132     1.0000 0.46040  0.87280  0.86180  Biso   1.000  C
  H62      1.0000 0.44410  0.88020  0.84100  Biso   1.000  H
  C133     1.0000 0.45770  0.82610  0.87544  Biso   1.000  C
  C134     1.0000 0.42900  0.78630  0.85721  Biso   1.000  C
  C135     1.0000 0.49350  0.96070  0.86654  Biso   1.000  C
  H63      1.0000 0.77610  0.75760  0.23310  Biso   1.000  H
  H64      1.0000 0.76600  0.74750  0.27250  Biso   1.000  H
  H65      1.0000 0.73570  0.71720  0.24440  Biso   1.000  H
  Cu11     1.0000 0.25259  0.37198  0.19744  Biso   1.000  Cu
  Cu12     1.0000 0.31573  0.40559  0.15030  Biso   1.000  Cu
  O66      1.0000 0.33941  0.15216  0.03587  Biso   1.000  O
  O67      1.0000 0.36262  0.23151  0.03560  Biso   1.000  O
  O68      1.0000 0.30505  0.34237  0.12644  Biso   1.000  O
  O69      1.0000 0.25593  0.31320  0.16734  Biso   1.000  O
  O70      1.0000 0.15035  0.18498  0.28190  Biso   1.000  O
  O71      1.0000 0.12711  0.13296  0.32299  Biso   1.000  O
  O72      1.0000 0.23740  0.93682  0.27911  Biso   1.000  O
  O73      1.0000 0.18234  0.96137  0.31807  Biso   1.000  O
  O74      1.0000 0.43651  0.12487  0.96508  Biso   1.000  O
  O75      1.0000 0.46042  0.20423  0.96397  Biso   1.000  O
  O76      1.0000 0.59541  0.20175  0.83154  Biso   1.000  O
  O77      1.0000 0.56673  0.25655  0.86996  Biso   1.000  O
  O78      1.0000 0.20018  0.34385  0.23250  Biso   1.000  O
  N21      1.0000 0.26430  0.07960  0.14076  Biso   1.000  N
  N22      1.0000 0.24770  0.05230  0.16887  Biso   1.000  N
  N23      1.0000 0.24030  0.13152  0.18245  Biso   1.000  N
  H66      1.0000 0.23380  0.15910  0.19360  Biso   1.000  H
  N24      1.0000 0.50580  0.02420  0.83432  Biso   1.000  N
  C136     1.0000 0.33980  0.19510  0.04814  Biso   1.000  C
  C137     1.0000 0.31160  0.20350  0.08031  Biso   1.000  C
  C138     1.0000 0.30610  0.25030  0.09377  Biso   1.000  C
  H67      1.0000 0.31800  0.27820  0.08150  Biso   1.000  H
  C139     1.0000 0.28360  0.25760  0.12482  Biso   1.000  C
  C140     1.0000 0.28060  0.30870  0.14072  Biso   1.000  C
  C141     1.0000 0.26720  0.21790  0.14305  Biso   1.000  C
  H68      1.0000 0.25180  0.22300  0.16450  Biso   1.000  H
  C142     1.0000 0.29490  0.16200  0.09835  Biso   1.000  C
  H69      1.0000 0.29840  0.12960  0.08910  Biso   1.000  H
  C143     1.0000 0.27290  0.16900  0.13021  Biso   1.000  C
  C144     1.0000 0.25800  0.12670  0.15117  Biso   1.000  C
  C145     1.0000 0.23460  0.08530  0.19280  Biso   1.000  C
  C146     1.0000 0.21430  0.07130  0.22716  Biso   1.000  C
  C147     1.0000 0.19170  0.10960  0.24482  Biso   1.000  C
  H70      1.0000 0.18990  0.14180  0.23500  Biso   1.000  H
  C148     1.0000 0.17180  0.10139  0.27656  Biso   1.000  C
  C149     1.0000 0.14750  0.14325  0.29532  Biso   1.000  C
  C150     1.0000 0.17670  0.05450  0.29085  Biso   1.000  C
  H71      1.0000 0.16280  0.04810  0.31260  Biso   1.000  H
  C151     1.0000 0.20150  0.01690  0.27396  Biso   1.000  C
  C152     1.0000 0.22040  0.02510  0.24186  Biso   1.000  C
  H72      1.0000 0.23730  0.99940  0.23010  Biso   1.000  H
  C153     1.0000 0.20810  0.96767  0.29213  Biso   1.000  C
  C154     1.0000 0.45960  0.16040  0.95311  Biso   1.000  C
  C155     1.0000 0.49110  0.14830  0.92190  Biso   1.000  C
  C156     1.0000 0.51720  0.18570  0.90544  Biso   1.000  C
  H73      1.0000 0.51800  0.21850  0.91430  Biso   1.000  H
  C157     1.0000 0.48850  0.10170  0.90936  Biso   1.000  C
  H74      1.0000 0.47050  0.07680  0.92130  Biso   1.000  H
  C158     1.0000 0.51210  0.09010  0.87906  Biso   1.000  C
  C159     1.0000 0.53960  0.12720  0.86180  Biso   1.000  C
  H75      1.0000 0.55590  0.11980  0.84100  Biso   1.000  H
  C160     1.0000 0.54230  0.17390  0.87544  Biso   1.000  C
  C161     1.0000 0.57100  0.21370  0.85721  Biso   1.000  C
  C162     1.0000 0.50650  0.03930  0.86654  Biso   1.000  C
  H76      1.0000 0.22390  0.24240  0.23310  Biso   1.000  H
  H77      1.0000 0.23400  0.25250  0.27250  Biso   1.000  H
  H78      1.0000 0.26430  0.28280  0.24440  Biso   1.000  H
  Cu13     1.0000 0.62802  0.25259  0.19744  Biso   1.000  Cu
  Cu14     1.0000 0.59441  0.31573  0.15030  Biso   1.000  Cu
  O79      1.0000 0.84784  0.33941  0.03587  Biso   1.000  O
  O80      1.0000 0.76849  0.36262  0.03560  Biso   1.000  O
  O81      1.0000 0.65763  0.30505  0.12644  Biso   1.000  O
  O82      1.0000 0.68680  0.25593  0.16734  Biso   1.000  O
  O83      1.0000 0.81502  0.15035  0.28190  Biso   1.000  O
  O84      1.0000 0.86704  0.12711  0.32299  Biso   1.000  O
  O85      1.0000 0.06318  0.23740  0.27911  Biso   1.000  O
  O86      1.0000 0.03863  0.18234  0.31807  Biso   1.000  O
  O87      1.0000 0.87513  0.43651  0.96508  Biso   1.000  O
  O88      1.0000 0.79577  0.46042  0.96397  Biso   1.000  O
  O89      1.0000 0.79825  0.59541  0.83154  Biso   1.000  O
  O90      1.0000 0.74345  0.56673  0.86996  Biso   1.000  O
  O91      1.0000 0.65615  0.20018  0.23250  Biso   1.000  O
  N25      1.0000 0.92040  0.26430  0.14076  Biso   1.000  N
  N26      1.0000 0.94770  0.24770  0.16887  Biso   1.000  N
  N27      1.0000 0.86848  0.24030  0.18245  Biso   1.000  N
  H79      1.0000 0.84090  0.23380  0.19360  Biso   1.000  H
  N28      1.0000 0.97580  0.50580  0.83432  Biso   1.000  N
  C163     1.0000 0.80490  0.33980  0.04814  Biso   1.000  C
  C164     1.0000 0.79650  0.31160  0.08031  Biso   1.000  C
  C165     1.0000 0.74970  0.30610  0.09377  Biso   1.000  C
  H80      1.0000 0.72180  0.31800  0.08150  Biso   1.000  H
  C166     1.0000 0.74240  0.28360  0.12482  Biso   1.000  C
  C167     1.0000 0.69130  0.28060  0.14072  Biso   1.000  C
  C168     1.0000 0.78210  0.26720  0.14305  Biso   1.000  C
  H81      1.0000 0.77700  0.25180  0.16450  Biso   1.000  H
  C169     1.0000 0.83800  0.29490  0.09835  Biso   1.000  C
  H82      1.0000 0.87040  0.29840  0.08910  Biso   1.000  H
  C170     1.0000 0.83100  0.27290  0.13021  Biso   1.000  C
  C171     1.0000 0.87330  0.25800  0.15117  Biso   1.000  C
  C172     1.0000 0.91470  0.23460  0.19280  Biso   1.000  C
  C173     1.0000 0.92870  0.21430  0.22716  Biso   1.000  C
  C174     1.0000 0.89040  0.19170  0.24482  Biso   1.000  C
  H83      1.0000 0.85820  0.18990  0.23500  Biso   1.000  H
  C175     1.0000 0.89861  0.17180  0.27656  Biso   1.000  C
  C176     1.0000 0.85675  0.14750  0.29532  Biso   1.000  C
  C177     1.0000 0.94550  0.17670  0.29085  Biso   1.000  C
  H84      1.0000 0.95190  0.16280  0.31260  Biso   1.000  H
  C178     1.0000 0.98310  0.20150  0.27396  Biso   1.000  C
  C179     1.0000 0.97490  0.22040  0.24186  Biso   1.000  C
  H85      1.0000 0.00060  0.23730  0.23010  Biso   1.000  H
  C180     1.0000 0.03233  0.20810  0.29213  Biso   1.000  C
  C181     1.0000 0.83960  0.45960  0.95311  Biso   1.000  C
  C182     1.0000 0.85170  0.49110  0.92190  Biso   1.000  C
  C183     1.0000 0.81430  0.51720  0.90544  Biso   1.000  C
  H86      1.0000 0.78150  0.51800  0.91430  Biso   1.000  H
  C184     1.0000 0.89830  0.48850  0.90936  Biso   1.000  C
  H87      1.0000 0.92320  0.47050  0.92130  Biso   1.000  H
  C185     1.0000 0.90990  0.51210  0.87906  Biso   1.000  C
  C186     1.0000 0.87280  0.53960  0.86180  Biso   1.000  C
  H88      1.0000 0.88020  0.55590  0.84100  Biso   1.000  H
  C187     1.0000 0.82610  0.54230  0.87544  Biso   1.000  C
  C188     1.0000 0.78630  0.57100  0.85721  Biso   1.000  C
  C189     1.0000 0.96070  0.50650  0.86654  Biso   1.000  C
  H89      1.0000 0.75760  0.22390  0.23310  Biso   1.000  H
  H90      1.0000 0.74750  0.23400  0.27250  Biso   1.000  H
  H91      1.0000 0.71720  0.26430  0.24440  Biso   1.000  H
  Cu15     1.0000 0.37198  0.74741  0.19744  Biso   1.000  Cu
  Cu16     1.0000 0.40559  0.68427  0.15030  Biso   1.000  Cu
  O92      1.0000 0.15216  0.66059  0.03587  Biso   1.000  O
  O93      1.0000 0.23151  0.63738  0.03560  Biso   1.000  O
  O94      1.0000 0.34237  0.69495  0.12644  Biso   1.000  O
  O95      1.0000 0.31320  0.74407  0.16734  Biso   1.000  O
  O96      1.0000 0.18498  0.84965  0.28190  Biso   1.000  O
  O97      1.0000 0.13296  0.87289  0.32299  Biso   1.000  O
  O98      1.0000 0.93682  0.76260  0.27911  Biso   1.000  O
  O99      1.0000 0.96137  0.81766  0.31807  Biso   1.000  O
  O100     1.0000 0.12487  0.56349  0.96508  Biso   1.000  O
  O101     1.0000 0.20423  0.53958  0.96397  Biso   1.000  O
  O102     1.0000 0.20175  0.40459  0.83154  Biso   1.000  O
  O103     1.0000 0.25655  0.43327  0.86996  Biso   1.000  O
  O104     1.0000 0.34385  0.79982  0.23250  Biso   1.000  O
  N29      1.0000 0.07960  0.73570  0.14076  Biso   1.000  N
  N30      1.0000 0.05230  0.75230  0.16887  Biso   1.000  N
  N31      1.0000 0.13152  0.75970  0.18245  Biso   1.000  N
  H92      1.0000 0.15910  0.76620  0.19360  Biso   1.000  H
  N32      1.0000 0.02420  0.49420  0.83432  Biso   1.000  N
  C190     1.0000 0.19510  0.66020  0.04814  Biso   1.000  C
  C191     1.0000 0.20350  0.68840  0.08031  Biso   1.000  C
  C192     1.0000 0.25030  0.69390  0.09377  Biso   1.000  C
  H93      1.0000 0.27820  0.68200  0.08150  Biso   1.000  H
  C193     1.0000 0.25760  0.71640  0.12482  Biso   1.000  C
  C194     1.0000 0.30870  0.71940  0.14072  Biso   1.000  C
  C195     1.0000 0.21790  0.73280  0.14305  Biso   1.000  C
  H94      1.0000 0.22300  0.74820  0.16450  Biso   1.000  H
  C196     1.0000 0.16200  0.70510  0.09835  Biso   1.000  C
  H95      1.0000 0.12960  0.70160  0.08910  Biso   1.000  H
  C197     1.0000 0.16900  0.72710  0.13021  Biso   1.000  C
  C198     1.0000 0.12670  0.74200  0.15117  Biso   1.000  C
  C199     1.0000 0.08530  0.76540  0.19280  Biso   1.000  C
  C200     1.0000 0.07130  0.78570  0.22716  Biso   1.000  C
  C201     1.0000 0.10960  0.80830  0.24482  Biso   1.000  C
  H96      1.0000 0.14180  0.81010  0.23500  Biso   1.000  H
  C202     1.0000 0.10139  0.82820  0.27656  Biso   1.000  C
  C203     1.0000 0.14325  0.85250  0.29532  Biso   1.000  C
  C204     1.0000 0.05450  0.82330  0.29085  Biso   1.000  C
  H97      1.0000 0.04810  0.83720  0.31260  Biso   1.000  H
  C205     1.0000 0.01690  0.79850  0.27396  Biso   1.000  C
  C206     1.0000 0.02510  0.77960  0.24186  Biso   1.000  C
  H98      1.0000 0.99940  0.76270  0.23010  Biso   1.000  H
  C207     1.0000 0.96767  0.79190  0.29213  Biso   1.000  C
  C208     1.0000 0.16040  0.54040  0.95311  Biso   1.000  C
  C209     1.0000 0.14830  0.50890  0.92190  Biso   1.000  C
  C210     1.0000 0.18570  0.48280  0.90544  Biso   1.000  C
  H99      1.0000 0.21850  0.48200  0.91430  Biso   1.000  H
  C211     1.0000 0.10170  0.51150  0.90936  Biso   1.000  C
  H100     1.0000 0.07680  0.52950  0.92130  Biso   1.000  H
  C212     1.0000 0.09010  0.48790  0.87906  Biso   1.000  C
  C213     1.0000 0.12720  0.46040  0.86180  Biso   1.000  C
  H101     1.0000 0.11980  0.44410  0.84100  Biso   1.000  H
  C214     1.0000 0.17390  0.45770  0.87544  Biso   1.000  C
  C215     1.0000 0.21370  0.42900  0.85721  Biso   1.000  C
  C216     1.0000 0.03930  0.49350  0.86654  Biso   1.000  C
  H102     1.0000 0.24240  0.77610  0.23310  Biso   1.000  H
  H103     1.0000 0.25250  0.76600  0.27250  Biso   1.000  H
  H104     1.0000 0.28280  0.73570  0.24440  Biso   1.000  H
  Cu17     1.0000 0.24741  0.87198  0.69744  Biso   1.000  Cu
  Cu18     1.0000 0.18427  0.90559  0.65030  Biso   1.000  Cu
  O105     1.0000 0.16059  0.65216  0.53587  Biso   1.000  O
  O106     1.0000 0.13738  0.73151  0.53560  Biso   1.000  O
  O107     1.0000 0.19495  0.84237  0.62644  Biso   1.000  O
  O108     1.0000 0.24407  0.81320  0.66734  Biso   1.000  O
  O109     1.0000 0.34965  0.68498  0.78190  Biso   1.000  O
  O110     1.0000 0.37289  0.63296  0.82299  Biso   1.000  O
  O111     1.0000 0.26260  0.43682  0.77911  Biso   1.000  O
  O112     1.0000 0.31766  0.46137  0.81807  Biso   1.000  O
  O113     1.0000 0.06349  0.62487  0.46508  Biso   1.000  O
  O114     1.0000 0.03958  0.70423  0.46397  Biso   1.000  O
  O115     1.0000 0.90459  0.70175  0.33154  Biso   1.000  O
  O116     1.0000 0.93327  0.75655  0.36996  Biso   1.000  O
  O117     1.0000 0.29982  0.84385  0.73250  Biso   1.000  O
  N33      1.0000 0.23570  0.57960  0.64076  Biso   1.000  N
  N34      1.0000 0.25230  0.55230  0.66887  Biso   1.000  N
  N35      1.0000 0.25970  0.63152  0.68245  Biso   1.000  N
  H105     1.0000 0.26620  0.65910  0.69360  Biso   1.000  H
  N36      1.0000 0.99420  0.52420  0.33432  Biso   1.000  N
  C217     1.0000 0.16020  0.69510  0.54814  Biso   1.000  C
  C218     1.0000 0.18840  0.70350  0.58031  Biso   1.000  C
  C219     1.0000 0.19390  0.75030  0.59377  Biso   1.000  C
  H106     1.0000 0.18200  0.77820  0.58150  Biso   1.000  H
  C220     1.0000 0.21640  0.75760  0.62482  Biso   1.000  C
  C221     1.0000 0.21940  0.80870  0.64072  Biso   1.000  C
  C222     1.0000 0.23280  0.71790  0.64305  Biso   1.000  C
  H107     1.0000 0.24820  0.72300  0.66450  Biso   1.000  H
  C223     1.0000 0.20510  0.66200  0.59835  Biso   1.000  C
  H108     1.0000 0.20160  0.62960  0.58910  Biso   1.000  H
  C224     1.0000 0.22710  0.66900  0.63021  Biso   1.000  C
  C225     1.0000 0.24200  0.62670  0.65117  Biso   1.000  C
  C226     1.0000 0.26540  0.58530  0.69280  Biso   1.000  C
  C227     1.0000 0.28570  0.57130  0.72716  Biso   1.000  C
  C228     1.0000 0.30830  0.60960  0.74482  Biso   1.000  C
  H109     1.0000 0.31010  0.64180  0.73500  Biso   1.000  H
  C229     1.0000 0.32820  0.60139  0.77656  Biso   1.000  C
  C230     1.0000 0.35250  0.64325  0.79532  Biso   1.000  C
  C231     1.0000 0.32330  0.55450  0.79085  Biso   1.000  C
  H110     1.0000 0.33720  0.54810  0.81260  Biso   1.000  H
  C232     1.0000 0.29850  0.51690  0.77396  Biso   1.000  C
  C233     1.0000 0.27960  0.52510  0.74186  Biso   1.000  C
  H111     1.0000 0.26270  0.49940  0.73010  Biso   1.000  H
  C234     1.0000 0.29190  0.46767  0.79213  Biso   1.000  C
  C235     1.0000 0.04040  0.66040  0.45311  Biso   1.000  C
  C236     1.0000 0.00890  0.64830  0.42190  Biso   1.000  C
  C237     1.0000 0.98280  0.68570  0.40544  Biso   1.000  C
  H112     1.0000 0.98200  0.71850  0.41430  Biso   1.000  H
  C238     1.0000 0.01150  0.60170  0.40936  Biso   1.000  C
  H113     1.0000 0.02950  0.57680  0.42130  Biso   1.000  H
  C239     1.0000 0.98790  0.59010  0.37906  Biso   1.000  C
  C240     1.0000 0.96040  0.62720  0.36180  Biso   1.000  C
  H114     1.0000 0.94410  0.61980  0.34100  Biso   1.000  H
  C241     1.0000 0.95770  0.67390  0.37544  Biso   1.000  C
  C242     1.0000 0.92900  0.71370  0.35721  Biso   1.000  C
  C243     1.0000 0.99350  0.53930  0.36654  Biso   1.000  C
  H115     1.0000 0.27610  0.74240  0.73310  Biso   1.000  H
  H116     1.0000 0.26600  0.75250  0.77250  Biso   1.000  H
  H117     1.0000 0.23570  0.78280  0.74440  Biso   1.000  H
  Cu19     1.0000 0.75259  0.12802  0.69744  Biso   1.000  Cu
  Cu20     1.0000 0.81573  0.09441  0.65030  Biso   1.000  Cu
  O118     1.0000 0.83941  0.34784  0.53587  Biso   1.000  O
  O119     1.0000 0.86262  0.26849  0.53560  Biso   1.000  O
  O120     1.0000 0.80505  0.15763  0.62644  Biso   1.000  O
  O121     1.0000 0.75593  0.18680  0.66734  Biso   1.000  O
  O122     1.0000 0.65035  0.31502  0.78190  Biso   1.000  O
  O123     1.0000 0.62711  0.36704  0.82299  Biso   1.000  O
  O124     1.0000 0.73740  0.56318  0.77911  Biso   1.000  O
  O125     1.0000 0.68234  0.53863  0.81807  Biso   1.000  O
  O126     1.0000 0.93651  0.37513  0.46508  Biso   1.000  O
  O127     1.0000 0.96042  0.29577  0.46397  Biso   1.000  O
  O128     1.0000 0.09541  0.29825  0.33154  Biso   1.000  O
  O129     1.0000 0.06673  0.24345  0.36996  Biso   1.000  O
  O130     1.0000 0.70018  0.15615  0.73250  Biso   1.000  O
  N37      1.0000 0.76430  0.42040  0.64076  Biso   1.000  N
  N38      1.0000 0.74770  0.44770  0.66887  Biso   1.000  N
  N39      1.0000 0.74030  0.36848  0.68245  Biso   1.000  N
  H118     1.0000 0.73380  0.34090  0.69360  Biso   1.000  H
  N40      1.0000 0.00580  0.47580  0.33432  Biso   1.000  N
  C244     1.0000 0.83980  0.30490  0.54814  Biso   1.000  C
  C245     1.0000 0.81160  0.29650  0.58031  Biso   1.000  C
  C246     1.0000 0.80610  0.24970  0.59377  Biso   1.000  C
  H119     1.0000 0.81800  0.22180  0.58150  Biso   1.000  H
  C247     1.0000 0.78360  0.24240  0.62482  Biso   1.000  C
  C248     1.0000 0.78060  0.19130  0.64072  Biso   1.000  C
  C249     1.0000 0.76720  0.28210  0.64305  Biso   1.000  C
  H120     1.0000 0.75180  0.27700  0.66450  Biso   1.000  H
  C250     1.0000 0.79490  0.33800  0.59835  Biso   1.000  C
  H121     1.0000 0.79840  0.37040  0.58910  Biso   1.000  H
  C251     1.0000 0.77290  0.33100  0.63021  Biso   1.000  C
  C252     1.0000 0.75800  0.37330  0.65117  Biso   1.000  C
  C253     1.0000 0.73460  0.41470  0.69280  Biso   1.000  C
  C254     1.0000 0.71430  0.42870  0.72716  Biso   1.000  C
  C255     1.0000 0.69170  0.39040  0.74482  Biso   1.000  C
  H122     1.0000 0.68990  0.35820  0.73500  Biso   1.000  H
  C256     1.0000 0.67180  0.39861  0.77656  Biso   1.000  C
  C257     1.0000 0.64750  0.35675  0.79532  Biso   1.000  C
  C258     1.0000 0.67670  0.44550  0.79085  Biso   1.000  C
  H123     1.0000 0.66280  0.45190  0.81260  Biso   1.000  H
  C259     1.0000 0.70150  0.48310  0.77396  Biso   1.000  C
  C260     1.0000 0.72040  0.47490  0.74186  Biso   1.000  C
  H124     1.0000 0.73730  0.50060  0.73010  Biso   1.000  H
  C261     1.0000 0.70810  0.53233  0.79213  Biso   1.000  C
  C262     1.0000 0.95960  0.33960  0.45311  Biso   1.000  C
  C263     1.0000 0.99110  0.35170  0.42190  Biso   1.000  C
  C264     1.0000 0.01720  0.31430  0.40544  Biso   1.000  C
  H125     1.0000 0.01800  0.28150  0.41430  Biso   1.000  H
  C265     1.0000 0.98850  0.39830  0.40936  Biso   1.000  C
  H126     1.0000 0.97050  0.42320  0.42130  Biso   1.000  H
  C266     1.0000 0.01210  0.40990  0.37906  Biso   1.000  C
  C267     1.0000 0.03960  0.37280  0.36180  Biso   1.000  C
  H127     1.0000 0.05590  0.38020  0.34100  Biso   1.000  H
  C268     1.0000 0.04230  0.32610  0.37544  Biso   1.000  C
  C269     1.0000 0.07100  0.28630  0.35721  Biso   1.000  C
  C270     1.0000 0.00650  0.46070  0.36654  Biso   1.000  C
  H128     1.0000 0.72390  0.25760  0.73310  Biso   1.000  H
  H129     1.0000 0.73400  0.24750  0.77250  Biso   1.000  H
  H130     1.0000 0.76430  0.21720  0.74440  Biso   1.000  H
  Cu21     1.0000 0.12802  0.24741  0.69744  Biso   1.000  Cu
  Cu22     1.0000 0.09441  0.18427  0.65030  Biso   1.000  Cu
  O131     1.0000 0.34784  0.16059  0.53587  Biso   1.000  O
  O132     1.0000 0.26849  0.13738  0.53560  Biso   1.000  O
  O133     1.0000 0.15763  0.19495  0.62644  Biso   1.000  O
  O134     1.0000 0.18680  0.24407  0.66734  Biso   1.000  O
  O135     1.0000 0.31502  0.34965  0.78190  Biso   1.000  O
  O136     1.0000 0.36704  0.37289  0.82299  Biso   1.000  O
  O137     1.0000 0.56318  0.26260  0.77911  Biso   1.000  O
  O138     1.0000 0.53863  0.31766  0.81807  Biso   1.000  O
  O139     1.0000 0.37513  0.06349  0.46508  Biso   1.000  O
  O140     1.0000 0.29577  0.03958  0.46397  Biso   1.000  O
  O141     1.0000 0.29825  0.90459  0.33154  Biso   1.000  O
  O142     1.0000 0.24345  0.93327  0.36996  Biso   1.000  O
  O143     1.0000 0.15615  0.29982  0.73250  Biso   1.000  O
  N41      1.0000 0.42040  0.23570  0.64076  Biso   1.000  N
  N42      1.0000 0.44770  0.25230  0.66887  Biso   1.000  N
  N43      1.0000 0.36848  0.25970  0.68245  Biso   1.000  N
  H131     1.0000 0.34090  0.26620  0.69360  Biso   1.000  H
  N44      1.0000 0.47580  0.99420  0.33432  Biso   1.000  N
  C271     1.0000 0.30490  0.16020  0.54814  Biso   1.000  C
  C272     1.0000 0.29650  0.18840  0.58031  Biso   1.000  C
  C273     1.0000 0.24970  0.19390  0.59377  Biso   1.000  C
  H132     1.0000 0.22180  0.18200  0.58150  Biso   1.000  H
  C274     1.0000 0.24240  0.21640  0.62482  Biso   1.000  C
  C275     1.0000 0.19130  0.21940  0.64072  Biso   1.000  C
  C276     1.0000 0.28210  0.23280  0.64305  Biso   1.000  C
  H133     1.0000 0.27700  0.24820  0.66450  Biso   1.000  H
  C277     1.0000 0.33800  0.20510  0.59835  Biso   1.000  C
  H134     1.0000 0.37040  0.20160  0.58910  Biso   1.000  H
  C278     1.0000 0.33100  0.22710  0.63021  Biso   1.000  C
  C279     1.0000 0.37330  0.24200  0.65117  Biso   1.000  C
  C280     1.0000 0.41470  0.26540  0.69280  Biso   1.000  C
  C281     1.0000 0.42870  0.28570  0.72716  Biso   1.000  C
  C282     1.0000 0.39040  0.30830  0.74482  Biso   1.000  C
  H135     1.0000 0.35820  0.31010  0.73500  Biso   1.000  H
  C283     1.0000 0.39861  0.32820  0.77656  Biso   1.000  C
  C284     1.0000 0.35675  0.35250  0.79532  Biso   1.000  C
  C285     1.0000 0.44550  0.32330  0.79085  Biso   1.000  C
  H136     1.0000 0.45190  0.33720  0.81260  Biso   1.000  H
  C286     1.0000 0.48310  0.29850  0.77396  Biso   1.000  C
  C287     1.0000 0.47490  0.27960  0.74186  Biso   1.000  C
  H137     1.0000 0.50060  0.26270  0.73010  Biso   1.000  H
  C288     1.0000 0.53233  0.29190  0.79213  Biso   1.000  C
  C289     1.0000 0.33960  0.04040  0.45311  Biso   1.000  C
  C290     1.0000 0.35170  0.00890  0.42190  Biso   1.000  C
  C291     1.0000 0.31430  0.98280  0.40544  Biso   1.000  C
  H138     1.0000 0.28150  0.98200  0.41430  Biso   1.000  H
  C292     1.0000 0.39830  0.01150  0.40936  Biso   1.000  C
  H139     1.0000 0.42320  0.02950  0.42130  Biso   1.000  H
  C293     1.0000 0.40990  0.98790  0.37906  Biso   1.000  C
  C294     1.0000 0.37280  0.96040  0.36180  Biso   1.000  C
  H140     1.0000 0.38020  0.94410  0.34100  Biso   1.000  H
  C295     1.0000 0.32610  0.95770  0.37544  Biso   1.000  C
  C296     1.0000 0.28630  0.92900  0.35721  Biso   1.000  C
  C297     1.0000 0.46070  0.99350  0.36654  Biso   1.000  C
  H141     1.0000 0.25760  0.27610  0.73310  Biso   1.000  H
  H142     1.0000 0.24750  0.26600  0.77250  Biso   1.000  H
  H143     1.0000 0.21720  0.23570  0.74440  Biso   1.000  H
  Cu23     1.0000 0.87198  0.75259  0.69744  Biso   1.000  Cu
  Cu24     1.0000 0.90559  0.81573  0.65030  Biso   1.000  Cu
  O144     1.0000 0.65216  0.83941  0.53587  Biso   1.000  O
  O145     1.0000 0.73151  0.86262  0.53560  Biso   1.000  O
  O146     1.0000 0.84237  0.80505  0.62644  Biso   1.000  O
  O147     1.0000 0.81320  0.75593  0.66734  Biso   1.000  O
  O148     1.0000 0.68498  0.65035  0.78190  Biso   1.000  O
  O149     1.0000 0.63296  0.62711  0.82299  Biso   1.000  O
  O150     1.0000 0.43682  0.73740  0.77911  Biso   1.000  O
  O151     1.0000 0.46137  0.68234  0.81807  Biso   1.000  O
  O152     1.0000 0.62487  0.93651  0.46508  Biso   1.000  O
  O153     1.0000 0.70423  0.96042  0.46397  Biso   1.000  O
  O154     1.0000 0.70175  0.09541  0.33154  Biso   1.000  O
  O155     1.0000 0.75655  0.06673  0.36996  Biso   1.000  O
  O156     1.0000 0.84385  0.70018  0.73250  Biso   1.000  O
  N45      1.0000 0.57960  0.76430  0.64076  Biso   1.000  N
  N46      1.0000 0.55230  0.74770  0.66887  Biso   1.000  N
  N47      1.0000 0.63152  0.74030  0.68245  Biso   1.000  N
  H144     1.0000 0.65910  0.73380  0.69360  Biso   1.000  H
  N48      1.0000 0.52420  0.00580  0.33432  Biso   1.000  N
  C298     1.0000 0.69510  0.83980  0.54814  Biso   1.000  C
  C299     1.0000 0.70350  0.81160  0.58031  Biso   1.000  C
  C300     1.0000 0.75030  0.80610  0.59377  Biso   1.000  C
  H145     1.0000 0.77820  0.81800  0.58150  Biso   1.000  H
  C301     1.0000 0.75760  0.78360  0.62482  Biso   1.000  C
  C302     1.0000 0.80870  0.78060  0.64072  Biso   1.000  C
  C303     1.0000 0.71790  0.76720  0.64305  Biso   1.000  C
  H146     1.0000 0.72300  0.75180  0.66450  Biso   1.000  H
  C304     1.0000 0.66200  0.79490  0.59835  Biso   1.000  C
  H147     1.0000 0.62960  0.79840  0.58910  Biso   1.000  H
  C305     1.0000 0.66900  0.77290  0.63021  Biso   1.000  C
  C306     1.0000 0.62670  0.75800  0.65117  Biso   1.000  C
  C307     1.0000 0.58530  0.73460  0.69280  Biso   1.000  C
  C308     1.0000 0.57130  0.71430  0.72716  Biso   1.000  C
  C309     1.0000 0.60960  0.69170  0.74482  Biso   1.000  C
  H148     1.0000 0.64180  0.68990  0.73500  Biso   1.000  H
  C310     1.0000 0.60139  0.67180  0.77656  Biso   1.000  C
  C311     1.0000 0.64325  0.64750  0.79532  Biso   1.000  C
  C312     1.0000 0.55450  0.67670  0.79085  Biso   1.000  C
  H149     1.0000 0.54810  0.66280  0.81260  Biso   1.000  H
  C313     1.0000 0.51690  0.70150  0.77396  Biso   1.000  C
  C314     1.0000 0.52510  0.72040  0.74186  Biso   1.000  C
  H150     1.0000 0.49940  0.73730  0.73010  Biso   1.000  H
  C315     1.0000 0.46767  0.70810  0.79213  Biso   1.000  C
  C316     1.0000 0.66040  0.95960  0.45311  Biso   1.000  C
  C317     1.0000 0.64830  0.99110  0.42190  Biso   1.000  C
  C318     1.0000 0.68570  0.01720  0.40544  Biso   1.000  C
  H151     1.0000 0.71850  0.01800  0.41430  Biso   1.000  H
  C319     1.0000 0.60170  0.98850  0.40936  Biso   1.000  C
  H152     1.0000 0.57680  0.97050  0.42130  Biso   1.000  H
  C320     1.0000 0.59010  0.01210  0.37906  Biso   1.000  C
  C321     1.0000 0.62720  0.03960  0.36180  Biso   1.000  C
  H153     1.0000 0.61980  0.05590  0.34100  Biso   1.000  H
  C322     1.0000 0.67390  0.04230  0.37544  Biso   1.000  C
  C323     1.0000 0.71370  0.07100  0.35721  Biso   1.000  C
  C324     1.0000 0.53930  0.00650  0.36654  Biso   1.000  C
  H154     1.0000 0.74240  0.72390  0.73310  Biso   1.000  H
  H155     1.0000 0.75250  0.73400  0.77250  Biso   1.000  H
  H156     1.0000 0.78280  0.76430  0.74440  Biso   1.000  H
  Cu25     1.0000 0.25259  0.37198  0.80256  Biso   1.000  Cu
  Cu26     1.0000 0.31573  0.40559  0.84970  Biso   1.000  Cu
  O157     1.0000 0.33941  0.15216  0.96413  Biso   1.000  O
  O158     1.0000 0.36262  0.23151  0.96440  Biso   1.000  O
  O159     1.0000 0.30505  0.34237  0.87356  Biso   1.000  O
  O160     1.0000 0.25593  0.31320  0.83266  Biso   1.000  O
  O161     1.0000 0.15035  0.18498  0.71810  Biso   1.000  O
  O162     1.0000 0.12711  0.13296  0.67701  Biso   1.000  O
  O163     1.0000 0.23740  0.93682  0.72089  Biso   1.000  O
  O164     1.0000 0.18234  0.96137  0.68193  Biso   1.000  O
  O165     1.0000 0.43651  0.12487  0.03492  Biso   1.000  O
  O166     1.0000 0.46042  0.20423  0.03603  Biso   1.000  O
  O167     1.0000 0.59541  0.20175  0.16846  Biso   1.000  O
  O168     1.0000 0.56673  0.25655  0.13004  Biso   1.000  O
  O169     1.0000 0.20018  0.34385  0.76750  Biso   1.000  O
  N49      1.0000 0.26430  0.07960  0.85924  Biso   1.000  N
  N50      1.0000 0.24770  0.05230  0.83113  Biso   1.000  N
  N51      1.0000 0.24030  0.13152  0.81755  Biso   1.000  N
  H157     1.0000 0.23380  0.15910  0.80640  Biso   1.000  H
  N52      1.0000 0.50580  0.02420  0.16568  Biso   1.000  N
  C325     1.0000 0.33980  0.19510  0.95186  Biso   1.000  C
  C326     1.0000 0.31160  0.20350  0.91969  Biso   1.000  C
  C327     1.0000 0.30610  0.25030  0.90623  Biso   1.000  C
  H158     1.0000 0.31800  0.27820  0.91850  Biso   1.000  H
  C328     1.0000 0.28360  0.25760  0.87518  Biso   1.000  C
  C329     1.0000 0.28060  0.30870  0.85928  Biso   1.000  C
  C330     1.0000 0.26720  0.21790  0.85695  Biso   1.000  C
  H159     1.0000 0.25180  0.22300  0.83550  Biso   1.000  H
  C331     1.0000 0.29490  0.16200  0.90165  Biso   1.000  C
  H160     1.0000 0.29840  0.12960  0.91090  Biso   1.000  H
  C332     1.0000 0.27290  0.16900  0.86979  Biso   1.000  C
  C333     1.0000 0.25800  0.12670  0.84883  Biso   1.000  C
  C334     1.0000 0.23460  0.08530  0.80720  Biso   1.000  C
  C335     1.0000 0.21430  0.07130  0.77284  Biso   1.000  C
  C336     1.0000 0.19170  0.10960  0.75518  Biso   1.000  C
  H161     1.0000 0.18990  0.14180  0.76500  Biso   1.000  H
  C337     1.0000 0.17180  0.10139  0.72344  Biso   1.000  C
  C338     1.0000 0.14750  0.14325  0.70468  Biso   1.000  C
  C339     1.0000 0.17670  0.05450  0.70915  Biso   1.000  C
  H162     1.0000 0.16280  0.04810  0.68740  Biso   1.000  H
  C340     1.0000 0.20150  0.01690  0.72604  Biso   1.000  C
  C341     1.0000 0.22040  0.02510  0.75814  Biso   1.000  C
  H163     1.0000 0.23730  0.99940  0.76990  Biso   1.000  H
  C342     1.0000 0.20810  0.96767  0.70787  Biso   1.000  C
  C343     1.0000 0.45960  0.16040  0.04689  Biso   1.000  C
  C344     1.0000 0.49110  0.14830  0.07810  Biso   1.000  C
  C345     1.0000 0.51720  0.18570  0.09456  Biso   1.000  C
  H164     1.0000 0.51800  0.21850  0.08570  Biso   1.000  H
  C346     1.0000 0.48850  0.10170  0.09064  Biso   1.000  C
  H165     1.0000 0.47050  0.07680  0.07870  Biso   1.000  H
  C347     1.0000 0.51210  0.09010  0.12094  Biso   1.000  C
  C348     1.0000 0.53960  0.12720  0.13820  Biso   1.000  C
  H166     1.0000 0.55590  0.11980  0.15900  Biso   1.000  H
  C349     1.0000 0.54230  0.17390  0.12456  Biso   1.000  C
  C350     1.0000 0.57100  0.21370  0.14279  Biso   1.000  C
  C351     1.0000 0.50650  0.03930  0.13346  Biso   1.000  C
  H167     1.0000 0.22390  0.24240  0.76690  Biso   1.000  H
  H168     1.0000 0.23400  0.25250  0.72750  Biso   1.000  H
  H169     1.0000 0.26430  0.28280  0.75560  Biso   1.000  H
  Cu27     1.0000 0.74741  0.62802  0.80256  Biso   1.000  Cu
  Cu28     1.0000 0.68427  0.59441  0.84970  Biso   1.000  Cu
  O170     1.0000 0.66059  0.84784  0.96413  Biso   1.000  O
  O171     1.0000 0.63738  0.76849  0.96440  Biso   1.000  O
  O172     1.0000 0.69495  0.65763  0.87356  Biso   1.000  O
  O173     1.0000 0.74407  0.68680  0.83266  Biso   1.000  O
  O174     1.0000 0.84965  0.81502  0.71810  Biso   1.000  O
  O175     1.0000 0.87289  0.86704  0.67701  Biso   1.000  O
  O176     1.0000 0.76260  0.06318  0.72089  Biso   1.000  O
  O177     1.0000 0.81766  0.03863  0.68193  Biso   1.000  O
  O178     1.0000 0.56349  0.87513  0.03492  Biso   1.000  O
  O179     1.0000 0.53958  0.79577  0.03603  Biso   1.000  O
  O180     1.0000 0.40459  0.79825  0.16846  Biso   1.000  O
  O181     1.0000 0.43327  0.74345  0.13004  Biso   1.000  O
  O182     1.0000 0.79982  0.65615  0.76750  Biso   1.000  O
  N53      1.0000 0.73570  0.92040  0.85924  Biso   1.000  N
  N54      1.0000 0.75230  0.94770  0.83113  Biso   1.000  N
  N55      1.0000 0.75970  0.86848  0.81755  Biso   1.000  N
  H170     1.0000 0.76620  0.84090  0.80640  Biso   1.000  H
  N56      1.0000 0.49420  0.97580  0.16568  Biso   1.000  N
  C352     1.0000 0.66020  0.80490  0.95186  Biso   1.000  C
  C353     1.0000 0.68840  0.79650  0.91969  Biso   1.000  C
  C354     1.0000 0.69390  0.74970  0.90623  Biso   1.000  C
  H171     1.0000 0.68200  0.72180  0.91850  Biso   1.000  H
  C355     1.0000 0.71640  0.74240  0.87518  Biso   1.000  C
  C356     1.0000 0.71940  0.69130  0.85928  Biso   1.000  C
  C357     1.0000 0.73280  0.78210  0.85695  Biso   1.000  C
  H172     1.0000 0.74820  0.77700  0.83550  Biso   1.000  H
  C358     1.0000 0.70510  0.83800  0.90165  Biso   1.000  C
  H173     1.0000 0.70160  0.87040  0.91090  Biso   1.000  H
  C359     1.0000 0.72710  0.83100  0.86979  Biso   1.000  C
  C360     1.0000 0.74200  0.87330  0.84883  Biso   1.000  C
  C361     1.0000 0.76540  0.91470  0.80720  Biso   1.000  C
  C362     1.0000 0.78570  0.92870  0.77284  Biso   1.000  C
  C363     1.0000 0.80830  0.89040  0.75518  Biso   1.000  C
  H174     1.0000 0.81010  0.85820  0.76500  Biso   1.000  H
  C364     1.0000 0.82820  0.89861  0.72344  Biso   1.000  C
  C365     1.0000 0.85250  0.85675  0.70468  Biso   1.000  C
  C366     1.0000 0.82330  0.94550  0.70915  Biso   1.000  C
  H175     1.0000 0.83720  0.95190  0.68740  Biso   1.000  H
  C367     1.0000 0.79850  0.98310  0.72604  Biso   1.000  C
  C368     1.0000 0.77960  0.97490  0.75814  Biso   1.000  C
  H176     1.0000 0.76270  0.00060  0.76990  Biso   1.000  H
  C369     1.0000 0.79190  0.03233  0.70787  Biso   1.000  C
  C370     1.0000 0.54040  0.83960  0.04689  Biso   1.000  C
  C371     1.0000 0.50890  0.85170  0.07810  Biso   1.000  C
  C372     1.0000 0.48280  0.81430  0.09456  Biso   1.000  C
  H177     1.0000 0.48200  0.78150  0.08570  Biso   1.000  H
  C373     1.0000 0.51150  0.89830  0.09064  Biso   1.000  C
  H178     1.0000 0.52950  0.92320  0.07870  Biso   1.000  H
  C374     1.0000 0.48790  0.90990  0.12094  Biso   1.000  C
  C375     1.0000 0.46040  0.87280  0.13820  Biso   1.000  C
  H179     1.0000 0.44410  0.88020  0.15900  Biso   1.000  H
  C376     1.0000 0.45770  0.82610  0.12456  Biso   1.000  C
  C377     1.0000 0.42900  0.78630  0.14279  Biso   1.000  C
  C378     1.0000 0.49350  0.96070  0.13346  Biso   1.000  C
  H180     1.0000 0.77610  0.75760  0.76690  Biso   1.000  H
  H181     1.0000 0.76600  0.74750  0.72750  Biso   1.000  H
  H182     1.0000 0.73570  0.71720  0.75560  Biso   1.000  H
  Cu29     1.0000 0.37198  0.74741  0.80256  Biso   1.000  Cu
  Cu30     1.0000 0.40559  0.68427  0.84970  Biso   1.000  Cu
  O183     1.0000 0.15216  0.66059  0.96413  Biso   1.000  O
  O184     1.0000 0.23151  0.63738  0.96440  Biso   1.000  O
  O185     1.0000 0.34237  0.69495  0.87356  Biso   1.000  O
  O186     1.0000 0.31320  0.74407  0.83266  Biso   1.000  O
  O187     1.0000 0.18498  0.84965  0.71810  Biso   1.000  O
  O188     1.0000 0.13296  0.87289  0.67701  Biso   1.000  O
  O189     1.0000 0.93682  0.76260  0.72089  Biso   1.000  O
  O190     1.0000 0.96137  0.81766  0.68193  Biso   1.000  O
  O191     1.0000 0.12487  0.56349  0.03492  Biso   1.000  O
  O192     1.0000 0.20423  0.53958  0.03603  Biso   1.000  O
  O193     1.0000 0.20175  0.40459  0.16846  Biso   1.000  O
  O194     1.0000 0.25655  0.43327  0.13004  Biso   1.000  O
  O195     1.0000 0.34385  0.79982  0.76750  Biso   1.000  O
  N57      1.0000 0.07960  0.73570  0.85924  Biso   1.000  N
  N58      1.0000 0.05230  0.75230  0.83113  Biso   1.000  N
  N59      1.0000 0.13152  0.75970  0.81755  Biso   1.000  N
  H183     1.0000 0.15910  0.76620  0.80640  Biso   1.000  H
  N60      1.0000 0.02420  0.49420  0.16568  Biso   1.000  N
  C379     1.0000 0.19510  0.66020  0.95186  Biso   1.000  C
  C380     1.0000 0.20350  0.68840  0.91969  Biso   1.000  C
  C381     1.0000 0.25030  0.69390  0.90623  Biso   1.000  C
  H184     1.0000 0.27820  0.68200  0.91850  Biso   1.000  H
  C382     1.0000 0.25760  0.71640  0.87518  Biso   1.000  C
  C383     1.0000 0.30870  0.71940  0.85928  Biso   1.000  C
  C384     1.0000 0.21790  0.73280  0.85695  Biso   1.000  C
  H185     1.0000 0.22300  0.74820  0.83550  Biso   1.000  H
  C385     1.0000 0.16200  0.70510  0.90165  Biso   1.000  C
  H186     1.0000 0.12960  0.70160  0.91090  Biso   1.000  H
  C386     1.0000 0.16900  0.72710  0.86979  Biso   1.000  C
  C387     1.0000 0.12670  0.74200  0.84883  Biso   1.000  C
  C388     1.0000 0.08530  0.76540  0.80720  Biso   1.000  C
  C389     1.0000 0.07130  0.78570  0.77284  Biso   1.000  C
  C390     1.0000 0.10960  0.80830  0.75518  Biso   1.000  C
  H187     1.0000 0.14180  0.81010  0.76500  Biso   1.000  H
  C391     1.0000 0.10139  0.82820  0.72344  Biso   1.000  C
  C392     1.0000 0.14325  0.85250  0.70468  Biso   1.000  C
  C393     1.0000 0.05450  0.82330  0.70915  Biso   1.000  C
  H188     1.0000 0.04810  0.83720  0.68740  Biso   1.000  H
  C394     1.0000 0.01690  0.79850  0.72604  Biso   1.000  C
  C395     1.0000 0.02510  0.77960  0.75814  Biso   1.000  C
  H189     1.0000 0.99940  0.76270  0.76990  Biso   1.000  H
  C396     1.0000 0.96767  0.79190  0.70787  Biso   1.000  C
  C397     1.0000 0.16040  0.54040  0.04689  Biso   1.000  C
  C398     1.0000 0.14830  0.50890  0.07810  Biso   1.000  C
  C399     1.0000 0.18570  0.48280  0.09456  Biso   1.000  C
  H190     1.0000 0.21850  0.48200  0.08570  Biso   1.000  H
  C400     1.0000 0.10170  0.51150  0.09064  Biso   1.000  C
  H191     1.0000 0.07680  0.52950  0.07870  Biso   1.000  H
  C401     1.0000 0.09010  0.48790  0.12094  Biso   1.000  C
  C402     1.0000 0.12720  0.46040  0.13820  Biso   1.000  C
  H192     1.0000 0.11980  0.44410  0.15900  Biso   1.000  H
  C403     1.0000 0.17390  0.45770  0.12456  Biso   1.000  C
  C404     1.0000 0.21370  0.42900  0.14279  Biso   1.000  C
  C405     1.0000 0.03930  0.49350  0.13346  Biso   1.000  C
  H193     1.0000 0.24240  0.77610  0.76690  Biso   1.000  H
  H194     1.0000 0.25250  0.76600  0.72750  Biso   1.000  H
  H195     1.0000 0.28280  0.73570  0.75560  Biso   1.000  H
  Cu31     1.0000 0.62802  0.25259  0.80256  Biso   1.000  Cu
  Cu32     1.0000 0.59441  0.31573  0.84970  Biso   1.000  Cu
  O196     1.0000 0.84784  0.33941  0.96413  Biso   1.000  O
  O197     1.0000 0.76849  0.36262  0.96440  Biso   1.000  O
  O198     1.0000 0.65763  0.30505  0.87356  Biso   1.000  O
  O199     1.0000 0.68680  0.25593  0.83266  Biso   1.000  O
  O200     1.0000 0.81502  0.15035  0.71810  Biso   1.000  O
  O201     1.0000 0.86704  0.12711  0.67701  Biso   1.000  O
  O202     1.0000 0.06318  0.23740  0.72089  Biso   1.000  O
  O203     1.0000 0.03863  0.18234  0.68193  Biso   1.000  O
  O204     1.0000 0.87513  0.43651  0.03492  Biso   1.000  O
  O205     1.0000 0.79577  0.46042  0.03603  Biso   1.000  O
  O206     1.0000 0.79825  0.59541  0.16846  Biso   1.000  O
  O207     1.0000 0.74345  0.56673  0.13004  Biso   1.000  O
  O208     1.0000 0.65615  0.20018  0.76750  Biso   1.000  O
  N61      1.0000 0.92040  0.26430  0.85924  Biso   1.000  N
  N62      1.0000 0.94770  0.24770  0.83113  Biso   1.000  N
  N63      1.0000 0.86848  0.24030  0.81755  Biso   1.000  N
  H196     1.0000 0.84090  0.23380  0.80640  Biso   1.000  H
  N64      1.0000 0.97580  0.50580  0.16568  Biso   1.000  N
  C406     1.0000 0.80490  0.33980  0.95186  Biso   1.000  C
  C407     1.0000 0.79650  0.31160  0.91969  Biso   1.000  C
  C408     1.0000 0.74970  0.30610  0.90623  Biso   1.000  C
  H197     1.0000 0.72180  0.31800  0.91850  Biso   1.000  H
  C409     1.0000 0.74240  0.28360  0.87518  Biso   1.000  C
  C410     1.0000 0.69130  0.28060  0.85928  Biso   1.000  C
  C411     1.0000 0.78210  0.26720  0.85695  Biso   1.000  C
  H198     1.0000 0.77700  0.25180  0.83550  Biso   1.000  H
  C412     1.0000 0.83800  0.29490  0.90165  Biso   1.000  C
  H199     1.0000 0.87040  0.29840  0.91090  Biso   1.000  H
  C413     1.0000 0.83100  0.27290  0.86979  Biso   1.000  C
  C414     1.0000 0.87330  0.25800  0.84883  Biso   1.000  C
  C415     1.0000 0.91470  0.23460  0.80720  Biso   1.000  C
  C416     1.0000 0.92870  0.21430  0.77284  Biso   1.000  C
  C417     1.0000 0.89040  0.19170  0.75518  Biso   1.000  C
  H200     1.0000 0.85820  0.18990  0.76500  Biso   1.000  H
  C418     1.0000 0.89861  0.17180  0.72344  Biso   1.000  C
  C419     1.0000 0.85675  0.14750  0.70468  Biso   1.000  C
  C420     1.0000 0.94550  0.17670  0.70915  Biso   1.000  C
  H201     1.0000 0.95190  0.16280  0.68740  Biso   1.000  H
  C421     1.0000 0.98310  0.20150  0.72604  Biso   1.000  C
  C422     1.0000 0.97490  0.22040  0.75814  Biso   1.000  C
  H202     1.0000 0.00060  0.23730  0.76990  Biso   1.000  H
  C423     1.0000 0.03233  0.20810  0.70787  Biso   1.000  C
  C424     1.0000 0.83960  0.45960  0.04689  Biso   1.000  C
  C425     1.0000 0.85170  0.49110  0.07810  Biso   1.000  C
  C426     1.0000 0.81430  0.51720  0.09456  Biso   1.000  C
  H203     1.0000 0.78150  0.51800  0.08570  Biso   1.000  H
  C427     1.0000 0.89830  0.48850  0.09064  Biso   1.000  C
  H204     1.0000 0.92320  0.47050  0.07870  Biso   1.000  H
  C428     1.0000 0.90990  0.51210  0.12094  Biso   1.000  C
  C429     1.0000 0.87280  0.53960  0.13820  Biso   1.000  C
  H205     1.0000 0.88020  0.55590  0.15900  Biso   1.000  H
  C430     1.0000 0.82610  0.54230  0.12456  Biso   1.000  C
  C431     1.0000 0.78630  0.57100  0.14279  Biso   1.000  C
  C432     1.0000 0.96070  0.50650  0.13346  Biso   1.000  C
  H206     1.0000 0.75760  0.22390  0.76690  Biso   1.000  H
  H207     1.0000 0.74750  0.23400  0.72750  Biso   1.000  H
  H208     1.0000 0.71720  0.26430  0.75560  Biso   1.000  H
  Cu33     1.0000 0.91364  0.27436  0.50000  Biso   1.000  Cu
  Cu34     1.0000 0.88460  0.36886  0.50000  Biso   1.000  Cu
  Cu35     1.0000 0.08636  0.72564  0.50000  Biso   1.000  Cu
  Cu36     1.0000 0.11540  0.63114  0.50000  Biso   1.000  Cu
  Cu37     1.0000 0.72564  0.91364  0.50000  Biso   1.000  Cu
  Cu38     1.0000 0.63114  0.88460  0.50000  Biso   1.000  Cu
  Cu39     1.0000 0.27436  0.08636  0.50000  Biso   1.000  Cu
  Cu40     1.0000 0.36886  0.11540  0.50000  Biso   1.000  Cu
  Cu41     1.0000 0.58636  0.77436  0.00000  Biso   1.000  Cu
  Cu42     1.0000 0.61540  0.86886  0.00000  Biso   1.000  Cu
  Cu43     1.0000 0.41364  0.22564  0.00000  Biso   1.000  Cu
  Cu44     1.0000 0.38460  0.13114  0.00000  Biso   1.000  Cu
  Cu45     1.0000 0.77436  0.41364  0.00000  Biso   1.000  Cu
  Cu46     1.0000 0.86886  0.38460  0.00000  Biso   1.000  Cu
  Cu47     1.0000 0.22564  0.58636  0.00000  Biso   1.000  Cu
  Cu48     1.0000 0.13114  0.61540  0.00000  Biso   1.000  Cu
  C433     1.0000 0.73220  0.23220  0.25000  Biso   1.000  C
  C434     1.0000 0.69540  0.19540  0.25000  Biso   1.000  C
  C435     1.0000 0.26780  0.76780  0.25000  Biso   1.000  C
  C436     1.0000 0.30460  0.80460  0.25000  Biso   1.000  C
  C437     1.0000 0.76780  0.73220  0.25000  Biso   1.000  C
  C438     1.0000 0.80460  0.69540  0.25000  Biso   1.000  C
  C439     1.0000 0.23220  0.26780  0.25000  Biso   1.000  C
  C440     1.0000 0.19540  0.30460  0.25000  Biso   1.000  C
  C441     1.0000 0.26780  0.76780  0.75000  Biso   1.000  C
  C442     1.0000 0.30460  0.80460  0.75000  Biso   1.000  C
  C443     1.0000 0.73220  0.23220  0.75000  Biso   1.000  C
  C444     1.0000 0.69540  0.19540  0.75000  Biso   1.000  C
  C445     1.0000 0.23220  0.26780  0.75000  Biso   1.000  C
  C446     1.0000 0.19540  0.30460  0.75000  Biso   1.000  C
  C447     1.0000 0.76780  0.73220  0.75000  Biso   1.000  C
  C448     1.0000 0.80460  0.69540  0.75000  Biso   1.000  C
  N65      1.0000 0.00000  0.50000  0.61304  Biso   1.000  N
  H209     1.0000 0.00000  0.50000  0.59070  Biso   1.000  H
  N66      1.0000 0.50000  0.00000  0.61304  Biso   1.000  N
  H210     1.0000 0.50000  0.00000  0.59070  Biso   1.000  H
  N67      1.0000 0.50000  0.00000  0.88696  Biso   1.000  N
  H211     1.0000 0.50000  0.00000  0.90930  Biso   1.000  H
  N68      1.0000 0.00000  0.50000  0.88696  Biso   1.000  N
  H212     1.0000 0.00000  0.50000  0.90930  Biso   1.000  H
  N69      1.0000 0.00000  0.50000  0.38696  Biso   1.000  N
  H213     1.0000 0.00000  0.50000  0.40930  Biso   1.000  H
  N70      1.0000 0.50000  0.00000  0.38696  Biso   1.000  N
  H214     1.0000 0.50000  0.00000  0.40930  Biso   1.000  H
  N71      1.0000 0.50000  0.00000  0.11304  Biso   1.000  N
  H215     1.0000 0.50000  0.00000  0.09070  Biso   1.000  H
  N72      1.0000 0.00000  0.50000  0.11304  Biso   1.000  N
  H216     1.0000 0.00000  0.50000  0.09070  Biso   1.000  H
