data_image0
_cell_length_a       27.779
_cell_length_b       27.779
_cell_length_c       17.807
_cell_angle_alpha    90
_cell_angle_beta     90
_cell_angle_gamma    120

_symmetry_space_group_name_H-M    "P 1"
_symmetry_int_tables_number       1

loop_
  _symmetry_equiv_pos_as_xyz
  'x, y, z'

loop_
  _atom_site_label
  _atom_site_occupancy
  _atom_site_fract_x
  _atom_site_fract_y
  _atom_site_fract_z
  _atom_site_thermal_displace_type
  _atom_site_B_iso_or_equiv
  _atom_site_type_symbol
  C1       1.0000 0.27740  0.06650  0.05620  Biso   1.000  C
  C2       1.0000 0.26470  0.09300  0.12010  Biso   1.000  C
  C3       1.0000 0.26890  0.14460  0.11030  Biso   1.000  C
  H1       1.0000 0.27710  0.16180  0.06230  Biso   1.000  H
  C4       1.0000 0.26102  0.17068  0.17130  Biso   1.000  C
  C5       1.0000 0.27030  0.22800  0.16200  Biso   1.000  C
  C6       1.0000 0.24781  0.14565  0.24220  Biso   1.000  C
  H2       1.0000 0.24360  0.16430  0.28420  Biso   1.000  H
  C7       1.0000 0.24100  0.09280  0.24940  Biso   1.000  C
  C8       1.0000 0.25040  0.06680  0.18950  Biso   1.000  C
  H3       1.0000 0.24710  0.03130  0.19580  Biso   1.000  H
  C9       1.0000 0.20670  0.08290  0.37720  Biso   1.000  C
  H4       1.0000 0.17750  0.09080  0.35970  Biso   1.000  H
  H5       1.0000 0.23780  0.11740  0.39830  Biso   1.000  H
  C10      1.0000 0.18370  0.03800  0.43530  Biso   1.000  C
  H6       1.0000 0.21390  0.03230  0.45460  Biso   1.000  H
  H7       1.0000 0.15530  0.00280  0.41190  Biso   1.000  H
  C11      1.0000 0.15770  0.05220  0.50000  Biso   1.000  C
  H8       1.0000 0.18350  0.09000  0.51750  Biso   1.000  H
  H9       1.0000 0.14980  0.02580  0.54120  Biso   1.000  H
  H10      1.0000 0.12310  0.04990  0.48330  Biso   1.000  H
  C12      1.0000 0.29960  0.93450  0.24490  Biso   1.000  C
  C13      1.0000 0.25970  0.87760  0.26950  Biso   1.000  C
  C14      1.0000 0.20950  0.84600  0.23210  Biso   1.000  C
  H11      1.0000 0.20100  0.86060  0.18910  Biso   1.000  H
  C15      1.0000 0.17190  0.79290  0.25820  Biso   1.000  C
  C16      1.0000 0.11680  0.75910  0.22060  Biso   1.000  C
  C17      1.0000 0.18430  0.77130  0.32090  Biso   1.000  C
  H12      1.0000 0.15810  0.73540  0.33910  Biso   1.000  H
  C18      1.0000 0.23450  0.80190  0.35660  Biso   1.000  C
  C19      1.0000 0.27200  0.85520  0.33150  Biso   1.000  C
  H13      1.0000 0.30640  0.87650  0.35700  Biso   1.000  H
  C20      1.0000 0.21100  0.73960  0.46190  Biso   1.000  C
  Co1      1.0000 0.41122  0.02587  0.25041  Biso   1.000  Co
  Co2      1.0000 0.32909  0.99485  0.08717  Biso   1.000  Co
  O1       1.0000 0.27394  0.02003  0.06580  Biso   1.000  O
  O2       1.0000 0.29025  0.09176  0.99447  Biso   1.000  O
  O3       1.0000 0.28115  0.25807  0.21862  Biso   1.000  O
  O4       1.0000 0.26564  0.24293  0.09592  Biso   1.000  O
  O5       1.0000 0.22588  0.06306  0.31570  Biso   1.000  O
  O6       1.0000 0.29137  0.95246  0.18450  Biso   1.000  O
  O7       1.0000 0.34175  0.96315  0.28710  Biso   1.000  O
  O8       1.0000 0.08247  0.71471  0.25210  Biso   1.000  O
  O9       1.0000 0.10870  0.77753  0.16010  Biso   1.000  O
  O10      1.0000 0.25095  0.78392  0.41810  Biso   1.000  O
  C21      1.0000 0.24080  0.72580  0.52270  Biso   1.000  C
  C22      1.0000 0.20590  0.70900  0.59890  Biso   1.000  C
  C23      1.0000 0.24380  0.75430  0.54510  Biso   1.000  C
  C24      1.0000 0.94407  0.39983  0.38953  Biso   1.000  C
  C25      1.0000 0.93137  0.42633  0.45343  Biso   1.000  C
  C26      1.0000 0.93557  0.47793  0.44363  Biso   1.000  C
  H14      1.0000 0.94377  0.49513  0.39563  Biso   1.000  H
  C27      1.0000 0.92769  0.50401  0.50463  Biso   1.000  C
  C28      1.0000 0.93697  0.56133  0.49533  Biso   1.000  C
  C29      1.0000 0.91448  0.47898  0.57553  Biso   1.000  C
  H15      1.0000 0.91027  0.49763  0.61753  Biso   1.000  H
  C30      1.0000 0.90767  0.42613  0.58273  Biso   1.000  C
  C31      1.0000 0.91707  0.40013  0.52283  Biso   1.000  C
  H16      1.0000 0.91377  0.36463  0.52913  Biso   1.000  H
  C32      1.0000 0.87337  0.41623  0.71053  Biso   1.000  C
  H17      1.0000 0.84417  0.42413  0.69303  Biso   1.000  H
  H18      1.0000 0.90447  0.45073  0.73163  Biso   1.000  H
  C33      1.0000 0.85037  0.37133  0.76863  Biso   1.000  C
  H19      1.0000 0.88057  0.36563  0.78793  Biso   1.000  H
  H20      1.0000 0.82197  0.33613  0.74523  Biso   1.000  H
  C34      1.0000 0.82437  0.38553  0.83333  Biso   1.000  C
  H21      1.0000 0.85017  0.42333  0.85083  Biso   1.000  H
  H22      1.0000 0.81647  0.35913  0.87453  Biso   1.000  H
  H23      1.0000 0.78977  0.38323  0.81663  Biso   1.000  H
  C35      1.0000 0.96627  0.26783  0.57823  Biso   1.000  C
  C36      1.0000 0.92637  0.21093  0.60283  Biso   1.000  C
  C37      1.0000 0.87617  0.17933  0.56543  Biso   1.000  C
  H24      1.0000 0.86767  0.19393  0.52243  Biso   1.000  H
  C38      1.0000 0.83857  0.12623  0.59153  Biso   1.000  C
  C39      1.0000 0.78347  0.09243  0.55393  Biso   1.000  C
  C40      1.0000 0.85097  0.10463  0.65423  Biso   1.000  C
  H25      1.0000 0.82477  0.06873  0.67243  Biso   1.000  H
  C41      1.0000 0.90117  0.13523  0.68993  Biso   1.000  C
  C42      1.0000 0.93867  0.18853  0.66483  Biso   1.000  C
  H26      1.0000 0.97307  0.20983  0.69033  Biso   1.000  H
  C43      1.0000 0.87767  0.07293  0.79523  Biso   1.000  C
  Co3      1.0000 0.07789  0.35920  0.58374  Biso   1.000  Co
  Co4      1.0000 0.99576  0.32818  0.42050  Biso   1.000  Co
  O11      1.0000 0.94061  0.35336  0.39913  Biso   1.000  O
  O12      1.0000 0.95692  0.42509  0.32780  Biso   1.000  O
  O13      1.0000 0.94782  0.59140  0.55195  Biso   1.000  O
  O14      1.0000 0.93231  0.57626  0.42925  Biso   1.000  O
  O15      1.0000 0.89255  0.39639  0.64903  Biso   1.000  O
  O16      1.0000 0.95804  0.28579  0.51783  Biso   1.000  O
  O17      1.0000 0.00842  0.29648  0.62043  Biso   1.000  O
  O18      1.0000 0.74914  0.04804  0.58543  Biso   1.000  O
  O19      1.0000 0.77537  0.11086  0.49343  Biso   1.000  O
  O20      1.0000 0.91762  0.11725  0.75143  Biso   1.000  O
  C44      1.0000 0.90747  0.05913  0.85603  Biso   1.000  C
  C45      1.0000 0.87257  0.04233  0.93223  Biso   1.000  C
  C46      1.0000 0.91047  0.08763  0.87843  Biso   1.000  C
  C47      1.0000 0.61073  0.73317  0.72287  Biso   1.000  C
  C48      1.0000 0.59803  0.75967  0.78677  Biso   1.000  C
  C49      1.0000 0.60223  0.81127  0.77697  Biso   1.000  C
  H27      1.0000 0.61043  0.82847  0.72897  Biso   1.000  H
  C50      1.0000 0.59435  0.83735  0.83797  Biso   1.000  C
  C51      1.0000 0.60363  0.89467  0.82867  Biso   1.000  C
  C52      1.0000 0.58114  0.81232  0.90887  Biso   1.000  C
  H28      1.0000 0.57693  0.83097  0.95087  Biso   1.000  H
  C53      1.0000 0.57433  0.75947  0.91607  Biso   1.000  C
  C54      1.0000 0.58373  0.73347  0.85617  Biso   1.000  C
  H29      1.0000 0.58043  0.69797  0.86247  Biso   1.000  H
  C55      1.0000 0.54003  0.74957  0.04387  Biso   1.000  C
  H30      1.0000 0.51083  0.75747  0.02637  Biso   1.000  H
  H31      1.0000 0.57113  0.78407  0.06497  Biso   1.000  H
  C56      1.0000 0.51703  0.70467  0.10197  Biso   1.000  C
  H32      1.0000 0.54723  0.69897  0.12127  Biso   1.000  H
  H33      1.0000 0.48863  0.66947  0.07857  Biso   1.000  H
  C57      1.0000 0.49103  0.71887  0.16667  Biso   1.000  C
  H34      1.0000 0.51683  0.75667  0.18417  Biso   1.000  H
  H35      1.0000 0.48313  0.69247  0.20787  Biso   1.000  H
  H36      1.0000 0.45643  0.71657  0.14997  Biso   1.000  H
  C58      1.0000 0.63293  0.60117  0.91157  Biso   1.000  C
  C59      1.0000 0.59303  0.54427  0.93617  Biso   1.000  C
  C60      1.0000 0.54283  0.51267  0.89877  Biso   1.000  C
  H37      1.0000 0.53433  0.52727  0.85577  Biso   1.000  H
  C61      1.0000 0.50523  0.45957  0.92487  Biso   1.000  C
  C62      1.0000 0.45013  0.42577  0.88727  Biso   1.000  C
  C63      1.0000 0.51763  0.43797  0.98757  Biso   1.000  C
  H38      1.0000 0.49143  0.40207  0.00577  Biso   1.000  H
  C64      1.0000 0.56783  0.46857  0.02327  Biso   1.000  C
  C65      1.0000 0.60533  0.52187  0.99817  Biso   1.000  C
  H39      1.0000 0.63973  0.54317  0.02367  Biso   1.000  H
  C66      1.0000 0.54433  0.40627  0.12857  Biso   1.000  C
  Co5      1.0000 0.74455  0.69254  0.91708  Biso   1.000  Co
  Co6      1.0000 0.66242  0.66152  0.75384  Biso   1.000  Co
  O21      1.0000 0.60727  0.68670  0.73247  Biso   1.000  O
  O22      1.0000 0.62358  0.75843  0.66114  Biso   1.000  O
  O23      1.0000 0.61448  0.92474  0.88529  Biso   1.000  O
  O24      1.0000 0.59897  0.90960  0.76259  Biso   1.000  O
  O25      1.0000 0.55921  0.72973  0.98237  Biso   1.000  O
  O26      1.0000 0.62470  0.61913  0.85117  Biso   1.000  O
  O27      1.0000 0.67508  0.62982  0.95377  Biso   1.000  O
  O28      1.0000 0.41580  0.38138  0.91877  Biso   1.000  O
  O29      1.0000 0.44203  0.44420  0.82677  Biso   1.000  O
  O30      1.0000 0.58428  0.45059  0.08477  Biso   1.000  O
  C67      1.0000 0.57413  0.39247  0.18937  Biso   1.000  C
  C68      1.0000 0.53923  0.37567  0.26557  Biso   1.000  C
  C69      1.0000 0.57713  0.42097  0.21177  Biso   1.000  C
  C70      1.0000 0.93350  0.21090  0.05620  Biso   1.000  C
  C71      1.0000 0.90700  0.17170  0.12010  Biso   1.000  C
  C72      1.0000 0.85540  0.12430  0.11030  Biso   1.000  C
  H40      1.0000 0.83820  0.11530  0.06230  Biso   1.000  H
  C73      1.0000 0.82932  0.09034  0.17130  Biso   1.000  C
  C74      1.0000 0.77200  0.04230  0.16200  Biso   1.000  C
  C75      1.0000 0.85435  0.10216  0.24220  Biso   1.000  C
  H41      1.0000 0.83570  0.07930  0.28420  Biso   1.000  H
  C76      1.0000 0.90720  0.14820  0.24940  Biso   1.000  C
  C77      1.0000 0.93320  0.18360  0.18950  Biso   1.000  C
  H42      1.0000 0.96870  0.21580  0.19580  Biso   1.000  H
  C78      1.0000 0.91710  0.12380  0.37720  Biso   1.000  C
  H43      1.0000 0.90920  0.08670  0.35970  Biso   1.000  H
  H44      1.0000 0.88260  0.12040  0.39830  Biso   1.000  H
  C79      1.0000 0.96200  0.14570  0.43530  Biso   1.000  C
  H45      1.0000 0.96770  0.18160  0.45460  Biso   1.000  H
  H46      1.0000 0.99720  0.15250  0.41190  Biso   1.000  H
  C80      1.0000 0.94780  0.10550  0.50000  Biso   1.000  C
  H47      1.0000 0.91000  0.09350  0.51750  Biso   1.000  H
  H48      1.0000 0.97420  0.12400  0.54120  Biso   1.000  H
  H49      1.0000 0.95010  0.07320  0.48330  Biso   1.000  H
  C81      1.0000 0.06550  0.36510  0.24490  Biso   1.000  C
  C82      1.0000 0.12240  0.38210  0.26950  Biso   1.000  C
  C83      1.0000 0.15400  0.36350  0.23210  Biso   1.000  C
  H50      1.0000 0.13940  0.34040  0.18910  Biso   1.000  H
  C84      1.0000 0.20710  0.37900  0.25820  Biso   1.000  C
  C85      1.0000 0.24090  0.35770  0.22060  Biso   1.000  C
  C86      1.0000 0.22870  0.41300  0.32090  Biso   1.000  C
  H51      1.0000 0.26460  0.42270  0.33910  Biso   1.000  H
  C87      1.0000 0.19810  0.43260  0.35660  Biso   1.000  C
  C88      1.0000 0.14480  0.41680  0.33150  Biso   1.000  C
  H52      1.0000 0.12350  0.42990  0.35700  Biso   1.000  H
  C89      1.0000 0.26040  0.47140  0.46190  Biso   1.000  C
  Co7      1.0000 0.97413  0.38535  0.25041  Biso   1.000  Co
  Co8      1.0000 0.00515  0.33424  0.08717  Biso   1.000  Co
  O31      1.0000 0.97997  0.25391  0.06580  Biso   1.000  O
  O32      1.0000 0.90824  0.19849  0.99447  Biso   1.000  O
  O33      1.0000 0.74193  0.02308  0.21862  Biso   1.000  O
  O34      1.0000 0.75707  0.02271  0.09592  Biso   1.000  O
  O35      1.0000 0.93694  0.16282  0.31570  Biso   1.000  O
  O36      1.0000 0.04754  0.33891  0.18450  Biso   1.000  O
  O37      1.0000 0.03685  0.37860  0.28710  Biso   1.000  O
  O38      1.0000 0.28529  0.36776  0.25210  Biso   1.000  O
  O39      1.0000 0.22247  0.33117  0.16010  Biso   1.000  O
  O40      1.0000 0.21608  0.46703  0.41810  Biso   1.000  O
  C90      1.0000 0.27420  0.51500  0.52270  Biso   1.000  C
  C91      1.0000 0.29100  0.49690  0.59890  Biso   1.000  C
  C92      1.0000 0.24570  0.48950  0.54510  Biso   1.000  C
  C93      1.0000 0.60017  0.54423  0.38953  Biso   1.000  C
  C94      1.0000 0.57367  0.50503  0.45343  Biso   1.000  C
  C95      1.0000 0.52207  0.45763  0.44363  Biso   1.000  C
  H53      1.0000 0.50487  0.44863  0.39563  Biso   1.000  H
  C96      1.0000 0.49599  0.42367  0.50463  Biso   1.000  C
  C97      1.0000 0.43867  0.37563  0.49533  Biso   1.000  C
  C98      1.0000 0.52102  0.43549  0.57553  Biso   1.000  C
  H54      1.0000 0.50237  0.41263  0.61753  Biso   1.000  H
  C99      1.0000 0.57387  0.48153  0.58273  Biso   1.000  C
  C100     1.0000 0.59987  0.51693  0.52283  Biso   1.000  C
  H55      1.0000 0.63537  0.54913  0.52913  Biso   1.000  H
  C101     1.0000 0.58377  0.45713  0.71053  Biso   1.000  C
  H56      1.0000 0.57587  0.42003  0.69303  Biso   1.000  H
  H57      1.0000 0.54927  0.45373  0.73163  Biso   1.000  H
  C102     1.0000 0.62867  0.47903  0.76863  Biso   1.000  C
  H58      1.0000 0.63437  0.51493  0.78793  Biso   1.000  H
  H59      1.0000 0.66387  0.48583  0.74523  Biso   1.000  H
  C103     1.0000 0.61447  0.43883  0.83333  Biso   1.000  C
  H60      1.0000 0.57667  0.42683  0.85083  Biso   1.000  H
  H61      1.0000 0.64087  0.45733  0.87453  Biso   1.000  H
  H62      1.0000 0.61677  0.40653  0.81663  Biso   1.000  H
  C104     1.0000 0.73217  0.69843  0.57823  Biso   1.000  C
  C105     1.0000 0.78907  0.71543  0.60283  Biso   1.000  C
  C106     1.0000 0.82067  0.69683  0.56543  Biso   1.000  C
  H63      1.0000 0.80607  0.67373  0.52243  Biso   1.000  H
  C107     1.0000 0.87377  0.71233  0.59153  Biso   1.000  C
  C108     1.0000 0.90757  0.69103  0.55393  Biso   1.000  C
  C109     1.0000 0.89537  0.74633  0.65423  Biso   1.000  C
  H64      1.0000 0.93127  0.75603  0.67243  Biso   1.000  H
  C110     1.0000 0.86477  0.76593  0.68993  Biso   1.000  C
  C111     1.0000 0.81147  0.75013  0.66483  Biso   1.000  C
  H65      1.0000 0.79017  0.76323  0.69033  Biso   1.000  H
  C112     1.0000 0.92707  0.80473  0.79523  Biso   1.000  C
  Co9      1.0000 0.64080  0.71868  0.58374  Biso   1.000  Co
  Co10     1.0000 0.67182  0.66757  0.42050  Biso   1.000  Co
  O41      1.0000 0.64664  0.58724  0.39913  Biso   1.000  O
  O42      1.0000 0.57491  0.53182  0.32780  Biso   1.000  O
  O43      1.0000 0.40860  0.35641  0.55195  Biso   1.000  O
  O44      1.0000 0.42374  0.35604  0.42925  Biso   1.000  O
  O45      1.0000 0.60361  0.49615  0.64903  Biso   1.000  O
  O46      1.0000 0.71421  0.67224  0.51783  Biso   1.000  O
  O47      1.0000 0.70352  0.71193  0.62043  Biso   1.000  O
  O48      1.0000 0.95196  0.70109  0.58543  Biso   1.000  O
  O49      1.0000 0.88914  0.66450  0.49343  Biso   1.000  O
  O50      1.0000 0.88275  0.80036  0.75143  Biso   1.000  O
  C113     1.0000 0.94087  0.84833  0.85603  Biso   1.000  C
  C114     1.0000 0.95767  0.83023  0.93223  Biso   1.000  C
  C115     1.0000 0.91237  0.82283  0.87843  Biso   1.000  C
  C116     1.0000 0.26683  0.87757  0.72287  Biso   1.000  C
  C117     1.0000 0.24033  0.83837  0.78677  Biso   1.000  C
  C118     1.0000 0.18873  0.79097  0.77697  Biso   1.000  C
  H66      1.0000 0.17153  0.78197  0.72897  Biso   1.000  H
  C119     1.0000 0.16265  0.75701  0.83797  Biso   1.000  C
  C120     1.0000 0.10533  0.70897  0.82867  Biso   1.000  C
  C121     1.0000 0.18768  0.76883  0.90887  Biso   1.000  C
  H67      1.0000 0.16903  0.74597  0.95087  Biso   1.000  H
  C122     1.0000 0.24053  0.81487  0.91607  Biso   1.000  C
  C123     1.0000 0.26653  0.85027  0.85617  Biso   1.000  C
  H68      1.0000 0.30203  0.88247  0.86247  Biso   1.000  H
  C124     1.0000 0.25043  0.79047  0.04387  Biso   1.000  C
  H69      1.0000 0.24253  0.75337  0.02637  Biso   1.000  H
  H70      1.0000 0.21593  0.78707  0.06497  Biso   1.000  H
  C125     1.0000 0.29533  0.81237  0.10197  Biso   1.000  C
  H71      1.0000 0.30103  0.84827  0.12127  Biso   1.000  H
  H72      1.0000 0.33053  0.81917  0.07857  Biso   1.000  H
  C126     1.0000 0.28113  0.77217  0.16667  Biso   1.000  C
  H73      1.0000 0.24333  0.76017  0.18417  Biso   1.000  H
  H74      1.0000 0.30753  0.79067  0.20787  Biso   1.000  H
  H75      1.0000 0.28343  0.73987  0.14997  Biso   1.000  H
  C127     1.0000 0.39883  0.03177  0.91157  Biso   1.000  C
  C128     1.0000 0.45573  0.04877  0.93617  Biso   1.000  C
  C129     1.0000 0.48733  0.03017  0.89877  Biso   1.000  C
  H76      1.0000 0.47273  0.00707  0.85577  Biso   1.000  H
  C130     1.0000 0.54043  0.04567  0.92487  Biso   1.000  C
  C131     1.0000 0.57423  0.02437  0.88727  Biso   1.000  C
  C132     1.0000 0.56203  0.07967  0.98757  Biso   1.000  C
  H77      1.0000 0.59793  0.08937  0.00577  Biso   1.000  H
  C133     1.0000 0.53143  0.09927  0.02327  Biso   1.000  C
  C134     1.0000 0.47813  0.08347  0.99817  Biso   1.000  C
  H78      1.0000 0.45683  0.09657  0.02367  Biso   1.000  H
  C135     1.0000 0.59373  0.13807  0.12857  Biso   1.000  C
  Co11     1.0000 0.30746  0.05202  0.91708  Biso   1.000  Co
  Co12     1.0000 0.33848  0.00091  0.75384  Biso   1.000  Co
  O51      1.0000 0.31330  0.92058  0.73247  Biso   1.000  O
  O52      1.0000 0.24157  0.86516  0.66114  Biso   1.000  O
  O53      1.0000 0.07526  0.68975  0.88529  Biso   1.000  O
  O54      1.0000 0.09040  0.68938  0.76259  Biso   1.000  O
  O55      1.0000 0.27027  0.82949  0.98237  Biso   1.000  O
  O56      1.0000 0.38087  0.00558  0.85117  Biso   1.000  O
  O57      1.0000 0.37018  0.04527  0.95377  Biso   1.000  O
  O58      1.0000 0.61862  0.03443  0.91877  Biso   1.000  O
  O59      1.0000 0.55580  0.99784  0.82677  Biso   1.000  O
  O60      1.0000 0.54941  0.13370  0.08477  Biso   1.000  O
  C136     1.0000 0.60753  0.18167  0.18937  Biso   1.000  C
  C137     1.0000 0.62433  0.16357  0.26557  Biso   1.000  C
  C138     1.0000 0.57903  0.15617  0.21177  Biso   1.000  C
  C139     1.0000 0.78910  0.72260  0.05620  Biso   1.000  C
  C140     1.0000 0.82830  0.73530  0.12010  Biso   1.000  C
  C141     1.0000 0.87570  0.73110  0.11030  Biso   1.000  C
  H79      1.0000 0.88470  0.72290  0.06230  Biso   1.000  H
  C142     1.0000 0.90966  0.73898  0.17130  Biso   1.000  C
  C143     1.0000 0.95770  0.72970  0.16200  Biso   1.000  C
  C144     1.0000 0.89784  0.75219  0.24220  Biso   1.000  C
  H80      1.0000 0.92070  0.75640  0.28420  Biso   1.000  H
  C145     1.0000 0.85180  0.75900  0.24940  Biso   1.000  C
  C146     1.0000 0.81640  0.74960  0.18950  Biso   1.000  C
  H81      1.0000 0.78420  0.75290  0.19580  Biso   1.000  H
  C147     1.0000 0.87620  0.79330  0.37720  Biso   1.000  C
  H82      1.0000 0.91330  0.82250  0.35970  Biso   1.000  H
  H83      1.0000 0.87960  0.76220  0.39830  Biso   1.000  H
  C148     1.0000 0.85430  0.81630  0.43530  Biso   1.000  C
  H84      1.0000 0.81840  0.78610  0.45460  Biso   1.000  H
  H85      1.0000 0.84750  0.84470  0.41190  Biso   1.000  H
  C149     1.0000 0.89450  0.84230  0.50000  Biso   1.000  C
  H86      1.0000 0.90650  0.81650  0.51750  Biso   1.000  H
  H87      1.0000 0.87600  0.85020  0.54120  Biso   1.000  H
  H88      1.0000 0.92680  0.87690  0.48330  Biso   1.000  H
  C150     1.0000 0.63490  0.70040  0.24490  Biso   1.000  C
  C151     1.0000 0.61790  0.74030  0.26950  Biso   1.000  C
  C152     1.0000 0.63650  0.79050  0.23210  Biso   1.000  C
  H89      1.0000 0.65960  0.79900  0.18910  Biso   1.000  H
  C153     1.0000 0.62100  0.82810  0.25820  Biso   1.000  C
  C154     1.0000 0.64230  0.88320  0.22060  Biso   1.000  C
  C155     1.0000 0.58700  0.81570  0.32090  Biso   1.000  C
  H90      1.0000 0.57730  0.84190  0.33910  Biso   1.000  H
  C156     1.0000 0.56740  0.76550  0.35660  Biso   1.000  C
  C157     1.0000 0.58320  0.72800  0.33150  Biso   1.000  C
  H91      1.0000 0.57010  0.69360  0.35700  Biso   1.000  H
  C158     1.0000 0.52860  0.78900  0.46190  Biso   1.000  C
  Co13     1.0000 0.61465  0.58878  0.25041  Biso   1.000  Co
  Co14     1.0000 0.66576  0.67091  0.08717  Biso   1.000  Co
  O61      1.0000 0.74609  0.72606  0.06580  Biso   1.000  O
  O62      1.0000 0.80151  0.70975  0.99447  Biso   1.000  O
  O63      1.0000 0.97692  0.71885  0.21862  Biso   1.000  O
  O64      1.0000 0.97729  0.73436  0.09592  Biso   1.000  O
  O65      1.0000 0.83718  0.77412  0.31570  Biso   1.000  O
  O66      1.0000 0.66109  0.70863  0.18450  Biso   1.000  O
  O67      1.0000 0.62140  0.65825  0.28710  Biso   1.000  O
  O68      1.0000 0.63224  0.91753  0.25210  Biso   1.000  O
  O69      1.0000 0.66883  0.89130  0.16010  Biso   1.000  O
  O70      1.0000 0.53297  0.74905  0.41810  Biso   1.000  O
  C159     1.0000 0.48500  0.75920  0.52270  Biso   1.000  C
  C160     1.0000 0.50310  0.79410  0.59890  Biso   1.000  C
  C161     1.0000 0.51050  0.75620  0.54510  Biso   1.000  C
  C162     1.0000 0.45577  0.05593  0.38953  Biso   1.000  C
  C163     1.0000 0.49497  0.06863  0.45343  Biso   1.000  C
  C164     1.0000 0.54237  0.06443  0.44363  Biso   1.000  C
  H92      1.0000 0.55137  0.05623  0.39563  Biso   1.000  H
  C165     1.0000 0.57633  0.07231  0.50463  Biso   1.000  C
  C166     1.0000 0.62437  0.06303  0.49533  Biso   1.000  C
  C167     1.0000 0.56451  0.08552  0.57553  Biso   1.000  C
  H93      1.0000 0.58737  0.08973  0.61753  Biso   1.000  H
  C168     1.0000 0.51847  0.09233  0.58273  Biso   1.000  C
  C169     1.0000 0.48307  0.08293  0.52283  Biso   1.000  C
  H94      1.0000 0.45087  0.08623  0.52913  Biso   1.000  H
  C170     1.0000 0.54287  0.12663  0.71053  Biso   1.000  C
  H95      1.0000 0.57997  0.15583  0.69303  Biso   1.000  H
  H96      1.0000 0.54627  0.09553  0.73163  Biso   1.000  H
  C171     1.0000 0.52097  0.14963  0.76863  Biso   1.000  C
  H97      1.0000 0.48507  0.11943  0.78793  Biso   1.000  H
  H98      1.0000 0.51417  0.17803  0.74523  Biso   1.000  H
  C172     1.0000 0.56117  0.17563  0.83333  Biso   1.000  C
  H99      1.0000 0.57317  0.14983  0.85083  Biso   1.000  H
  H100     1.0000 0.54267  0.18353  0.87453  Biso   1.000  H
  H101     1.0000 0.59347  0.21023  0.81663  Biso   1.000  H
  C173     1.0000 0.30157  0.03373  0.57823  Biso   1.000  C
  C174     1.0000 0.28457  0.07363  0.60283  Biso   1.000  C
  C175     1.0000 0.30317  0.12383  0.56543  Biso   1.000  C
  H102     1.0000 0.32627  0.13233  0.52243  Biso   1.000  H
  C176     1.0000 0.28767  0.16143  0.59153  Biso   1.000  C
  C177     1.0000 0.30897  0.21653  0.55393  Biso   1.000  C
  C178     1.0000 0.25367  0.14903  0.65423  Biso   1.000  C
  H103     1.0000 0.24397  0.17523  0.67243  Biso   1.000  H
  C179     1.0000 0.23407  0.09883  0.68993  Biso   1.000  C
  C180     1.0000 0.24987  0.06133  0.66483  Biso   1.000  C
  H104     1.0000 0.23677  0.02693  0.69033  Biso   1.000  H
  C181     1.0000 0.19527  0.12233  0.79523  Biso   1.000  C
  Co15     1.0000 0.28132  0.92211  0.58374  Biso   1.000  Co
  Co16     1.0000 0.33243  0.00424  0.42050  Biso   1.000  Co
  O71      1.0000 0.41276  0.05939  0.39913  Biso   1.000  O
  O72      1.0000 0.46818  0.04308  0.32780  Biso   1.000  O
  O73      1.0000 0.64359  0.05218  0.55195  Biso   1.000  O
  O74      1.0000 0.64396  0.06769  0.42925  Biso   1.000  O
  O75      1.0000 0.50385  0.10745  0.64903  Biso   1.000  O
  O76      1.0000 0.32776  0.04196  0.51783  Biso   1.000  O
  O77      1.0000 0.28807  0.99158  0.62043  Biso   1.000  O
  O78      1.0000 0.29891  0.25086  0.58543  Biso   1.000  O
  O79      1.0000 0.33550  0.22463  0.49343  Biso   1.000  O
  O80      1.0000 0.19964  0.08238  0.75143  Biso   1.000  O
  C182     1.0000 0.15167  0.09253  0.85603  Biso   1.000  C
  C183     1.0000 0.16977  0.12743  0.93223  Biso   1.000  C
  C184     1.0000 0.17717  0.08953  0.87843  Biso   1.000  C
  C185     1.0000 0.12243  0.38927  0.72287  Biso   1.000  C
  C186     1.0000 0.16163  0.40197  0.78677  Biso   1.000  C
  C187     1.0000 0.20903  0.39777  0.77697  Biso   1.000  C
  H105     1.0000 0.21803  0.38957  0.72897  Biso   1.000  H
  C188     1.0000 0.24299  0.40565  0.83797  Biso   1.000  C
  C189     1.0000 0.29103  0.39637  0.82867  Biso   1.000  C
  C190     1.0000 0.23117  0.41886  0.90887  Biso   1.000  C
  H106     1.0000 0.25403  0.42307  0.95087  Biso   1.000  H
  C191     1.0000 0.18513  0.42567  0.91607  Biso   1.000  C
  C192     1.0000 0.14973  0.41627  0.85617  Biso   1.000  C
  H107     1.0000 0.11753  0.41957  0.86247  Biso   1.000  H
  C193     1.0000 0.20953  0.45997  0.04387  Biso   1.000  C
  H108     1.0000 0.24663  0.48917  0.02637  Biso   1.000  H
  H109     1.0000 0.21293  0.42887  0.06497  Biso   1.000  H
  C194     1.0000 0.18763  0.48297  0.10197  Biso   1.000  C
  H110     1.0000 0.15173  0.45277  0.12127  Biso   1.000  H
  H111     1.0000 0.18083  0.51137  0.07857  Biso   1.000  H
  C195     1.0000 0.22783  0.50897  0.16667  Biso   1.000  C
  H112     1.0000 0.23983  0.48317  0.18417  Biso   1.000  H
  H113     1.0000 0.20933  0.51687  0.20787  Biso   1.000  H
  H114     1.0000 0.26013  0.54357  0.14997  Biso   1.000  H
  C196     1.0000 0.96823  0.36707  0.91157  Biso   1.000  C
  C197     1.0000 0.95123  0.40697  0.93617  Biso   1.000  C
  C198     1.0000 0.96983  0.45717  0.89877  Biso   1.000  C
  H115     1.0000 0.99293  0.46567  0.85577  Biso   1.000  H
  C199     1.0000 0.95433  0.49477  0.92487  Biso   1.000  C
  C200     1.0000 0.97563  0.54987  0.88727  Biso   1.000  C
  C201     1.0000 0.92033  0.48237  0.98757  Biso   1.000  C
  H116     1.0000 0.91063  0.50857  0.00577  Biso   1.000  H
  C202     1.0000 0.90073  0.43217  0.02327  Biso   1.000  C
  C203     1.0000 0.91653  0.39467  0.99817  Biso   1.000  C
  H117     1.0000 0.90343  0.36027  0.02367  Biso   1.000  H
  C204     1.0000 0.86193  0.45567  0.12857  Biso   1.000  C
  Co17     1.0000 0.94798  0.25545  0.91708  Biso   1.000  Co
  Co18     1.0000 0.99909  0.33758  0.75384  Biso   1.000  Co
  O81      1.0000 0.07942  0.39273  0.73247  Biso   1.000  O
  O82      1.0000 0.13484  0.37642  0.66114  Biso   1.000  O
  O83      1.0000 0.31025  0.38552  0.88529  Biso   1.000  O
  O84      1.0000 0.31062  0.40103  0.76259  Biso   1.000  O
  O85      1.0000 0.17051  0.44079  0.98237  Biso   1.000  O
  O86      1.0000 0.99442  0.37530  0.85117  Biso   1.000  O
  O87      1.0000 0.95473  0.32492  0.95377  Biso   1.000  O
  O88      1.0000 0.96557  0.58420  0.91877  Biso   1.000  O
  O89      1.0000 0.00216  0.55797  0.82677  Biso   1.000  O
  O90      1.0000 0.86630  0.41572  0.08477  Biso   1.000  O
  C205     1.0000 0.81833  0.42587  0.18937  Biso   1.000  C
  C206     1.0000 0.83643  0.46077  0.26557  Biso   1.000  C
  C207     1.0000 0.84383  0.42287  0.21177  Biso   1.000  C
  C208     1.0000 0.72260  0.93350  0.94380  Biso   1.000  C
  C209     1.0000 0.73530  0.90700  0.87990  Biso   1.000  C
  C210     1.0000 0.73110  0.85540  0.88970  Biso   1.000  C
  H118     1.0000 0.72290  0.83820  0.93770  Biso   1.000  H
  C211     1.0000 0.73898  0.82932  0.82870  Biso   1.000  C
  C212     1.0000 0.72970  0.77200  0.83800  Biso   1.000  C
  C213     1.0000 0.75219  0.85435  0.75780  Biso   1.000  C
  H119     1.0000 0.75640  0.83570  0.71580  Biso   1.000  H
  C214     1.0000 0.75900  0.90720  0.75060  Biso   1.000  C
  C215     1.0000 0.74960  0.93320  0.81050  Biso   1.000  C
  H120     1.0000 0.75290  0.96870  0.80420  Biso   1.000  H
  C216     1.0000 0.79330  0.91710  0.62280  Biso   1.000  C
  H121     1.0000 0.82250  0.90920  0.64030  Biso   1.000  H
  H122     1.0000 0.76220  0.88260  0.60170  Biso   1.000  H
  C217     1.0000 0.81630  0.96200  0.56470  Biso   1.000  C
  H123     1.0000 0.78610  0.96770  0.54540  Biso   1.000  H
  H124     1.0000 0.84470  0.99720  0.58810  Biso   1.000  H
  C218     1.0000 0.84230  0.94780  0.50000  Biso   1.000  C
  H125     1.0000 0.81650  0.91000  0.48250  Biso   1.000  H
  H126     1.0000 0.85020  0.97420  0.45880  Biso   1.000  H
  H127     1.0000 0.87690  0.95010  0.51670  Biso   1.000  H
  C219     1.0000 0.70040  0.06550  0.75510  Biso   1.000  C
  C220     1.0000 0.74030  0.12240  0.73050  Biso   1.000  C
  C221     1.0000 0.79050  0.15400  0.76790  Biso   1.000  C
  H128     1.0000 0.79900  0.13940  0.81090  Biso   1.000  H
  C222     1.0000 0.82810  0.20710  0.74180  Biso   1.000  C
  C223     1.0000 0.88320  0.24090  0.77940  Biso   1.000  C
  C224     1.0000 0.81570  0.22870  0.67910  Biso   1.000  C
  H129     1.0000 0.84190  0.26460  0.66090  Biso   1.000  H
  C225     1.0000 0.76550  0.19810  0.64340  Biso   1.000  C
  C226     1.0000 0.72800  0.14480  0.66850  Biso   1.000  C
  H130     1.0000 0.69360  0.12350  0.64300  Biso   1.000  H
  C227     1.0000 0.78900  0.26040  0.53810  Biso   1.000  C
  Co19     1.0000 0.58878  0.97413  0.74959  Biso   1.000  Co
  Co20     1.0000 0.67091  0.00515  0.91283  Biso   1.000  Co
  O91      1.0000 0.72606  0.97997  0.93420  Biso   1.000  O
  O92      1.0000 0.70975  0.90824  0.00553  Biso   1.000  O
  O93      1.0000 0.71885  0.74193  0.78138  Biso   1.000  O
  O94      1.0000 0.73436  0.75707  0.90408  Biso   1.000  O
  O95      1.0000 0.77412  0.93694  0.68430  Biso   1.000  O
  O96      1.0000 0.70863  0.04754  0.81550  Biso   1.000  O
  O97      1.0000 0.65825  0.03685  0.71290  Biso   1.000  O
  O98      1.0000 0.91753  0.28529  0.74790  Biso   1.000  O
  O99      1.0000 0.89130  0.22247  0.83990  Biso   1.000  O
  O100     1.0000 0.74905  0.21608  0.58190  Biso   1.000  O
  C228     1.0000 0.75920  0.27420  0.47730  Biso   1.000  C
  C229     1.0000 0.79410  0.29100  0.40110  Biso   1.000  C
  C230     1.0000 0.75620  0.24570  0.45490  Biso   1.000  C
  C231     1.0000 0.38927  0.26683  0.27713  Biso   1.000  C
  C232     1.0000 0.40197  0.24033  0.21323  Biso   1.000  C
  C233     1.0000 0.39777  0.18873  0.22303  Biso   1.000  C
  H131     1.0000 0.38957  0.17153  0.27103  Biso   1.000  H
  C234     1.0000 0.40565  0.16265  0.16203  Biso   1.000  C
  C235     1.0000 0.39637  0.10533  0.17133  Biso   1.000  C
  C236     1.0000 0.41886  0.18768  0.09113  Biso   1.000  C
  H132     1.0000 0.42307  0.16903  0.04913  Biso   1.000  H
  C237     1.0000 0.42567  0.24053  0.08393  Biso   1.000  C
  C238     1.0000 0.41627  0.26653  0.14383  Biso   1.000  C
  H133     1.0000 0.41957  0.30203  0.13753  Biso   1.000  H
  C239     1.0000 0.45997  0.25043  0.95613  Biso   1.000  C
  H134     1.0000 0.48917  0.24253  0.97363  Biso   1.000  H
  H135     1.0000 0.42887  0.21593  0.93503  Biso   1.000  H
  C240     1.0000 0.48297  0.29533  0.89803  Biso   1.000  C
  H136     1.0000 0.45277  0.30103  0.87873  Biso   1.000  H
  H137     1.0000 0.51137  0.33053  0.92143  Biso   1.000  H
  C241     1.0000 0.50897  0.28113  0.83333  Biso   1.000  C
  H138     1.0000 0.48317  0.24333  0.81583  Biso   1.000  H
  H139     1.0000 0.51687  0.30753  0.79213  Biso   1.000  H
  H140     1.0000 0.54357  0.28343  0.85003  Biso   1.000  H
  C242     1.0000 0.36707  0.39883  0.08843  Biso   1.000  C
  C243     1.0000 0.40697  0.45573  0.06383  Biso   1.000  C
  C244     1.0000 0.45717  0.48733  0.10123  Biso   1.000  C
  H141     1.0000 0.46567  0.47273  0.14423  Biso   1.000  H
  C245     1.0000 0.49477  0.54043  0.07513  Biso   1.000  C
  C246     1.0000 0.54987  0.57423  0.11273  Biso   1.000  C
  C247     1.0000 0.48237  0.56203  0.01243  Biso   1.000  C
  H142     1.0000 0.50857  0.59793  0.99423  Biso   1.000  H
  C248     1.0000 0.43217  0.53143  0.97673  Biso   1.000  C
  C249     1.0000 0.39467  0.47813  0.00183  Biso   1.000  C
  H143     1.0000 0.36027  0.45683  0.97633  Biso   1.000  H
  C250     1.0000 0.45567  0.59373  0.87143  Biso   1.000  C
  Co21     1.0000 0.25545  0.30746  0.08292  Biso   1.000  Co
  Co22     1.0000 0.33758  0.33848  0.24616  Biso   1.000  Co
  O101     1.0000 0.39273  0.31330  0.26753  Biso   1.000  O
  O102     1.0000 0.37642  0.24157  0.33886  Biso   1.000  O
  O103     1.0000 0.38552  0.07526  0.11471  Biso   1.000  O
  O104     1.0000 0.40103  0.09040  0.23741  Biso   1.000  O
  O105     1.0000 0.44079  0.27027  0.01763  Biso   1.000  O
  O106     1.0000 0.37530  0.38087  0.14883  Biso   1.000  O
  O107     1.0000 0.32492  0.37018  0.04623  Biso   1.000  O
  O108     1.0000 0.58420  0.61862  0.08123  Biso   1.000  O
  O109     1.0000 0.55797  0.55580  0.17323  Biso   1.000  O
  O110     1.0000 0.41572  0.54941  0.91523  Biso   1.000  O
  C251     1.0000 0.42587  0.60753  0.81063  Biso   1.000  C
  C252     1.0000 0.46077  0.62433  0.73443  Biso   1.000  C
  C253     1.0000 0.42287  0.57903  0.78823  Biso   1.000  C
  C254     1.0000 0.05593  0.60017  0.61047  Biso   1.000  C
  C255     1.0000 0.06863  0.57367  0.54657  Biso   1.000  C
  C256     1.0000 0.06443  0.52207  0.55637  Biso   1.000  C
  H144     1.0000 0.05623  0.50487  0.60437  Biso   1.000  H
  C257     1.0000 0.07231  0.49599  0.49537  Biso   1.000  C
  C258     1.0000 0.06303  0.43867  0.50467  Biso   1.000  C
  C259     1.0000 0.08552  0.52102  0.42447  Biso   1.000  C
  H145     1.0000 0.08973  0.50237  0.38247  Biso   1.000  H
  C260     1.0000 0.09233  0.57387  0.41727  Biso   1.000  C
  C261     1.0000 0.08293  0.59987  0.47717  Biso   1.000  C
  H146     1.0000 0.08623  0.63537  0.47087  Biso   1.000  H
  C262     1.0000 0.12663  0.58377  0.28947  Biso   1.000  C
  H147     1.0000 0.15583  0.57587  0.30697  Biso   1.000  H
  H148     1.0000 0.09553  0.54927  0.26837  Biso   1.000  H
  C263     1.0000 0.14963  0.62867  0.23137  Biso   1.000  C
  H149     1.0000 0.11943  0.63437  0.21207  Biso   1.000  H
  H150     1.0000 0.17803  0.66387  0.25477  Biso   1.000  H
  C264     1.0000 0.17563  0.61447  0.16667  Biso   1.000  C
  H151     1.0000 0.14983  0.57667  0.14917  Biso   1.000  H
  H152     1.0000 0.18353  0.64087  0.12547  Biso   1.000  H
  H153     1.0000 0.21023  0.61677  0.18337  Biso   1.000  H
  C265     1.0000 0.03373  0.73217  0.42177  Biso   1.000  C
  C266     1.0000 0.07363  0.78907  0.39717  Biso   1.000  C
  C267     1.0000 0.12383  0.82067  0.43457  Biso   1.000  C
  H154     1.0000 0.13233  0.80607  0.47757  Biso   1.000  H
  C268     1.0000 0.16143  0.87377  0.40847  Biso   1.000  C
  C269     1.0000 0.21653  0.90757  0.44607  Biso   1.000  C
  C270     1.0000 0.14903  0.89537  0.34577  Biso   1.000  C
  H155     1.0000 0.17523  0.93127  0.32757  Biso   1.000  H
  C271     1.0000 0.09883  0.86477  0.31007  Biso   1.000  C
  C272     1.0000 0.06133  0.81147  0.33517  Biso   1.000  C
  H156     1.0000 0.02693  0.79017  0.30967  Biso   1.000  H
  C273     1.0000 0.12233  0.92707  0.20477  Biso   1.000  C
  Co23     1.0000 0.92211  0.64080  0.41626  Biso   1.000  Co
  Co24     1.0000 0.00424  0.67182  0.57950  Biso   1.000  Co
  O111     1.0000 0.05939  0.64664  0.60087  Biso   1.000  O
  O112     1.0000 0.04308  0.57491  0.67220  Biso   1.000  O
  O113     1.0000 0.05218  0.40860  0.44805  Biso   1.000  O
  O114     1.0000 0.06769  0.42374  0.57075  Biso   1.000  O
  O115     1.0000 0.10745  0.60361  0.35097  Biso   1.000  O
  O116     1.0000 0.04196  0.71421  0.48217  Biso   1.000  O
  O117     1.0000 0.99158  0.70352  0.37957  Biso   1.000  O
  O118     1.0000 0.25086  0.95196  0.41457  Biso   1.000  O
  O119     1.0000 0.22463  0.88914  0.50657  Biso   1.000  O
  O120     1.0000 0.08238  0.88275  0.24857  Biso   1.000  O
  C274     1.0000 0.09253  0.94087  0.14397  Biso   1.000  C
  C275     1.0000 0.12743  0.95767  0.06777  Biso   1.000  C
  C276     1.0000 0.08953  0.91237  0.12157  Biso   1.000  C
  C277     1.0000 0.06650  0.78910  0.94380  Biso   1.000  C
  C278     1.0000 0.09300  0.82830  0.87990  Biso   1.000  C
  C279     1.0000 0.14460  0.87570  0.88970  Biso   1.000  C
  H157     1.0000 0.16180  0.88470  0.93770  Biso   1.000  H
  C280     1.0000 0.17068  0.90966  0.82870  Biso   1.000  C
  C281     1.0000 0.22800  0.95770  0.83800  Biso   1.000  C
  C282     1.0000 0.14565  0.89784  0.75780  Biso   1.000  C
  H158     1.0000 0.16430  0.92070  0.71580  Biso   1.000  H
  C283     1.0000 0.09280  0.85180  0.75060  Biso   1.000  C
  C284     1.0000 0.06680  0.81640  0.81050  Biso   1.000  C
  H159     1.0000 0.03130  0.78420  0.80420  Biso   1.000  H
  C285     1.0000 0.08290  0.87620  0.62280  Biso   1.000  C
  H160     1.0000 0.09080  0.91330  0.64030  Biso   1.000  H
  H161     1.0000 0.11740  0.87960  0.60170  Biso   1.000  H
  C286     1.0000 0.03800  0.85430  0.56470  Biso   1.000  C
  H162     1.0000 0.03230  0.81840  0.54540  Biso   1.000  H
  H163     1.0000 0.00280  0.84750  0.58810  Biso   1.000  H
  C287     1.0000 0.05220  0.89450  0.50000  Biso   1.000  C
  H164     1.0000 0.09000  0.90650  0.48250  Biso   1.000  H
  H165     1.0000 0.02580  0.87600  0.45880  Biso   1.000  H
  H166     1.0000 0.04990  0.92680  0.51670  Biso   1.000  H
  C288     1.0000 0.93450  0.63490  0.75510  Biso   1.000  C
  C289     1.0000 0.87760  0.61790  0.73050  Biso   1.000  C
  C290     1.0000 0.84600  0.63650  0.76790  Biso   1.000  C
  H167     1.0000 0.86060  0.65960  0.81090  Biso   1.000  H
  C291     1.0000 0.79290  0.62100  0.74180  Biso   1.000  C
  C292     1.0000 0.75910  0.64230  0.77940  Biso   1.000  C
  C293     1.0000 0.77130  0.58700  0.67910  Biso   1.000  C
  H168     1.0000 0.73540  0.57730  0.66090  Biso   1.000  H
  C294     1.0000 0.80190  0.56740  0.64340  Biso   1.000  C
  C295     1.0000 0.85520  0.58320  0.66850  Biso   1.000  C
  H169     1.0000 0.87650  0.57010  0.64300  Biso   1.000  H
  C296     1.0000 0.73960  0.52860  0.53810  Biso   1.000  C
  Co25     1.0000 0.02587  0.61465  0.74959  Biso   1.000  Co
  Co26     1.0000 0.99485  0.66576  0.91283  Biso   1.000  Co
  O121     1.0000 0.02003  0.74609  0.93420  Biso   1.000  O
  O122     1.0000 0.09176  0.80151  0.00553  Biso   1.000  O
  O123     1.0000 0.25807  0.97692  0.78138  Biso   1.000  O
  O124     1.0000 0.24293  0.97729  0.90408  Biso   1.000  O
  O125     1.0000 0.06306  0.83718  0.68430  Biso   1.000  O
  O126     1.0000 0.95246  0.66109  0.81550  Biso   1.000  O
  O127     1.0000 0.96315  0.62140  0.71290  Biso   1.000  O
  O128     1.0000 0.71471  0.63224  0.74790  Biso   1.000  O
  O129     1.0000 0.77753  0.66883  0.83990  Biso   1.000  O
  O130     1.0000 0.78392  0.53297  0.58190  Biso   1.000  O
  C297     1.0000 0.72580  0.48500  0.47730  Biso   1.000  C
  C298     1.0000 0.70900  0.50310  0.40110  Biso   1.000  C
  C299     1.0000 0.75430  0.51050  0.45490  Biso   1.000  C
  C300     1.0000 0.73317  0.12243  0.27713  Biso   1.000  C
  C301     1.0000 0.75967  0.16163  0.21323  Biso   1.000  C
  C302     1.0000 0.81127  0.20903  0.22303  Biso   1.000  C
  H170     1.0000 0.82847  0.21803  0.27103  Biso   1.000  H
  C303     1.0000 0.83735  0.24299  0.16203  Biso   1.000  C
  C304     1.0000 0.89467  0.29103  0.17133  Biso   1.000  C
  C305     1.0000 0.81232  0.23117  0.09113  Biso   1.000  C
  H171     1.0000 0.83097  0.25403  0.04913  Biso   1.000  H
  C306     1.0000 0.75947  0.18513  0.08393  Biso   1.000  C
  C307     1.0000 0.73347  0.14973  0.14383  Biso   1.000  C
  H172     1.0000 0.69797  0.11753  0.13753  Biso   1.000  H
  C308     1.0000 0.74957  0.20953  0.95613  Biso   1.000  C
  H173     1.0000 0.75747  0.24663  0.97363  Biso   1.000  H
  H174     1.0000 0.78407  0.21293  0.93503  Biso   1.000  H
  C309     1.0000 0.70467  0.18763  0.89803  Biso   1.000  C
  H175     1.0000 0.69897  0.15173  0.87873  Biso   1.000  H
  H176     1.0000 0.66947  0.18083  0.92143  Biso   1.000  H
  C310     1.0000 0.71887  0.22783  0.83333  Biso   1.000  C
  H177     1.0000 0.75667  0.23983  0.81583  Biso   1.000  H
  H178     1.0000 0.69247  0.20933  0.79213  Biso   1.000  H
  H179     1.0000 0.71657  0.26013  0.85003  Biso   1.000  H
  C311     1.0000 0.60117  0.96823  0.08843  Biso   1.000  C
  C312     1.0000 0.54427  0.95123  0.06383  Biso   1.000  C
  C313     1.0000 0.51267  0.96983  0.10123  Biso   1.000  C
  H180     1.0000 0.52727  0.99293  0.14423  Biso   1.000  H
  C314     1.0000 0.45957  0.95433  0.07513  Biso   1.000  C
  C315     1.0000 0.42577  0.97563  0.11273  Biso   1.000  C
  C316     1.0000 0.43797  0.92033  0.01243  Biso   1.000  C
  H181     1.0000 0.40207  0.91063  0.99423  Biso   1.000  H
  C317     1.0000 0.46857  0.90073  0.97673  Biso   1.000  C
  C318     1.0000 0.52187  0.91653  0.00183  Biso   1.000  C
  H182     1.0000 0.54317  0.90343  0.97633  Biso   1.000  H
  C319     1.0000 0.40627  0.86193  0.87143  Biso   1.000  C
  Co27     1.0000 0.69254  0.94798  0.08292  Biso   1.000  Co
  Co28     1.0000 0.66152  0.99909  0.24616  Biso   1.000  Co
  O131     1.0000 0.68670  0.07942  0.26753  Biso   1.000  O
  O132     1.0000 0.75843  0.13484  0.33886  Biso   1.000  O
  O133     1.0000 0.92474  0.31025  0.11471  Biso   1.000  O
  O134     1.0000 0.90960  0.31062  0.23741  Biso   1.000  O
  O135     1.0000 0.72973  0.17051  0.01763  Biso   1.000  O
  O136     1.0000 0.61913  0.99442  0.14883  Biso   1.000  O
  O137     1.0000 0.62982  0.95473  0.04623  Biso   1.000  O
  O138     1.0000 0.38138  0.96557  0.08123  Biso   1.000  O
  O139     1.0000 0.44420  0.00216  0.17323  Biso   1.000  O
  O140     1.0000 0.45059  0.86630  0.91523  Biso   1.000  O
  C320     1.0000 0.39247  0.81833  0.81063  Biso   1.000  C
  C321     1.0000 0.37567  0.83643  0.73443  Biso   1.000  C
  C322     1.0000 0.42097  0.84383  0.78823  Biso   1.000  C
  C323     1.0000 0.39983  0.45577  0.61047  Biso   1.000  C
  C324     1.0000 0.42633  0.49497  0.54657  Biso   1.000  C
  C325     1.0000 0.47793  0.54237  0.55637  Biso   1.000  C
  H183     1.0000 0.49513  0.55137  0.60437  Biso   1.000  H
  C326     1.0000 0.50401  0.57633  0.49537  Biso   1.000  C
  C327     1.0000 0.56133  0.62437  0.50467  Biso   1.000  C
  C328     1.0000 0.47898  0.56451  0.42447  Biso   1.000  C
  H184     1.0000 0.49763  0.58737  0.38247  Biso   1.000  H
  C329     1.0000 0.42613  0.51847  0.41727  Biso   1.000  C
  C330     1.0000 0.40013  0.48307  0.47717  Biso   1.000  C
  H185     1.0000 0.36463  0.45087  0.47087  Biso   1.000  H
  C331     1.0000 0.41623  0.54287  0.28947  Biso   1.000  C
  H186     1.0000 0.42413  0.57997  0.30697  Biso   1.000  H
  H187     1.0000 0.45073  0.54627  0.26837  Biso   1.000  H
  C332     1.0000 0.37133  0.52097  0.23137  Biso   1.000  C
  H188     1.0000 0.36563  0.48507  0.21207  Biso   1.000  H
  H189     1.0000 0.33613  0.51417  0.25477  Biso   1.000  H
  C333     1.0000 0.38553  0.56117  0.16667  Biso   1.000  C
  H190     1.0000 0.42333  0.57317  0.14917  Biso   1.000  H
  H191     1.0000 0.35913  0.54267  0.12547  Biso   1.000  H
  H192     1.0000 0.38323  0.59347  0.18337  Biso   1.000  H
  C334     1.0000 0.26783  0.30157  0.42177  Biso   1.000  C
  C335     1.0000 0.21093  0.28457  0.39717  Biso   1.000  C
  C336     1.0000 0.17933  0.30317  0.43457  Biso   1.000  C
  H193     1.0000 0.19393  0.32627  0.47757  Biso   1.000  H
  C337     1.0000 0.12623  0.28767  0.40847  Biso   1.000  C
  C338     1.0000 0.09243  0.30897  0.44607  Biso   1.000  C
  C339     1.0000 0.10463  0.25367  0.34577  Biso   1.000  C
  H194     1.0000 0.06873  0.24397  0.32757  Biso   1.000  H
  C340     1.0000 0.13523  0.23407  0.31007  Biso   1.000  C
  C341     1.0000 0.18853  0.24987  0.33517  Biso   1.000  C
  H195     1.0000 0.20983  0.23677  0.30967  Biso   1.000  H
  C342     1.0000 0.07293  0.19527  0.20477  Biso   1.000  C
  Co29     1.0000 0.35920  0.28132  0.41626  Biso   1.000  Co
  Co30     1.0000 0.32818  0.33243  0.57950  Biso   1.000  Co
  O141     1.0000 0.35336  0.41276  0.60087  Biso   1.000  O
  O142     1.0000 0.42509  0.46818  0.67220  Biso   1.000  O
  O143     1.0000 0.59140  0.64359  0.44805  Biso   1.000  O
  O144     1.0000 0.57626  0.64396  0.57075  Biso   1.000  O
  O145     1.0000 0.39639  0.50385  0.35097  Biso   1.000  O
  O146     1.0000 0.28579  0.32776  0.48217  Biso   1.000  O
  O147     1.0000 0.29648  0.28807  0.37957  Biso   1.000  O
  O148     1.0000 0.04804  0.29891  0.41457  Biso   1.000  O
  O149     1.0000 0.11086  0.33550  0.50657  Biso   1.000  O
  O150     1.0000 0.11725  0.19964  0.24857  Biso   1.000  O
  C343     1.0000 0.05913  0.15167  0.14397  Biso   1.000  C
  C344     1.0000 0.04233  0.16977  0.06777  Biso   1.000  C
  C345     1.0000 0.08763  0.17717  0.12157  Biso   1.000  C
  C346     1.0000 0.21090  0.27740  0.94380  Biso   1.000  C
  C347     1.0000 0.17170  0.26470  0.87990  Biso   1.000  C
  C348     1.0000 0.12430  0.26890  0.88970  Biso   1.000  C
  H196     1.0000 0.11530  0.27710  0.93770  Biso   1.000  H
  C349     1.0000 0.09034  0.26102  0.82870  Biso   1.000  C
  C350     1.0000 0.04230  0.27030  0.83800  Biso   1.000  C
  C351     1.0000 0.10216  0.24781  0.75780  Biso   1.000  C
  H197     1.0000 0.07930  0.24360  0.71580  Biso   1.000  H
  C352     1.0000 0.14820  0.24100  0.75060  Biso   1.000  C
  C353     1.0000 0.18360  0.25040  0.81050  Biso   1.000  C
  H198     1.0000 0.21580  0.24710  0.80420  Biso   1.000  H
  C354     1.0000 0.12380  0.20670  0.62280  Biso   1.000  C
  H199     1.0000 0.08670  0.17750  0.64030  Biso   1.000  H
  H200     1.0000 0.12040  0.23780  0.60170  Biso   1.000  H
  C355     1.0000 0.14570  0.18370  0.56470  Biso   1.000  C
  H201     1.0000 0.18160  0.21390  0.54540  Biso   1.000  H
  H202     1.0000 0.15250  0.15530  0.58810  Biso   1.000  H
  C356     1.0000 0.10550  0.15770  0.50000  Biso   1.000  C
  H203     1.0000 0.09350  0.18350  0.48250  Biso   1.000  H
  H204     1.0000 0.12400  0.14980  0.45880  Biso   1.000  H
  H205     1.0000 0.07320  0.12310  0.51670  Biso   1.000  H
  C357     1.0000 0.36510  0.29960  0.75510  Biso   1.000  C
  C358     1.0000 0.38210  0.25970  0.73050  Biso   1.000  C
  C359     1.0000 0.36350  0.20950  0.76790  Biso   1.000  C
  H206     1.0000 0.34040  0.20100  0.81090  Biso   1.000  H
  C360     1.0000 0.37900  0.17190  0.74180  Biso   1.000  C
  C361     1.0000 0.35770  0.11680  0.77940  Biso   1.000  C
  C362     1.0000 0.41300  0.18430  0.67910  Biso   1.000  C
  H207     1.0000 0.42270  0.15810  0.66090  Biso   1.000  H
  C363     1.0000 0.43260  0.23450  0.64340  Biso   1.000  C
  C364     1.0000 0.41680  0.27200  0.66850  Biso   1.000  C
  H208     1.0000 0.42990  0.30640  0.64300  Biso   1.000  H
  C365     1.0000 0.47140  0.21100  0.53810  Biso   1.000  C
  Co31     1.0000 0.38535  0.41122  0.74959  Biso   1.000  Co
  Co32     1.0000 0.33424  0.32909  0.91283  Biso   1.000  Co
  O151     1.0000 0.25391  0.27394  0.93420  Biso   1.000  O
  O152     1.0000 0.19849  0.29025  0.00553  Biso   1.000  O
  O153     1.0000 0.02308  0.28115  0.78138  Biso   1.000  O
  O154     1.0000 0.02271  0.26564  0.90408  Biso   1.000  O
  O155     1.0000 0.16282  0.22588  0.68430  Biso   1.000  O
  O156     1.0000 0.33891  0.29137  0.81550  Biso   1.000  O
  O157     1.0000 0.37860  0.34175  0.71290  Biso   1.000  O
  O158     1.0000 0.36776  0.08247  0.74790  Biso   1.000  O
  O159     1.0000 0.33117  0.10870  0.83990  Biso   1.000  O
  O160     1.0000 0.46703  0.25095  0.58190  Biso   1.000  O
  C366     1.0000 0.51500  0.24080  0.47730  Biso   1.000  C
  C367     1.0000 0.49690  0.20590  0.40110  Biso   1.000  C
  C368     1.0000 0.48950  0.24380  0.45490  Biso   1.000  C
  C369     1.0000 0.87757  0.61073  0.27713  Biso   1.000  C
  C370     1.0000 0.83837  0.59803  0.21323  Biso   1.000  C
  C371     1.0000 0.79097  0.60223  0.22303  Biso   1.000  C
  H209     1.0000 0.78197  0.61043  0.27103  Biso   1.000  H
  C372     1.0000 0.75701  0.59435  0.16203  Biso   1.000  C
  C373     1.0000 0.70897  0.60363  0.17133  Biso   1.000  C
  C374     1.0000 0.76883  0.58114  0.09113  Biso   1.000  C
  H210     1.0000 0.74597  0.57693  0.04913  Biso   1.000  H
  C375     1.0000 0.81487  0.57433  0.08393  Biso   1.000  C
  C376     1.0000 0.85027  0.58373  0.14383  Biso   1.000  C
  H211     1.0000 0.88247  0.58043  0.13753  Biso   1.000  H
  C377     1.0000 0.79047  0.54003  0.95613  Biso   1.000  C
  H212     1.0000 0.75337  0.51083  0.97363  Biso   1.000  H
  H213     1.0000 0.78707  0.57113  0.93503  Biso   1.000  H
  C378     1.0000 0.81237  0.51703  0.89803  Biso   1.000  C
  H214     1.0000 0.84827  0.54723  0.87873  Biso   1.000  H
  H215     1.0000 0.81917  0.48863  0.92143  Biso   1.000  H
  C379     1.0000 0.77217  0.49103  0.83333  Biso   1.000  C
  H216     1.0000 0.76017  0.51683  0.81583  Biso   1.000  H
  H217     1.0000 0.79067  0.48313  0.79213  Biso   1.000  H
  H218     1.0000 0.73987  0.45643  0.85003  Biso   1.000  H
  C380     1.0000 0.03177  0.63293  0.08843  Biso   1.000  C
  C381     1.0000 0.04877  0.59303  0.06383  Biso   1.000  C
  C382     1.0000 0.03017  0.54283  0.10123  Biso   1.000  C
  H219     1.0000 0.00707  0.53433  0.14423  Biso   1.000  H
  C383     1.0000 0.04567  0.50523  0.07513  Biso   1.000  C
  C384     1.0000 0.02437  0.45013  0.11273  Biso   1.000  C
  C385     1.0000 0.07967  0.51763  0.01243  Biso   1.000  C
  H220     1.0000 0.08937  0.49143  0.99423  Biso   1.000  H
  C386     1.0000 0.09927  0.56783  0.97673  Biso   1.000  C
  C387     1.0000 0.08347  0.60533  0.00183  Biso   1.000  C
  H221     1.0000 0.09657  0.63973  0.97633  Biso   1.000  H
  C388     1.0000 0.13807  0.54433  0.87143  Biso   1.000  C
  Co33     1.0000 0.05202  0.74455  0.08292  Biso   1.000  Co
  Co34     1.0000 0.00091  0.66242  0.24616  Biso   1.000  Co
  O161     1.0000 0.92058  0.60727  0.26753  Biso   1.000  O
  O162     1.0000 0.86516  0.62358  0.33886  Biso   1.000  O
  O163     1.0000 0.68975  0.61448  0.11471  Biso   1.000  O
  O164     1.0000 0.68938  0.59897  0.23741  Biso   1.000  O
  O165     1.0000 0.82949  0.55921  0.01763  Biso   1.000  O
  O166     1.0000 0.00558  0.62470  0.14883  Biso   1.000  O
  O167     1.0000 0.04527  0.67508  0.04623  Biso   1.000  O
  O168     1.0000 0.03443  0.41580  0.08123  Biso   1.000  O
  O169     1.0000 0.99784  0.44203  0.17323  Biso   1.000  O
  O170     1.0000 0.13370  0.58428  0.91523  Biso   1.000  O
  C389     1.0000 0.18167  0.57413  0.81063  Biso   1.000  C
  C390     1.0000 0.16357  0.53923  0.73443  Biso   1.000  C
  C391     1.0000 0.15617  0.57713  0.78823  Biso   1.000  C
  C392     1.0000 0.54423  0.94407  0.61047  Biso   1.000  C
  C393     1.0000 0.50503  0.93137  0.54657  Biso   1.000  C
  C394     1.0000 0.45763  0.93557  0.55637  Biso   1.000  C
  H222     1.0000 0.44863  0.94377  0.60437  Biso   1.000  H
  C395     1.0000 0.42367  0.92769  0.49537  Biso   1.000  C
  C396     1.0000 0.37563  0.93697  0.50467  Biso   1.000  C
  C397     1.0000 0.43549  0.91448  0.42447  Biso   1.000  C
  H223     1.0000 0.41263  0.91027  0.38247  Biso   1.000  H
  C398     1.0000 0.48153  0.90767  0.41727  Biso   1.000  C
  C399     1.0000 0.51693  0.91707  0.47717  Biso   1.000  C
  H224     1.0000 0.54913  0.91377  0.47087  Biso   1.000  H
  C400     1.0000 0.45713  0.87337  0.28947  Biso   1.000  C
  H225     1.0000 0.42003  0.84417  0.30697  Biso   1.000  H
  H226     1.0000 0.45373  0.90447  0.26837  Biso   1.000  H
  C401     1.0000 0.47903  0.85037  0.23137  Biso   1.000  C
  H227     1.0000 0.51493  0.88057  0.21207  Biso   1.000  H
  H228     1.0000 0.48583  0.82197  0.25477  Biso   1.000  H
  C402     1.0000 0.43883  0.82437  0.16667  Biso   1.000  C
  H229     1.0000 0.42683  0.85017  0.14917  Biso   1.000  H
  H230     1.0000 0.45733  0.81647  0.12547  Biso   1.000  H
  H231     1.0000 0.40653  0.78977  0.18337  Biso   1.000  H
  C403     1.0000 0.69843  0.96627  0.42177  Biso   1.000  C
  C404     1.0000 0.71543  0.92637  0.39717  Biso   1.000  C
  C405     1.0000 0.69683  0.87617  0.43457  Biso   1.000  C
  H232     1.0000 0.67373  0.86767  0.47757  Biso   1.000  H
  C406     1.0000 0.71233  0.83857  0.40847  Biso   1.000  C
  C407     1.0000 0.69103  0.78347  0.44607  Biso   1.000  C
  C408     1.0000 0.74633  0.85097  0.34577  Biso   1.000  C
  H233     1.0000 0.75603  0.82477  0.32757  Biso   1.000  H
  C409     1.0000 0.76593  0.90117  0.31007  Biso   1.000  C
  C410     1.0000 0.75013  0.93867  0.33517  Biso   1.000  C
  H234     1.0000 0.76323  0.97307  0.30967  Biso   1.000  H
  C411     1.0000 0.80473  0.87767  0.20477  Biso   1.000  C
  Co35     1.0000 0.71868  0.07789  0.41626  Biso   1.000  Co
  Co36     1.0000 0.66757  0.99576  0.57950  Biso   1.000  Co
  O171     1.0000 0.58724  0.94061  0.60087  Biso   1.000  O
  O172     1.0000 0.53182  0.95692  0.67220  Biso   1.000  O
  O173     1.0000 0.35641  0.94782  0.44805  Biso   1.000  O
  O174     1.0000 0.35604  0.93231  0.57075  Biso   1.000  O
  O175     1.0000 0.49615  0.89255  0.35097  Biso   1.000  O
  O176     1.0000 0.67224  0.95804  0.48217  Biso   1.000  O
  O177     1.0000 0.71193  0.00842  0.37957  Biso   1.000  O
  O178     1.0000 0.70109  0.74914  0.41457  Biso   1.000  O
  O179     1.0000 0.66450  0.77537  0.50657  Biso   1.000  O
  O180     1.0000 0.80036  0.91762  0.24857  Biso   1.000  O
  C412     1.0000 0.84833  0.90747  0.14397  Biso   1.000  C
  C413     1.0000 0.83023  0.87257  0.06777  Biso   1.000  C
  C414     1.0000 0.82283  0.91047  0.12157  Biso   1.000  C
