data_image0
_cell_length_a       28.1548
_cell_length_b       28.1548
_cell_length_c       17.9281
_cell_angle_alpha    90
_cell_angle_beta     90
_cell_angle_gamma    120

_symmetry_space_group_name_H-M    "P 1"
_symmetry_int_tables_number       1

loop_
  _symmetry_equiv_pos_as_xyz
  'x, y, z'

loop_
  _atom_site_label
  _atom_site_occupancy
  _atom_site_fract_x
  _atom_site_fract_y
  _atom_site_fract_z
  _atom_site_thermal_displace_type
  _atom_site_B_iso_or_equiv
  _atom_site_type_symbol
  C1       1.0000 0.40303  0.45472  0.59570  Biso   1.000  C
  C2       1.0000 0.43251  0.49747  0.53729  Biso   1.000  C
  C3       1.0000 0.48092  0.54427  0.55571  Biso   1.000  C
  H1       1.0000 0.49340  0.55050  0.60590  Biso   1.000  H
  C4       1.0000 0.51124  0.58212  0.50071  Biso   1.000  C
  C5       1.0000 0.56335  0.63144  0.52296  Biso   1.000  C
  C6       1.0000 0.49251  0.57398  0.42723  Biso   1.000  C
  H2       1.0000 0.51360  0.59960  0.38950  Biso   1.000  H
  C7       1.0000 0.44249  0.52783  0.40970  Biso   1.000  C
  C8       1.0000 0.41271  0.48922  0.46450  Biso   1.000  C
  H3       1.0000 0.37900  0.45740  0.45220  Biso   1.000  H
  C9       1.0000 0.44160  0.55930  0.28410  Biso   1.000  C
  C10      1.0000 0.42780  0.60040  0.29750  Biso   1.000  C
  C11      1.0000 0.45490  0.63920  0.22490  Biso   1.000  C
  C12      1.0000 0.45090  0.69490  0.22810  Biso   1.000  C
  C13      1.0000 0.45878  0.42482  0.88490  Biso   1.000  C
  C14      1.0000 0.51163  0.45988  0.92596  Biso   1.000  C
  C15      1.0000 0.54899  0.51190  0.90195  Biso   1.000  C
  H4       1.0000 0.54330  0.52550  0.85640  Biso   1.000  H
  C16      1.0000 0.59553  0.54450  0.94535  Biso   1.000  C
  C17      1.0000 0.63548  0.60169  0.92322  Biso   1.000  C
  C18      1.0000 0.60456  0.52320  0.01030  Biso   1.000  C
  H5       1.0000 0.63660  0.54500  0.03900  Biso   1.000  H
  C19      1.0000 0.56730  0.47070  0.03340  Biso   1.000  C
  C20      1.0000 0.52017  0.43838  0.99190  Biso   1.000  C
  H6       1.0000 0.49420  0.40240  0.00790  Biso   1.000  H
  O1       1.0000 0.35995  0.41209  0.57777  Biso   1.000  O
  O2       1.0000 0.42477  0.46424  0.65939  Biso   1.000  O
  O3       1.0000 0.59757  0.66208  0.47458  Biso   1.000  O
  O4       1.0000 0.57256  0.64291  0.59115  Biso   1.000  O
  O5       1.0000 0.41934  0.51557  0.33998  Biso   1.000  O
  O6       1.0000 0.42259  0.38341  0.91845  Biso   1.000  O
  O7       1.0000 0.45445  0.43952  0.82007  Biso   1.000  O
  O8       1.0000 0.63296  0.61861  0.85982  Biso   1.000  O
  O9       1.0000 0.67291  0.63193  0.97086  Biso   1.000  O
  Mn1      1.0000 0.38921  0.41317  0.74915  Biso   1.000  Mn
  Mn2      1.0000 0.32770  0.32805  0.57903  Biso   1.000  Mn
  O10      1.0000 0.58600  0.44640  0.08590  Biso   1.000  O
  C21      1.0000 0.54540  0.38520  0.10670  Biso   1.000  C
  C22      1.0000 0.58420  0.37210  0.15570  Biso   1.000  C
  C23      1.0000 0.59180  0.40780  0.23200  Biso   1.000  C
  C24      1.0000 0.59600  0.40770  0.32700  Biso   1.000  C
  C25      1.0000 0.39370  0.54560  0.23050  Biso   1.000  C
  C26      1.0000 0.54390  0.41240  0.13910  Biso   1.000  C
  C27      1.0000 0.53970  0.41180  0.23080  Biso   1.000  C
  C28      1.0000 0.50130  0.39630  0.27270  Biso   1.000  C
  C29      1.0000 0.41500  0.59780  0.17520  Biso   1.000  C
  C30      1.0000 0.55840  0.36860  0.33790  Biso   1.000  C
  C31      1.0000 0.52850  0.36690  0.26530  Biso   1.000  C
  C32      1.0000 0.56720  0.41210  0.21990  Biso   1.000  C
  C33      1.0000 0.52380  0.40660  0.14050  Biso   1.000  C
  O11      1.0000 0.57550  0.45900  0.10690  Biso   1.000  O
  C34      1.0000 0.06970  0.78805  0.92903  Biso   1.000  C
  C35      1.0000 0.09918  0.83080  0.87062  Biso   1.000  C
  C36      1.0000 0.14759  0.87760  0.88904  Biso   1.000  C
  H7       1.0000 0.16007  0.88383  0.93923  Biso   1.000  H
  C37      1.0000 0.17791  0.91545  0.83404  Biso   1.000  C
  C38      1.0000 0.23002  0.96477  0.85629  Biso   1.000  C
  C39      1.0000 0.15918  0.90731  0.76056  Biso   1.000  C
  H8       1.0000 0.18027  0.93293  0.72283  Biso   1.000  H
  C40      1.0000 0.10916  0.86116  0.74303  Biso   1.000  C
  C41      1.0000 0.07938  0.82255  0.79783  Biso   1.000  C
  H9       1.0000 0.04567  0.79073  0.78553  Biso   1.000  H
  C42      1.0000 0.10827  0.89263  0.61743  Biso   1.000  C
  C43      1.0000 0.09447  0.93373  0.63083  Biso   1.000  C
  C44      1.0000 0.12157  0.97253  0.55823  Biso   1.000  C
  C45      1.0000 0.11757  0.02823  0.56143  Biso   1.000  C
  C46      1.0000 0.12545  0.75815  0.21823  Biso   1.000  C
  C47      1.0000 0.17830  0.79321  0.25929  Biso   1.000  C
  C48      1.0000 0.21566  0.84523  0.23528  Biso   1.000  C
  H10      1.0000 0.20997  0.85883  0.18973  Biso   1.000  H
  C49      1.0000 0.26220  0.87783  0.27868  Biso   1.000  C
  C50      1.0000 0.30215  0.93502  0.25655  Biso   1.000  C
  C51      1.0000 0.27123  0.85653  0.34363  Biso   1.000  C
  H11      1.0000 0.30327  0.87833  0.37233  Biso   1.000  H
  C52      1.0000 0.23397  0.80403  0.36673  Biso   1.000  C
  C53      1.0000 0.18684  0.77171  0.32523  Biso   1.000  C
  H12      1.0000 0.16087  0.73573  0.34123  Biso   1.000  H
  O12      1.0000 0.02662  0.74542  0.91110  Biso   1.000  O
  O13      1.0000 0.09144  0.79757  0.99272  Biso   1.000  O
  O14      1.0000 0.26424  0.99541  0.80791  Biso   1.000  O
  O15      1.0000 0.23923  0.97624  0.92448  Biso   1.000  O
  O16      1.0000 0.08601  0.84890  0.67331  Biso   1.000  O
  O17      1.0000 0.08926  0.71674  0.25178  Biso   1.000  O
  O18      1.0000 0.12112  0.77285  0.15340  Biso   1.000  O
  O19      1.0000 0.29963  0.95194  0.19315  Biso   1.000  O
  O20      1.0000 0.33958  0.96526  0.30419  Biso   1.000  O
  Mn3      1.0000 0.05588  0.74650  0.08248  Biso   1.000  Mn
  Mn4      1.0000 0.99437  0.66138  0.91236  Biso   1.000  Mn
  O21      1.0000 0.25267  0.77973  0.41923  Biso   1.000  O
  C54      1.0000 0.21207  0.71853  0.44003  Biso   1.000  C
  C55      1.0000 0.25087  0.70543  0.48903  Biso   1.000  C
  C56      1.0000 0.25847  0.74113  0.56533  Biso   1.000  C
  C57      1.0000 0.26267  0.74103  0.66033  Biso   1.000  C
  C58      1.0000 0.06037  0.87893  0.56383  Biso   1.000  C
  C59      1.0000 0.21057  0.74573  0.47243  Biso   1.000  C
  C60      1.0000 0.20637  0.74513  0.56413  Biso   1.000  C
  C61      1.0000 0.16797  0.72963  0.60603  Biso   1.000  C
  C62      1.0000 0.08167  0.93113  0.50853  Biso   1.000  C
  C63      1.0000 0.22507  0.70193  0.67123  Biso   1.000  C
  C64      1.0000 0.19517  0.70023  0.59863  Biso   1.000  C
  C65      1.0000 0.23387  0.74543  0.55323  Biso   1.000  C
  C66      1.0000 0.19047  0.73993  0.47383  Biso   1.000  C
  O22      1.0000 0.24217  0.79233  0.44023  Biso   1.000  O
  C67      1.0000 0.73636  0.12139  0.26237  Biso   1.000  C
  C68      1.0000 0.76584  0.16414  0.20396  Biso   1.000  C
  C69      1.0000 0.81425  0.21094  0.22238  Biso   1.000  C
  H13      1.0000 0.82673  0.21717  0.27257  Biso   1.000  H
  C70      1.0000 0.84457  0.24879  0.16738  Biso   1.000  C
  C71      1.0000 0.89668  0.29811  0.18963  Biso   1.000  C
  C72      1.0000 0.82584  0.24065  0.09390  Biso   1.000  C
  H14      1.0000 0.84693  0.26627  0.05617  Biso   1.000  H
  C73      1.0000 0.77582  0.19450  0.07637  Biso   1.000  C
  C74      1.0000 0.74604  0.15589  0.13117  Biso   1.000  C
  H15      1.0000 0.71233  0.12407  0.11887  Biso   1.000  H
  C75      1.0000 0.77493  0.22597  0.95077  Biso   1.000  C
  C76      1.0000 0.76113  0.26707  0.96417  Biso   1.000  C
  C77      1.0000 0.78823  0.30587  0.89157  Biso   1.000  C
  C78      1.0000 0.78423  0.36157  0.89477  Biso   1.000  C
  C79      1.0000 0.79211  0.09149  0.55157  Biso   1.000  C
  C80      1.0000 0.84496  0.12655  0.59263  Biso   1.000  C
  C81      1.0000 0.88232  0.17857  0.56862  Biso   1.000  C
  H16      1.0000 0.87663  0.19217  0.52307  Biso   1.000  H
  C82      1.0000 0.92886  0.21117  0.61202  Biso   1.000  C
  C83      1.0000 0.96881  0.26836  0.58989  Biso   1.000  C
  C84      1.0000 0.93789  0.18987  0.67697  Biso   1.000  C
  H17      1.0000 0.96993  0.21167  0.70567  Biso   1.000  H
  C85      1.0000 0.90063  0.13737  0.70007  Biso   1.000  C
  C86      1.0000 0.85350  0.10505  0.65857  Biso   1.000  C
  H18      1.0000 0.82753  0.06907  0.67457  Biso   1.000  H
  O23      1.0000 0.69328  0.07876  0.24444  Biso   1.000  O
  O24      1.0000 0.75810  0.13091  0.32606  Biso   1.000  O
  O25      1.0000 0.93090  0.32875  0.14125  Biso   1.000  O
  O26      1.0000 0.90589  0.30958  0.25782  Biso   1.000  O
  O27      1.0000 0.75267  0.18224  0.00665  Biso   1.000  O
  O28      1.0000 0.75592  0.05008  0.58512  Biso   1.000  O
  O29      1.0000 0.78778  0.10619  0.48674  Biso   1.000  O
  O30      1.0000 0.96629  0.28528  0.52649  Biso   1.000  O
  O31      1.0000 0.00624  0.29860  0.63753  Biso   1.000  O
  Mn5      1.0000 0.72254  0.07984  0.41582  Biso   1.000  Mn
  Mn6      1.0000 0.66103  0.99472  0.24570  Biso   1.000  Mn
  O32      1.0000 0.91933  0.11307  0.75257  Biso   1.000  O
  C87      1.0000 0.87873  0.05187  0.77337  Biso   1.000  C
  C88      1.0000 0.91753  0.03877  0.82237  Biso   1.000  C
  C89      1.0000 0.92513  0.07447  0.89867  Biso   1.000  C
  C90      1.0000 0.92933  0.07437  0.99367  Biso   1.000  C
  C91      1.0000 0.72703  0.21227  0.89717  Biso   1.000  C
  C92      1.0000 0.87723  0.07907  0.80577  Biso   1.000  C
  C93      1.0000 0.87303  0.07847  0.89747  Biso   1.000  C
  C94      1.0000 0.83463  0.06297  0.93937  Biso   1.000  C
  C95      1.0000 0.74833  0.26447  0.84187  Biso   1.000  C
  C96      1.0000 0.89173  0.03527  0.00457  Biso   1.000  C
  C97      1.0000 0.86183  0.03357  0.93197  Biso   1.000  C
  C98      1.0000 0.90053  0.07877  0.88657  Biso   1.000  C
  C99      1.0000 0.85713  0.07327  0.80717  Biso   1.000  C
  O33      1.0000 0.90883  0.12567  0.77357  Biso   1.000  O
  C100     1.0000 0.54528  0.94831  0.59570  Biso   1.000  C
  C101     1.0000 0.50253  0.93504  0.53729  Biso   1.000  C
  C102     1.0000 0.45573  0.93665  0.55571  Biso   1.000  C
  H19      1.0000 0.44950  0.94290  0.60590  Biso   1.000  H
  C103     1.0000 0.41788  0.92912  0.50071  Biso   1.000  C
  C104     1.0000 0.36856  0.93191  0.52296  Biso   1.000  C
  C105     1.0000 0.42602  0.91853  0.42723  Biso   1.000  C
  H20      1.0000 0.40040  0.91400  0.38950  Biso   1.000  H
  C106     1.0000 0.47217  0.91466  0.40970  Biso   1.000  C
  C107     1.0000 0.51078  0.92349  0.46450  Biso   1.000  C
  H21      1.0000 0.54260  0.92160  0.45220  Biso   1.000  H
  C108     1.0000 0.44070  0.88230  0.28410  Biso   1.000  C
  C109     1.0000 0.39960  0.82740  0.29750  Biso   1.000  C
  C110     1.0000 0.36080  0.81570  0.22490  Biso   1.000  C
  C111     1.0000 0.30510  0.75600  0.22810  Biso   1.000  C
  C112     1.0000 0.57518  0.03396  0.88490  Biso   1.000  C
  C113     1.0000 0.54012  0.05175  0.92596  Biso   1.000  C
  C114     1.0000 0.48810  0.03709  0.90195  Biso   1.000  C
  H22      1.0000 0.47450  0.01780  0.85640  Biso   1.000  H
  C115     1.0000 0.45550  0.05103  0.94535  Biso   1.000  C
  C116     1.0000 0.39831  0.03379  0.92322  Biso   1.000  C
  C117     1.0000 0.47680  0.08136  0.01030  Biso   1.000  C
  H23      1.0000 0.45500  0.09160  0.03900  Biso   1.000  H
  C118     1.0000 0.52930  0.09660  0.03340  Biso   1.000  C
  C119     1.0000 0.56162  0.08179  0.99190  Biso   1.000  C
  H24      1.0000 0.59760  0.09180  0.00790  Biso   1.000  H
  O34      1.0000 0.58791  0.94786  0.57777  Biso   1.000  O
  O35      1.0000 0.53576  0.96053  0.65939  Biso   1.000  O
  O36      1.0000 0.33792  0.93549  0.47458  Biso   1.000  O
  O37      1.0000 0.35709  0.92965  0.59115  Biso   1.000  O
  O38      1.0000 0.48443  0.90377  0.33998  Biso   1.000  O
  O39      1.0000 0.61659  0.03918  0.91845  Biso   1.000  O
  O40      1.0000 0.56048  0.01493  0.82007  Biso   1.000  O
  O41      1.0000 0.38139  0.01435  0.85982  Biso   1.000  O
  O42      1.0000 0.36807  0.04098  0.97086  Biso   1.000  O
  Mn7      1.0000 0.58683  0.97604  0.74915  Biso   1.000  Mn
  Mn8      1.0000 0.67195  0.99965  0.57903  Biso   1.000  Mn
  O43      1.0000 0.55360  0.13960  0.08590  Biso   1.000  O
  C120     1.0000 0.61480  0.16020  0.10670  Biso   1.000  C
  C121     1.0000 0.62790  0.21210  0.15570  Biso   1.000  C
  C122     1.0000 0.59220  0.18400  0.23200  Biso   1.000  C
  C123     1.0000 0.59230  0.18830  0.32700  Biso   1.000  C
  C124     1.0000 0.45440  0.84810  0.23050  Biso   1.000  C
  C125     1.0000 0.58760  0.13150  0.13910  Biso   1.000  C
  C126     1.0000 0.58820  0.12790  0.23080  Biso   1.000  C
  C127     1.0000 0.60370  0.10500  0.27270  Biso   1.000  C
  C128     1.0000 0.40220  0.81720  0.17520  Biso   1.000  C
  C129     1.0000 0.63140  0.18980  0.33790  Biso   1.000  C
  C130     1.0000 0.63310  0.16160  0.26530  Biso   1.000  C
  C131     1.0000 0.58790  0.15510  0.21990  Biso   1.000  C
  C132     1.0000 0.59340  0.11720  0.14050  Biso   1.000  C
  O44      1.0000 0.54100  0.11650  0.10690  Biso   1.000  O
  C133     1.0000 0.21195  0.28164  0.92903  Biso   1.000  C
  C134     1.0000 0.16920  0.26837  0.87062  Biso   1.000  C
  C135     1.0000 0.12240  0.26998  0.88904  Biso   1.000  C
  H25      1.0000 0.11617  0.27623  0.93923  Biso   1.000  H
  C136     1.0000 0.08455  0.26245  0.83404  Biso   1.000  C
  C137     1.0000 0.03523  0.26524  0.85629  Biso   1.000  C
  C138     1.0000 0.09269  0.25186  0.76056  Biso   1.000  C
  H26      1.0000 0.06707  0.24733  0.72283  Biso   1.000  H
  C139     1.0000 0.13884  0.24799  0.74303  Biso   1.000  C
  C140     1.0000 0.17745  0.25682  0.79783  Biso   1.000  C
  H27      1.0000 0.20927  0.25493  0.78553  Biso   1.000  H
  C141     1.0000 0.10737  0.21563  0.61743  Biso   1.000  C
  C142     1.0000 0.06627  0.16073  0.63083  Biso   1.000  C
  C143     1.0000 0.02747  0.14903  0.55823  Biso   1.000  C
  C144     1.0000 0.97177  0.08933  0.56143  Biso   1.000  C
  C145     1.0000 0.24185  0.36729  0.21823  Biso   1.000  C
  C146     1.0000 0.20679  0.38508  0.25929  Biso   1.000  C
  C147     1.0000 0.15477  0.37042  0.23528  Biso   1.000  C
  H28      1.0000 0.14117  0.35113  0.18973  Biso   1.000  H
  C148     1.0000 0.12217  0.38436  0.27868  Biso   1.000  C
  C149     1.0000 0.06498  0.36712  0.25655  Biso   1.000  C
  C150     1.0000 0.14347  0.41469  0.34363  Biso   1.000  C
  H29      1.0000 0.12167  0.42493  0.37233  Biso   1.000  H
  C151     1.0000 0.19597  0.42993  0.36673  Biso   1.000  C
  C152     1.0000 0.22829  0.41512  0.32523  Biso   1.000  C
  H30      1.0000 0.26427  0.42513  0.34123  Biso   1.000  H
  O45      1.0000 0.25458  0.28119  0.91110  Biso   1.000  O
  O46      1.0000 0.20243  0.29386  0.99272  Biso   1.000  O
  O47      1.0000 0.00459  0.26882  0.80791  Biso   1.000  O
  O48      1.0000 0.02376  0.26298  0.92448  Biso   1.000  O
  O49      1.0000 0.15110  0.23710  0.67331  Biso   1.000  O
  O50      1.0000 0.28326  0.37251  0.25178  Biso   1.000  O
  O51      1.0000 0.22715  0.34826  0.15340  Biso   1.000  O
  O52      1.0000 0.04806  0.34768  0.19315  Biso   1.000  O
  O53      1.0000 0.03474  0.37431  0.30419  Biso   1.000  O
  Mn9      1.0000 0.25350  0.30937  0.08248  Biso   1.000  Mn
  Mn10     1.0000 0.33862  0.33298  0.91236  Biso   1.000  Mn
  O54      1.0000 0.22027  0.47293  0.41923  Biso   1.000  O
  C153     1.0000 0.28147  0.49353  0.44003  Biso   1.000  C
  C154     1.0000 0.29457  0.54543  0.48903  Biso   1.000  C
  C155     1.0000 0.25887  0.51733  0.56533  Biso   1.000  C
  C156     1.0000 0.25897  0.52163  0.66033  Biso   1.000  C
  C157     1.0000 0.12107  0.18143  0.56383  Biso   1.000  C
  C158     1.0000 0.25427  0.46483  0.47243  Biso   1.000  C
  C159     1.0000 0.25487  0.46123  0.56413  Biso   1.000  C
  C160     1.0000 0.27037  0.43833  0.60603  Biso   1.000  C
  C161     1.0000 0.06887  0.15053  0.50853  Biso   1.000  C
  C162     1.0000 0.29807  0.52313  0.67123  Biso   1.000  C
  C163     1.0000 0.29977  0.49493  0.59863  Biso   1.000  C
  C164     1.0000 0.25457  0.48843  0.55323  Biso   1.000  C
  C165     1.0000 0.26007  0.45053  0.47383  Biso   1.000  C
  O55      1.0000 0.20767  0.44983  0.44023  Biso   1.000  O
  C166     1.0000 0.87861  0.61498  0.26237  Biso   1.000  C
  C167     1.0000 0.83586  0.60171  0.20396  Biso   1.000  C
  C168     1.0000 0.78906  0.60332  0.22238  Biso   1.000  C
  H31      1.0000 0.78283  0.60957  0.27257  Biso   1.000  H
  C169     1.0000 0.75121  0.59579  0.16738  Biso   1.000  C
  C170     1.0000 0.70189  0.59858  0.18963  Biso   1.000  C
  C171     1.0000 0.75935  0.58520  0.09390  Biso   1.000  C
  H32      1.0000 0.73373  0.58067  0.05617  Biso   1.000  H
  C172     1.0000 0.80550  0.58133  0.07637  Biso   1.000  C
  C173     1.0000 0.84411  0.59016  0.13117  Biso   1.000  C
  H33      1.0000 0.87593  0.58827  0.11887  Biso   1.000  H
  C174     1.0000 0.77403  0.54897  0.95077  Biso   1.000  C
  C175     1.0000 0.73293  0.49407  0.96417  Biso   1.000  C
  C176     1.0000 0.69413  0.48237  0.89157  Biso   1.000  C
  C177     1.0000 0.63843  0.42267  0.89477  Biso   1.000  C
  C178     1.0000 0.90851  0.70063  0.55157  Biso   1.000  C
  C179     1.0000 0.87345  0.71842  0.59263  Biso   1.000  C
  C180     1.0000 0.82143  0.70376  0.56862  Biso   1.000  C
  H34      1.0000 0.80783  0.68447  0.52307  Biso   1.000  H
  C181     1.0000 0.78883  0.71770  0.61202  Biso   1.000  C
  C182     1.0000 0.73164  0.70046  0.58989  Biso   1.000  C
  C183     1.0000 0.81013  0.74803  0.67697  Biso   1.000  C
  H35      1.0000 0.78833  0.75827  0.70567  Biso   1.000  H
  C184     1.0000 0.86263  0.76327  0.70007  Biso   1.000  C
  C185     1.0000 0.89495  0.74846  0.65857  Biso   1.000  C
  H36      1.0000 0.93093  0.75847  0.67457  Biso   1.000  H
  O56      1.0000 0.92124  0.61453  0.24444  Biso   1.000  O
  O57      1.0000 0.86909  0.62720  0.32606  Biso   1.000  O
  O58      1.0000 0.67125  0.60216  0.14125  Biso   1.000  O
  O59      1.0000 0.69042  0.59632  0.25782  Biso   1.000  O
  O60      1.0000 0.81776  0.57044  0.00665  Biso   1.000  O
  O61      1.0000 0.94992  0.70585  0.58512  Biso   1.000  O
  O62      1.0000 0.89381  0.68160  0.48674  Biso   1.000  O
  O63      1.0000 0.71472  0.68102  0.52649  Biso   1.000  O
  O64      1.0000 0.70140  0.70765  0.63753  Biso   1.000  O
  Mn11     1.0000 0.92016  0.64271  0.41582  Biso   1.000  Mn
  Mn12     1.0000 0.00528  0.66632  0.24570  Biso   1.000  Mn
  O65      1.0000 0.88693  0.80627  0.75257  Biso   1.000  O
  C186     1.0000 0.94813  0.82687  0.77337  Biso   1.000  C
  C187     1.0000 0.96123  0.87877  0.82237  Biso   1.000  C
  C188     1.0000 0.92553  0.85067  0.89867  Biso   1.000  C
  C189     1.0000 0.92563  0.85497  0.99367  Biso   1.000  C
  C190     1.0000 0.78773  0.51477  0.89717  Biso   1.000  C
  C191     1.0000 0.92093  0.79817  0.80577  Biso   1.000  C
  C192     1.0000 0.92153  0.79457  0.89747  Biso   1.000  C
  C193     1.0000 0.93703  0.77167  0.93937  Biso   1.000  C
  C194     1.0000 0.73553  0.48387  0.84187  Biso   1.000  C
  C195     1.0000 0.96473  0.85647  0.00457  Biso   1.000  C
  C196     1.0000 0.96643  0.82827  0.93197  Biso   1.000  C
  C197     1.0000 0.92123  0.82177  0.88657  Biso   1.000  C
  C198     1.0000 0.92673  0.78387  0.80717  Biso   1.000  C
  O66      1.0000 0.87433  0.78317  0.77357  Biso   1.000  O
  C199     1.0000 0.05169  0.59697  0.59570  Biso   1.000  C
  C200     1.0000 0.06496  0.56749  0.53729  Biso   1.000  C
  C201     1.0000 0.06335  0.51908  0.55571  Biso   1.000  C
  H37      1.0000 0.05710  0.50660  0.60590  Biso   1.000  H
  C202     1.0000 0.07088  0.48876  0.50071  Biso   1.000  C
  C203     1.0000 0.06809  0.43665  0.52296  Biso   1.000  C
  C204     1.0000 0.08147  0.50749  0.42723  Biso   1.000  C
  H38      1.0000 0.08600  0.48640  0.38950  Biso   1.000  H
  C205     1.0000 0.08534  0.55751  0.40970  Biso   1.000  C
  C206     1.0000 0.07651  0.58729  0.46450  Biso   1.000  C
  H39      1.0000 0.07840  0.62100  0.45220  Biso   1.000  H
  C207     1.0000 0.11770  0.55840  0.28410  Biso   1.000  C
  C208     1.0000 0.17260  0.57220  0.29750  Biso   1.000  C
  C209     1.0000 0.18430  0.54510  0.22490  Biso   1.000  C
  C210     1.0000 0.24400  0.54910  0.22810  Biso   1.000  C
  C211     1.0000 0.96604  0.54122  0.88490  Biso   1.000  C
  C212     1.0000 0.94825  0.48837  0.92596  Biso   1.000  C
  C213     1.0000 0.96291  0.45101  0.90195  Biso   1.000  C
  H40      1.0000 0.98220  0.45670  0.85640  Biso   1.000  H
  C214     1.0000 0.94897  0.40447  0.94535  Biso   1.000  C
  C215     1.0000 0.96621  0.36452  0.92322  Biso   1.000  C
  C216     1.0000 0.91864  0.39544  0.01030  Biso   1.000  C
  H41      1.0000 0.90840  0.36340  0.03900  Biso   1.000  H
  C217     1.0000 0.90340  0.43270  0.03340  Biso   1.000  C
  C218     1.0000 0.91821  0.47983  0.99190  Biso   1.000  C
  H42      1.0000 0.90820  0.50580  0.00790  Biso   1.000  H
  O67      1.0000 0.05214  0.64005  0.57777  Biso   1.000  O
  O68      1.0000 0.03947  0.57523  0.65939  Biso   1.000  O
  O69      1.0000 0.06451  0.40243  0.47458  Biso   1.000  O
  O70      1.0000 0.07035  0.42744  0.59115  Biso   1.000  O
  O71      1.0000 0.09623  0.58066  0.33998  Biso   1.000  O
  O72      1.0000 0.96082  0.57741  0.91845  Biso   1.000  O
  O73      1.0000 0.98507  0.54555  0.82007  Biso   1.000  O
  O74      1.0000 0.98565  0.36704  0.85982  Biso   1.000  O
  O75      1.0000 0.95902  0.32709  0.97086  Biso   1.000  O
  Mn13     1.0000 0.02396  0.61079  0.74915  Biso   1.000  Mn
  Mn14     1.0000 0.00035  0.67230  0.57903  Biso   1.000  Mn
  O76      1.0000 0.86040  0.41400  0.08590  Biso   1.000  O
  C219     1.0000 0.83980  0.45460  0.10670  Biso   1.000  C
  C220     1.0000 0.78790  0.41580  0.15570  Biso   1.000  C
  C221     1.0000 0.81600  0.40820  0.23200  Biso   1.000  C
  C222     1.0000 0.81170  0.40400  0.32700  Biso   1.000  C
  C223     1.0000 0.15190  0.60630  0.23050  Biso   1.000  C
  C224     1.0000 0.86850  0.45610  0.13910  Biso   1.000  C
  C225     1.0000 0.87210  0.46030  0.23080  Biso   1.000  C
  C226     1.0000 0.89500  0.49870  0.27270  Biso   1.000  C
  C227     1.0000 0.18280  0.58500  0.17520  Biso   1.000  C
  C228     1.0000 0.81020  0.44160  0.33790  Biso   1.000  C
  C229     1.0000 0.83840  0.47150  0.26530  Biso   1.000  C
  C230     1.0000 0.84490  0.43280  0.21990  Biso   1.000  C
  C231     1.0000 0.88280  0.47620  0.14050  Biso   1.000  C
  O77      1.0000 0.88350  0.42450  0.10690  Biso   1.000  O
  C232     1.0000 0.71836  0.93030  0.92903  Biso   1.000  C
  C233     1.0000 0.73163  0.90082  0.87062  Biso   1.000  C
  C234     1.0000 0.73002  0.85241  0.88904  Biso   1.000  C
  H43      1.0000 0.72377  0.83993  0.93923  Biso   1.000  H
  C235     1.0000 0.73755  0.82209  0.83404  Biso   1.000  C
  C236     1.0000 0.73476  0.76998  0.85629  Biso   1.000  C
  C237     1.0000 0.74814  0.84082  0.76056  Biso   1.000  C
  H44      1.0000 0.75267  0.81973  0.72283  Biso   1.000  H
  C238     1.0000 0.75201  0.89084  0.74303  Biso   1.000  C
  C239     1.0000 0.74318  0.92062  0.79783  Biso   1.000  C
  H45      1.0000 0.74507  0.95433  0.78553  Biso   1.000  H
  C240     1.0000 0.78437  0.89173  0.61743  Biso   1.000  C
  C241     1.0000 0.83927  0.90553  0.63083  Biso   1.000  C
  C242     1.0000 0.85097  0.87843  0.55823  Biso   1.000  C
  C243     1.0000 0.91067  0.88243  0.56143  Biso   1.000  C
  C244     1.0000 0.63271  0.87455  0.21823  Biso   1.000  C
  C245     1.0000 0.61492  0.82170  0.25929  Biso   1.000  C
  C246     1.0000 0.62958  0.78434  0.23528  Biso   1.000  C
  H46      1.0000 0.64887  0.79003  0.18973  Biso   1.000  H
  C247     1.0000 0.61564  0.73780  0.27868  Biso   1.000  C
  C248     1.0000 0.63288  0.69785  0.25655  Biso   1.000  C
  C249     1.0000 0.58531  0.72877  0.34363  Biso   1.000  C
  H47      1.0000 0.57507  0.69673  0.37233  Biso   1.000  H
  C250     1.0000 0.57007  0.76603  0.36673  Biso   1.000  C
  C251     1.0000 0.58488  0.81316  0.32523  Biso   1.000  C
  H48      1.0000 0.57487  0.83913  0.34123  Biso   1.000  H
  O78      1.0000 0.71881  0.97338  0.91110  Biso   1.000  O
  O79      1.0000 0.70614  0.90856  0.99272  Biso   1.000  O
  O80      1.0000 0.73118  0.73576  0.80791  Biso   1.000  O
  O81      1.0000 0.73702  0.76077  0.92448  Biso   1.000  O
  O82      1.0000 0.76290  0.91399  0.67331  Biso   1.000  O
  O83      1.0000 0.62749  0.91074  0.25178  Biso   1.000  O
  O84      1.0000 0.65174  0.87888  0.15340  Biso   1.000  O
  O85      1.0000 0.65232  0.70037  0.19315  Biso   1.000  O
  O86      1.0000 0.62569  0.66042  0.30419  Biso   1.000  O
  Mn15     1.0000 0.69063  0.94412  0.08248  Biso   1.000  Mn
  Mn16     1.0000 0.66702  0.00563  0.91236  Biso   1.000  Mn
  O87      1.0000 0.52707  0.74733  0.41923  Biso   1.000  O
  C252     1.0000 0.50647  0.78793  0.44003  Biso   1.000  C
  C253     1.0000 0.45457  0.74913  0.48903  Biso   1.000  C
  C254     1.0000 0.48267  0.74153  0.56533  Biso   1.000  C
  C255     1.0000 0.47837  0.73733  0.66033  Biso   1.000  C
  C256     1.0000 0.81857  0.93963  0.56383  Biso   1.000  C
  C257     1.0000 0.53517  0.78943  0.47243  Biso   1.000  C
  C258     1.0000 0.53877  0.79363  0.56413  Biso   1.000  C
  C259     1.0000 0.56167  0.83203  0.60603  Biso   1.000  C
  C260     1.0000 0.84947  0.91833  0.50853  Biso   1.000  C
  C261     1.0000 0.47687  0.77493  0.67123  Biso   1.000  C
  C262     1.0000 0.50507  0.80483  0.59863  Biso   1.000  C
  C263     1.0000 0.51157  0.76613  0.55323  Biso   1.000  C
  C264     1.0000 0.54947  0.80953  0.47383  Biso   1.000  C
  O88      1.0000 0.55017  0.75783  0.44023  Biso   1.000  O
  C265     1.0000 0.38502  0.26364  0.26237  Biso   1.000  C
  C266     1.0000 0.39829  0.23416  0.20396  Biso   1.000  C
  C267     1.0000 0.39668  0.18575  0.22238  Biso   1.000  C
  H49      1.0000 0.39043  0.17327  0.27257  Biso   1.000  H
  C268     1.0000 0.40421  0.15543  0.16738  Biso   1.000  C
  C269     1.0000 0.40142  0.10332  0.18963  Biso   1.000  C
  C270     1.0000 0.41480  0.17416  0.09390  Biso   1.000  C
  H50      1.0000 0.41933  0.15307  0.05617  Biso   1.000  H
  C271     1.0000 0.41867  0.22418  0.07637  Biso   1.000  C
  C272     1.0000 0.40984  0.25396  0.13117  Biso   1.000  C
  H51      1.0000 0.41173  0.28767  0.11887  Biso   1.000  H
  C273     1.0000 0.45103  0.22507  0.95077  Biso   1.000  C
  C274     1.0000 0.50593  0.23887  0.96417  Biso   1.000  C
  C275     1.0000 0.51763  0.21177  0.89157  Biso   1.000  C
  C276     1.0000 0.57733  0.21577  0.89477  Biso   1.000  C
  C277     1.0000 0.29937  0.20789  0.55157  Biso   1.000  C
  C278     1.0000 0.28158  0.15504  0.59263  Biso   1.000  C
  C279     1.0000 0.29624  0.11768  0.56862  Biso   1.000  C
  H52      1.0000 0.31553  0.12337  0.52307  Biso   1.000  H
  C280     1.0000 0.28230  0.07114  0.61202  Biso   1.000  C
  C281     1.0000 0.29954  0.03119  0.58989  Biso   1.000  C
  C282     1.0000 0.25197  0.06211  0.67697  Biso   1.000  C
  H53      1.0000 0.24173  0.03007  0.70567  Biso   1.000  H
  C283     1.0000 0.23673  0.09937  0.70007  Biso   1.000  C
  C284     1.0000 0.25154  0.14650  0.65857  Biso   1.000  C
  H54      1.0000 0.24153  0.17247  0.67457  Biso   1.000  H
  O89      1.0000 0.38547  0.30672  0.24444  Biso   1.000  O
  O90      1.0000 0.37280  0.24190  0.32606  Biso   1.000  O
  O91      1.0000 0.39784  0.06910  0.14125  Biso   1.000  O
  O92      1.0000 0.40368  0.09411  0.25782  Biso   1.000  O
  O93      1.0000 0.42956  0.24733  0.00665  Biso   1.000  O
  O94      1.0000 0.29415  0.24408  0.58512  Biso   1.000  O
  O95      1.0000 0.31840  0.21222  0.48674  Biso   1.000  O
  O96      1.0000 0.31898  0.03371  0.52649  Biso   1.000  O
  O97      1.0000 0.29235  0.99376  0.63753  Biso   1.000  O
  Mn17     1.0000 0.35729  0.27746  0.41582  Biso   1.000  Mn
  Mn18     1.0000 0.33368  0.33897  0.24570  Biso   1.000  Mn
  O98      1.0000 0.19373  0.08067  0.75257  Biso   1.000  O
  C285     1.0000 0.17313  0.12127  0.77337  Biso   1.000  C
  C286     1.0000 0.12123  0.08247  0.82237  Biso   1.000  C
  C287     1.0000 0.14933  0.07487  0.89867  Biso   1.000  C
  C288     1.0000 0.14503  0.07067  0.99367  Biso   1.000  C
  C289     1.0000 0.48523  0.27297  0.89717  Biso   1.000  C
  C290     1.0000 0.20183  0.12277  0.80577  Biso   1.000  C
  C291     1.0000 0.20543  0.12697  0.89747  Biso   1.000  C
  C292     1.0000 0.22833  0.16537  0.93937  Biso   1.000  C
  C293     1.0000 0.51613  0.25167  0.84187  Biso   1.000  C
  C294     1.0000 0.14353  0.10827  0.00457  Biso   1.000  C
  C295     1.0000 0.17173  0.13817  0.93197  Biso   1.000  C
  C296     1.0000 0.17823  0.09947  0.88657  Biso   1.000  C
  C297     1.0000 0.21613  0.14287  0.80717  Biso   1.000  C
  O99      1.0000 0.21683  0.09117  0.77357  Biso   1.000  O
  C298     1.0000 0.59697  0.54528  0.40430  Biso   1.000  C
  C299     1.0000 0.56749  0.50253  0.46271  Biso   1.000  C
  C300     1.0000 0.51908  0.45573  0.44429  Biso   1.000  C
  H55      1.0000 0.50660  0.44950  0.39410  Biso   1.000  H
  C301     1.0000 0.48876  0.41788  0.49929  Biso   1.000  C
  C302     1.0000 0.43665  0.36856  0.47704  Biso   1.000  C
  C303     1.0000 0.50749  0.42602  0.57277  Biso   1.000  C
  H56      1.0000 0.48640  0.40040  0.61050  Biso   1.000  H
  C304     1.0000 0.55751  0.47217  0.59030  Biso   1.000  C
  C305     1.0000 0.58729  0.51078  0.53550  Biso   1.000  C
  H57      1.0000 0.62100  0.54260  0.54780  Biso   1.000  H
  C306     1.0000 0.55840  0.44070  0.71590  Biso   1.000  C
  C307     1.0000 0.57220  0.39960  0.70250  Biso   1.000  C
  C308     1.0000 0.54510  0.36080  0.77510  Biso   1.000  C
  C309     1.0000 0.54910  0.30510  0.77190  Biso   1.000  C
  C310     1.0000 0.54122  0.57518  0.11510  Biso   1.000  C
  C311     1.0000 0.48837  0.54012  0.07404  Biso   1.000  C
  C312     1.0000 0.45101  0.48810  0.09805  Biso   1.000  C
  H58      1.0000 0.45670  0.47450  0.14360  Biso   1.000  H
  C313     1.0000 0.40447  0.45550  0.05465  Biso   1.000  C
  C314     1.0000 0.36452  0.39831  0.07678  Biso   1.000  C
  C315     1.0000 0.39544  0.47680  0.98970  Biso   1.000  C
  H59      1.0000 0.36340  0.45500  0.96100  Biso   1.000  H
  C316     1.0000 0.43270  0.52930  0.96660  Biso   1.000  C
  C317     1.0000 0.47983  0.56162  0.00810  Biso   1.000  C
  H60      1.0000 0.50580  0.59760  0.99210  Biso   1.000  H
  O100     1.0000 0.64005  0.58791  0.42223  Biso   1.000  O
  O101     1.0000 0.57523  0.53576  0.34061  Biso   1.000  O
  O102     1.0000 0.40243  0.33792  0.52542  Biso   1.000  O
  O103     1.0000 0.42744  0.35709  0.40885  Biso   1.000  O
  O104     1.0000 0.58066  0.48443  0.66002  Biso   1.000  O
  O105     1.0000 0.57741  0.61659  0.08155  Biso   1.000  O
  O106     1.0000 0.54555  0.56048  0.17993  Biso   1.000  O
  O107     1.0000 0.36704  0.38139  0.14018  Biso   1.000  O
  O108     1.0000 0.32709  0.36807  0.02914  Biso   1.000  O
  Mn19     1.0000 0.61079  0.58683  0.25085  Biso   1.000  Mn
  Mn20     1.0000 0.67230  0.67195  0.42097  Biso   1.000  Mn
  O109     1.0000 0.41400  0.55360  0.91410  Biso   1.000  O
  C318     1.0000 0.45460  0.61480  0.89330  Biso   1.000  C
  C319     1.0000 0.41580  0.62790  0.84430  Biso   1.000  C
  C320     1.0000 0.40820  0.59220  0.76800  Biso   1.000  C
  C321     1.0000 0.40400  0.59230  0.67300  Biso   1.000  C
  C322     1.0000 0.60630  0.45440  0.76950  Biso   1.000  C
  C323     1.0000 0.45610  0.58760  0.86090  Biso   1.000  C
  C324     1.0000 0.46030  0.58820  0.76920  Biso   1.000  C
  C325     1.0000 0.49870  0.60370  0.72730  Biso   1.000  C
  C326     1.0000 0.58500  0.40220  0.82480  Biso   1.000  C
  C327     1.0000 0.44160  0.63140  0.66210  Biso   1.000  C
  C328     1.0000 0.47150  0.63310  0.73470  Biso   1.000  C
  C329     1.0000 0.43280  0.58790  0.78010  Biso   1.000  C
  C330     1.0000 0.47620  0.59340  0.85950  Biso   1.000  C
  O110     1.0000 0.42450  0.54100  0.89310  Biso   1.000  O
  C331     1.0000 0.26364  0.87861  0.73763  Biso   1.000  C
  C332     1.0000 0.23416  0.83586  0.79604  Biso   1.000  C
  C333     1.0000 0.18575  0.78906  0.77762  Biso   1.000  C
  H61      1.0000 0.17327  0.78283  0.72743  Biso   1.000  H
  C334     1.0000 0.15543  0.75121  0.83262  Biso   1.000  C
  C335     1.0000 0.10332  0.70189  0.81037  Biso   1.000  C
  C336     1.0000 0.17416  0.75935  0.90610  Biso   1.000  C
  H62      1.0000 0.15307  0.73373  0.94383  Biso   1.000  H
  C337     1.0000 0.22418  0.80550  0.92363  Biso   1.000  C
  C338     1.0000 0.25396  0.84411  0.86883  Biso   1.000  C
  H63      1.0000 0.28767  0.87593  0.88113  Biso   1.000  H
  C339     1.0000 0.22507  0.77403  0.04923  Biso   1.000  C
  C340     1.0000 0.23887  0.73293  0.03583  Biso   1.000  C
  C341     1.0000 0.21177  0.69413  0.10843  Biso   1.000  C
  C342     1.0000 0.21577  0.63843  0.10523  Biso   1.000  C
  C343     1.0000 0.20789  0.90851  0.44843  Biso   1.000  C
  C344     1.0000 0.15504  0.87345  0.40737  Biso   1.000  C
  C345     1.0000 0.11768  0.82143  0.43138  Biso   1.000  C
  H64      1.0000 0.12337  0.80783  0.47693  Biso   1.000  H
  C346     1.0000 0.07114  0.78883  0.38798  Biso   1.000  C
  C347     1.0000 0.03119  0.73164  0.41011  Biso   1.000  C
  C348     1.0000 0.06211  0.81013  0.32303  Biso   1.000  C
  H65      1.0000 0.03007  0.78833  0.29433  Biso   1.000  H
  C349     1.0000 0.09937  0.86263  0.29993  Biso   1.000  C
  C350     1.0000 0.14650  0.89495  0.34143  Biso   1.000  C
  H66      1.0000 0.17247  0.93093  0.32543  Biso   1.000  H
  O111     1.0000 0.30672  0.92124  0.75556  Biso   1.000  O
  O112     1.0000 0.24190  0.86909  0.67394  Biso   1.000  O
  O113     1.0000 0.06910  0.67125  0.85875  Biso   1.000  O
  O114     1.0000 0.09411  0.69042  0.74218  Biso   1.000  O
  O115     1.0000 0.24733  0.81776  0.99335  Biso   1.000  O
  O116     1.0000 0.24408  0.94992  0.41488  Biso   1.000  O
  O117     1.0000 0.21222  0.89381  0.51326  Biso   1.000  O
  O118     1.0000 0.03371  0.71472  0.47351  Biso   1.000  O
  O119     1.0000 0.99376  0.70140  0.36247  Biso   1.000  O
  Mn21     1.0000 0.27746  0.92016  0.58418  Biso   1.000  Mn
  Mn22     1.0000 0.33897  0.00528  0.75430  Biso   1.000  Mn
  O120     1.0000 0.08067  0.88693  0.24743  Biso   1.000  O
  C351     1.0000 0.12127  0.94813  0.22663  Biso   1.000  C
  C352     1.0000 0.08247  0.96123  0.17763  Biso   1.000  C
  C353     1.0000 0.07487  0.92553  0.10133  Biso   1.000  C
  C354     1.0000 0.07067  0.92563  0.00633  Biso   1.000  C
  C355     1.0000 0.27297  0.78773  0.10283  Biso   1.000  C
  C356     1.0000 0.12277  0.92093  0.19423  Biso   1.000  C
  C357     1.0000 0.12697  0.92153  0.10253  Biso   1.000  C
  C358     1.0000 0.16537  0.93703  0.06063  Biso   1.000  C
  C359     1.0000 0.25167  0.73553  0.15813  Biso   1.000  C
  C360     1.0000 0.10827  0.96473  0.99543  Biso   1.000  C
  C361     1.0000 0.13817  0.96643  0.06803  Biso   1.000  C
  C362     1.0000 0.09947  0.92123  0.11343  Biso   1.000  C
  C363     1.0000 0.14287  0.92673  0.19283  Biso   1.000  C
  O121     1.0000 0.09117  0.87433  0.22643  Biso   1.000  O
  C364     1.0000 0.93030  0.21195  0.07097  Biso   1.000  C
  C365     1.0000 0.90082  0.16920  0.12938  Biso   1.000  C
  C366     1.0000 0.85241  0.12240  0.11096  Biso   1.000  C
  H67      1.0000 0.83993  0.11617  0.06077  Biso   1.000  H
  C367     1.0000 0.82209  0.08455  0.16596  Biso   1.000  C
  C368     1.0000 0.76998  0.03523  0.14371  Biso   1.000  C
  C369     1.0000 0.84082  0.09269  0.23944  Biso   1.000  C
  H68      1.0000 0.81973  0.06707  0.27717  Biso   1.000  H
  C370     1.0000 0.89084  0.13884  0.25697  Biso   1.000  C
  C371     1.0000 0.92062  0.17745  0.20217  Biso   1.000  C
  H69      1.0000 0.95433  0.20927  0.21447  Biso   1.000  H
  C372     1.0000 0.89173  0.10737  0.38257  Biso   1.000  C
  C373     1.0000 0.90553  0.06627  0.36917  Biso   1.000  C
  C374     1.0000 0.87843  0.02747  0.44177  Biso   1.000  C
  C375     1.0000 0.88243  0.97177  0.43857  Biso   1.000  C
  C376     1.0000 0.87455  0.24185  0.78177  Biso   1.000  C
  C377     1.0000 0.82170  0.20679  0.74071  Biso   1.000  C
  C378     1.0000 0.78434  0.15477  0.76472  Biso   1.000  C
  H70      1.0000 0.79003  0.14117  0.81027  Biso   1.000  H
  C379     1.0000 0.73780  0.12217  0.72132  Biso   1.000  C
  C380     1.0000 0.69785  0.06498  0.74345  Biso   1.000  C
  C381     1.0000 0.72877  0.14347  0.65637  Biso   1.000  C
  H71      1.0000 0.69673  0.12167  0.62767  Biso   1.000  H
  C382     1.0000 0.76603  0.19597  0.63327  Biso   1.000  C
  C383     1.0000 0.81316  0.22829  0.67477  Biso   1.000  C
  H72      1.0000 0.83913  0.26427  0.65877  Biso   1.000  H
  O122     1.0000 0.97338  0.25458  0.08890  Biso   1.000  O
  O123     1.0000 0.90856  0.20243  0.00728  Biso   1.000  O
  O124     1.0000 0.73576  0.00459  0.19209  Biso   1.000  O
  O125     1.0000 0.76077  0.02376  0.07552  Biso   1.000  O
  O126     1.0000 0.91399  0.15110  0.32669  Biso   1.000  O
  O127     1.0000 0.91074  0.28326  0.74822  Biso   1.000  O
  O128     1.0000 0.87888  0.22715  0.84660  Biso   1.000  O
  O129     1.0000 0.70037  0.04806  0.80685  Biso   1.000  O
  O130     1.0000 0.66042  0.03474  0.69581  Biso   1.000  O
  Mn23     1.0000 0.94412  0.25350  0.91752  Biso   1.000  Mn
  Mn24     1.0000 0.00563  0.33862  0.08764  Biso   1.000  Mn
  O131     1.0000 0.74733  0.22027  0.58077  Biso   1.000  O
  C384     1.0000 0.78793  0.28147  0.55997  Biso   1.000  C
  C385     1.0000 0.74913  0.29457  0.51097  Biso   1.000  C
  C386     1.0000 0.74153  0.25887  0.43467  Biso   1.000  C
  C387     1.0000 0.73733  0.25897  0.33967  Biso   1.000  C
  C388     1.0000 0.93963  0.12107  0.43617  Biso   1.000  C
  C389     1.0000 0.78943  0.25427  0.52757  Biso   1.000  C
  C390     1.0000 0.79363  0.25487  0.43587  Biso   1.000  C
  C391     1.0000 0.83203  0.27037  0.39397  Biso   1.000  C
  C392     1.0000 0.91833  0.06887  0.49147  Biso   1.000  C
  C393     1.0000 0.77493  0.29807  0.32877  Biso   1.000  C
  C394     1.0000 0.80483  0.29977  0.40137  Biso   1.000  C
  C395     1.0000 0.76613  0.25457  0.44677  Biso   1.000  C
  C396     1.0000 0.80953  0.26007  0.52617  Biso   1.000  C
  O132     1.0000 0.75783  0.20767  0.55977  Biso   1.000  O
  C397     1.0000 0.45472  0.05169  0.40430  Biso   1.000  C
  C398     1.0000 0.49747  0.06496  0.46271  Biso   1.000  C
  C399     1.0000 0.54427  0.06335  0.44429  Biso   1.000  C
  H73      1.0000 0.55050  0.05710  0.39410  Biso   1.000  H
  C400     1.0000 0.58212  0.07088  0.49929  Biso   1.000  C
  C401     1.0000 0.63144  0.06809  0.47704  Biso   1.000  C
  C402     1.0000 0.57398  0.08147  0.57277  Biso   1.000  C
  H74      1.0000 0.59960  0.08600  0.61050  Biso   1.000  H
  C403     1.0000 0.52783  0.08534  0.59030  Biso   1.000  C
  C404     1.0000 0.48922  0.07651  0.53550  Biso   1.000  C
  H75      1.0000 0.45740  0.07840  0.54780  Biso   1.000  H
  C405     1.0000 0.55930  0.11770  0.71590  Biso   1.000  C
  C406     1.0000 0.60040  0.17260  0.70250  Biso   1.000  C
  C407     1.0000 0.63920  0.18430  0.77510  Biso   1.000  C
  C408     1.0000 0.69490  0.24400  0.77190  Biso   1.000  C
  C409     1.0000 0.42482  0.96604  0.11510  Biso   1.000  C
  C410     1.0000 0.45988  0.94825  0.07404  Biso   1.000  C
  C411     1.0000 0.51190  0.96291  0.09805  Biso   1.000  C
  H76      1.0000 0.52550  0.98220  0.14360  Biso   1.000  H
  C412     1.0000 0.54450  0.94897  0.05465  Biso   1.000  C
  C413     1.0000 0.60169  0.96621  0.07678  Biso   1.000  C
  C414     1.0000 0.52320  0.91864  0.98970  Biso   1.000  C
  H77      1.0000 0.54500  0.90840  0.96100  Biso   1.000  H
  C415     1.0000 0.47070  0.90340  0.96660  Biso   1.000  C
  C416     1.0000 0.43838  0.91821  0.00810  Biso   1.000  C
  H78      1.0000 0.40240  0.90820  0.99210  Biso   1.000  H
  O133     1.0000 0.41209  0.05214  0.42223  Biso   1.000  O
  O134     1.0000 0.46424  0.03947  0.34061  Biso   1.000  O
  O135     1.0000 0.66208  0.06451  0.52542  Biso   1.000  O
  O136     1.0000 0.64291  0.07035  0.40885  Biso   1.000  O
  O137     1.0000 0.51557  0.09623  0.66002  Biso   1.000  O
  O138     1.0000 0.38341  0.96082  0.08155  Biso   1.000  O
  O139     1.0000 0.43952  0.98507  0.17993  Biso   1.000  O
  O140     1.0000 0.61861  0.98565  0.14018  Biso   1.000  O
  O141     1.0000 0.63193  0.95902  0.02914  Biso   1.000  O
  Mn25     1.0000 0.41317  0.02396  0.25085  Biso   1.000  Mn
  Mn26     1.0000 0.32805  0.00035  0.42097  Biso   1.000  Mn
  O142     1.0000 0.44640  0.86040  0.91410  Biso   1.000  O
  C417     1.0000 0.38520  0.83980  0.89330  Biso   1.000  C
  C418     1.0000 0.37210  0.78790  0.84430  Biso   1.000  C
  C419     1.0000 0.40780  0.81600  0.76800  Biso   1.000  C
  C420     1.0000 0.40770  0.81170  0.67300  Biso   1.000  C
  C421     1.0000 0.54560  0.15190  0.76950  Biso   1.000  C
  C422     1.0000 0.41240  0.86850  0.86090  Biso   1.000  C
  C423     1.0000 0.41180  0.87210  0.76920  Biso   1.000  C
  C424     1.0000 0.39630  0.89500  0.72730  Biso   1.000  C
  C425     1.0000 0.59780  0.18280  0.82480  Biso   1.000  C
  C426     1.0000 0.36860  0.81020  0.66210  Biso   1.000  C
  C427     1.0000 0.36690  0.83840  0.73470  Biso   1.000  C
  C428     1.0000 0.41210  0.84490  0.78010  Biso   1.000  C
  C429     1.0000 0.40660  0.88280  0.85950  Biso   1.000  C
  O143     1.0000 0.45900  0.88350  0.89310  Biso   1.000  O
  C430     1.0000 0.12139  0.38502  0.73763  Biso   1.000  C
  C431     1.0000 0.16414  0.39829  0.79604  Biso   1.000  C
  C432     1.0000 0.21094  0.39668  0.77762  Biso   1.000  C
  H79      1.0000 0.21717  0.39043  0.72743  Biso   1.000  H
  C433     1.0000 0.24879  0.40421  0.83262  Biso   1.000  C
  C434     1.0000 0.29811  0.40142  0.81037  Biso   1.000  C
  C435     1.0000 0.24065  0.41480  0.90610  Biso   1.000  C
  H80      1.0000 0.26627  0.41933  0.94383  Biso   1.000  H
  C436     1.0000 0.19450  0.41867  0.92363  Biso   1.000  C
  C437     1.0000 0.15589  0.40984  0.86883  Biso   1.000  C
  H81      1.0000 0.12407  0.41173  0.88113  Biso   1.000  H
  C438     1.0000 0.22597  0.45103  0.04923  Biso   1.000  C
  C439     1.0000 0.26707  0.50593  0.03583  Biso   1.000  C
  C440     1.0000 0.30587  0.51763  0.10843  Biso   1.000  C
  C441     1.0000 0.36157  0.57733  0.10523  Biso   1.000  C
  C442     1.0000 0.09149  0.29937  0.44843  Biso   1.000  C
  C443     1.0000 0.12655  0.28158  0.40737  Biso   1.000  C
  C444     1.0000 0.17857  0.29624  0.43138  Biso   1.000  C
  H82      1.0000 0.19217  0.31553  0.47693  Biso   1.000  H
  C445     1.0000 0.21117  0.28230  0.38798  Biso   1.000  C
  C446     1.0000 0.26836  0.29954  0.41011  Biso   1.000  C
  C447     1.0000 0.18987  0.25197  0.32303  Biso   1.000  C
  H83      1.0000 0.21167  0.24173  0.29433  Biso   1.000  H
  C448     1.0000 0.13737  0.23673  0.29993  Biso   1.000  C
  C449     1.0000 0.10505  0.25154  0.34143  Biso   1.000  C
  H84      1.0000 0.06907  0.24153  0.32543  Biso   1.000  H
  O144     1.0000 0.07876  0.38547  0.75556  Biso   1.000  O
  O145     1.0000 0.13091  0.37280  0.67394  Biso   1.000  O
  O146     1.0000 0.32875  0.39784  0.85875  Biso   1.000  O
  O147     1.0000 0.30958  0.40368  0.74218  Biso   1.000  O
  O148     1.0000 0.18224  0.42956  0.99335  Biso   1.000  O
  O149     1.0000 0.05008  0.29415  0.41488  Biso   1.000  O
  O150     1.0000 0.10619  0.31840  0.51326  Biso   1.000  O
  O151     1.0000 0.28528  0.31898  0.47351  Biso   1.000  O
  O152     1.0000 0.29860  0.29235  0.36247  Biso   1.000  O
  Mn27     1.0000 0.07984  0.35729  0.58418  Biso   1.000  Mn
  Mn28     1.0000 0.99472  0.33368  0.75430  Biso   1.000  Mn
  O153     1.0000 0.11307  0.19373  0.24743  Biso   1.000  O
  C450     1.0000 0.05187  0.17313  0.22663  Biso   1.000  C
  C451     1.0000 0.03877  0.12123  0.17763  Biso   1.000  C
  C452     1.0000 0.07447  0.14933  0.10133  Biso   1.000  C
  C453     1.0000 0.07437  0.14503  0.00633  Biso   1.000  C
  C454     1.0000 0.21227  0.48523  0.10283  Biso   1.000  C
  C455     1.0000 0.07907  0.20183  0.19423  Biso   1.000  C
  C456     1.0000 0.07847  0.20543  0.10253  Biso   1.000  C
  C457     1.0000 0.06297  0.22833  0.06063  Biso   1.000  C
  C458     1.0000 0.26447  0.51613  0.15813  Biso   1.000  C
  C459     1.0000 0.03527  0.14353  0.99543  Biso   1.000  C
  C460     1.0000 0.03357  0.17173  0.06803  Biso   1.000  C
  C461     1.0000 0.07877  0.17823  0.11343  Biso   1.000  C
  C462     1.0000 0.07327  0.21613  0.19283  Biso   1.000  C
  O154     1.0000 0.12567  0.21683  0.22643  Biso   1.000  O
  C463     1.0000 0.78805  0.71836  0.07097  Biso   1.000  C
  C464     1.0000 0.83080  0.73163  0.12938  Biso   1.000  C
  C465     1.0000 0.87760  0.73002  0.11096  Biso   1.000  C
  H85      1.0000 0.88383  0.72377  0.06077  Biso   1.000  H
  C466     1.0000 0.91545  0.73755  0.16596  Biso   1.000  C
  C467     1.0000 0.96477  0.73476  0.14371  Biso   1.000  C
  C468     1.0000 0.90731  0.74814  0.23944  Biso   1.000  C
  H86      1.0000 0.93293  0.75267  0.27717  Biso   1.000  H
  C469     1.0000 0.86116  0.75201  0.25697  Biso   1.000  C
  C470     1.0000 0.82255  0.74318  0.20217  Biso   1.000  C
  H87      1.0000 0.79073  0.74507  0.21447  Biso   1.000  H
  C471     1.0000 0.89263  0.78437  0.38257  Biso   1.000  C
  C472     1.0000 0.93373  0.83927  0.36917  Biso   1.000  C
  C473     1.0000 0.97253  0.85097  0.44177  Biso   1.000  C
  C474     1.0000 0.02823  0.91067  0.43857  Biso   1.000  C
  C475     1.0000 0.75815  0.63271  0.78177  Biso   1.000  C
  C476     1.0000 0.79321  0.61492  0.74071  Biso   1.000  C
  C477     1.0000 0.84523  0.62958  0.76472  Biso   1.000  C
  H88      1.0000 0.85883  0.64887  0.81027  Biso   1.000  H
  C478     1.0000 0.87783  0.61564  0.72132  Biso   1.000  C
  C479     1.0000 0.93502  0.63288  0.74345  Biso   1.000  C
  C480     1.0000 0.85653  0.58531  0.65637  Biso   1.000  C
  H89      1.0000 0.87833  0.57507  0.62767  Biso   1.000  H
  C481     1.0000 0.80403  0.57007  0.63327  Biso   1.000  C
  C482     1.0000 0.77171  0.58488  0.67477  Biso   1.000  C
  H90      1.0000 0.73573  0.57487  0.65877  Biso   1.000  H
  O155     1.0000 0.74542  0.71881  0.08890  Biso   1.000  O
  O156     1.0000 0.79757  0.70614  0.00728  Biso   1.000  O
  O157     1.0000 0.99541  0.73118  0.19209  Biso   1.000  O
  O158     1.0000 0.97624  0.73702  0.07552  Biso   1.000  O
  O159     1.0000 0.84890  0.76290  0.32669  Biso   1.000  O
  O160     1.0000 0.71674  0.62749  0.74822  Biso   1.000  O
  O161     1.0000 0.77285  0.65174  0.84660  Biso   1.000  O
  O162     1.0000 0.95194  0.65232  0.80685  Biso   1.000  O
  O163     1.0000 0.96526  0.62569  0.69581  Biso   1.000  O
  Mn29     1.0000 0.74650  0.69063  0.91752  Biso   1.000  Mn
  Mn30     1.0000 0.66138  0.66702  0.08764  Biso   1.000  Mn
  O164     1.0000 0.77973  0.52707  0.58077  Biso   1.000  O
  C483     1.0000 0.71853  0.50647  0.55997  Biso   1.000  C
  C484     1.0000 0.70543  0.45457  0.51097  Biso   1.000  C
  C485     1.0000 0.74113  0.48267  0.43467  Biso   1.000  C
  C486     1.0000 0.74103  0.47837  0.33967  Biso   1.000  C
  C487     1.0000 0.87893  0.81857  0.43617  Biso   1.000  C
  C488     1.0000 0.74573  0.53517  0.52757  Biso   1.000  C
  C489     1.0000 0.74513  0.53877  0.43587  Biso   1.000  C
  C490     1.0000 0.72963  0.56167  0.39397  Biso   1.000  C
  C491     1.0000 0.93113  0.84947  0.49147  Biso   1.000  C
  C492     1.0000 0.70193  0.47687  0.32877  Biso   1.000  C
  C493     1.0000 0.70023  0.50507  0.40137  Biso   1.000  C
  C494     1.0000 0.74543  0.51157  0.44677  Biso   1.000  C
  C495     1.0000 0.73993  0.54947  0.52617  Biso   1.000  C
  O165     1.0000 0.79233  0.55017  0.55977  Biso   1.000  O
  C496     1.0000 0.94831  0.40303  0.40430  Biso   1.000  C
  C497     1.0000 0.93504  0.43251  0.46271  Biso   1.000  C
  C498     1.0000 0.93665  0.48092  0.44429  Biso   1.000  C
  H91      1.0000 0.94290  0.49340  0.39410  Biso   1.000  H
  C499     1.0000 0.92912  0.51124  0.49929  Biso   1.000  C
  C500     1.0000 0.93191  0.56335  0.47704  Biso   1.000  C
  C501     1.0000 0.91853  0.49251  0.57277  Biso   1.000  C
  H92      1.0000 0.91400  0.51360  0.61050  Biso   1.000  H
  C502     1.0000 0.91466  0.44249  0.59030  Biso   1.000  C
  C503     1.0000 0.92349  0.41271  0.53550  Biso   1.000  C
  H93      1.0000 0.92160  0.37900  0.54780  Biso   1.000  H
  C504     1.0000 0.88230  0.44160  0.71590  Biso   1.000  C
  C505     1.0000 0.82740  0.42780  0.70250  Biso   1.000  C
  C506     1.0000 0.81570  0.45490  0.77510  Biso   1.000  C
  C507     1.0000 0.75600  0.45090  0.77190  Biso   1.000  C
  C508     1.0000 0.03396  0.45878  0.11510  Biso   1.000  C
  C509     1.0000 0.05175  0.51163  0.07404  Biso   1.000  C
  C510     1.0000 0.03709  0.54899  0.09805  Biso   1.000  C
  H94      1.0000 0.01780  0.54330  0.14360  Biso   1.000  H
  C511     1.0000 0.05103  0.59553  0.05465  Biso   1.000  C
  C512     1.0000 0.03379  0.63548  0.07678  Biso   1.000  C
  C513     1.0000 0.08136  0.60456  0.98970  Biso   1.000  C
  H95      1.0000 0.09160  0.63660  0.96100  Biso   1.000  H
  C514     1.0000 0.09660  0.56730  0.96660  Biso   1.000  C
  C515     1.0000 0.08179  0.52017  0.00810  Biso   1.000  C
  H96      1.0000 0.09180  0.49420  0.99210  Biso   1.000  H
  O166     1.0000 0.94786  0.35995  0.42223  Biso   1.000  O
  O167     1.0000 0.96053  0.42477  0.34061  Biso   1.000  O
  O168     1.0000 0.93549  0.59757  0.52542  Biso   1.000  O
  O169     1.0000 0.92965  0.57256  0.40885  Biso   1.000  O
  O170     1.0000 0.90377  0.41934  0.66002  Biso   1.000  O
  O171     1.0000 0.03918  0.42259  0.08155  Biso   1.000  O
  O172     1.0000 0.01493  0.45445  0.17993  Biso   1.000  O
  O173     1.0000 0.01435  0.63296  0.14018  Biso   1.000  O
  O174     1.0000 0.04098  0.67291  0.02914  Biso   1.000  O
  Mn31     1.0000 0.97604  0.38921  0.25085  Biso   1.000  Mn
  Mn32     1.0000 0.99965  0.32770  0.42097  Biso   1.000  Mn
  O175     1.0000 0.13960  0.58600  0.91410  Biso   1.000  O
  C516     1.0000 0.16020  0.54540  0.89330  Biso   1.000  C
  C517     1.0000 0.21210  0.58420  0.84430  Biso   1.000  C
  C518     1.0000 0.18400  0.59180  0.76800  Biso   1.000  C
  C519     1.0000 0.18830  0.59600  0.67300  Biso   1.000  C
  C520     1.0000 0.84810  0.39370  0.76950  Biso   1.000  C
  C521     1.0000 0.13150  0.54390  0.86090  Biso   1.000  C
  C522     1.0000 0.12790  0.53970  0.76920  Biso   1.000  C
  C523     1.0000 0.10500  0.50130  0.72730  Biso   1.000  C
  C524     1.0000 0.81720  0.41500  0.82480  Biso   1.000  C
  C525     1.0000 0.18980  0.55840  0.66210  Biso   1.000  C
  C526     1.0000 0.16160  0.52850  0.73470  Biso   1.000  C
  C527     1.0000 0.15510  0.56720  0.78010  Biso   1.000  C
  C528     1.0000 0.11720  0.52380  0.85950  Biso   1.000  C
  O176     1.0000 0.11650  0.57550  0.89310  Biso   1.000  O
  C529     1.0000 0.61498  0.73636  0.73763  Biso   1.000  C
  C530     1.0000 0.60171  0.76584  0.79604  Biso   1.000  C
  C531     1.0000 0.60332  0.81425  0.77762  Biso   1.000  C
  H97      1.0000 0.60957  0.82673  0.72743  Biso   1.000  H
  C532     1.0000 0.59579  0.84457  0.83262  Biso   1.000  C
  C533     1.0000 0.59858  0.89668  0.81037  Biso   1.000  C
  C534     1.0000 0.58520  0.82584  0.90610  Biso   1.000  C
  H98      1.0000 0.58067  0.84693  0.94383  Biso   1.000  H
  C535     1.0000 0.58133  0.77582  0.92363  Biso   1.000  C
  C536     1.0000 0.59016  0.74604  0.86883  Biso   1.000  C
  H99      1.0000 0.58827  0.71233  0.88113  Biso   1.000  H
  C537     1.0000 0.54897  0.77493  0.04923  Biso   1.000  C
  C538     1.0000 0.49407  0.76113  0.03583  Biso   1.000  C
  C539     1.0000 0.48237  0.78823  0.10843  Biso   1.000  C
  C540     1.0000 0.42267  0.78423  0.10523  Biso   1.000  C
  C541     1.0000 0.70063  0.79211  0.44843  Biso   1.000  C
  C542     1.0000 0.71842  0.84496  0.40737  Biso   1.000  C
  C543     1.0000 0.70376  0.88232  0.43138  Biso   1.000  C
  H100     1.0000 0.68447  0.87663  0.47693  Biso   1.000  H
  C544     1.0000 0.71770  0.92886  0.38798  Biso   1.000  C
  C545     1.0000 0.70046  0.96881  0.41011  Biso   1.000  C
  C546     1.0000 0.74803  0.93789  0.32303  Biso   1.000  C
  H101     1.0000 0.75827  0.96993  0.29433  Biso   1.000  H
  C547     1.0000 0.76327  0.90063  0.29993  Biso   1.000  C
  C548     1.0000 0.74846  0.85350  0.34143  Biso   1.000  C
  H102     1.0000 0.75847  0.82753  0.32543  Biso   1.000  H
  O177     1.0000 0.61453  0.69328  0.75556  Biso   1.000  O
  O178     1.0000 0.62720  0.75810  0.67394  Biso   1.000  O
  O179     1.0000 0.60216  0.93090  0.85875  Biso   1.000  O
  O180     1.0000 0.59632  0.90589  0.74218  Biso   1.000  O
  O181     1.0000 0.57044  0.75267  0.99335  Biso   1.000  O
  O182     1.0000 0.70585  0.75592  0.41488  Biso   1.000  O
  O183     1.0000 0.68160  0.78778  0.51326  Biso   1.000  O
  O184     1.0000 0.68102  0.96629  0.47351  Biso   1.000  O
  O185     1.0000 0.70765  0.00624  0.36247  Biso   1.000  O
  Mn33     1.0000 0.64271  0.72254  0.58418  Biso   1.000  Mn
  Mn34     1.0000 0.66632  0.66103  0.75430  Biso   1.000  Mn
  O186     1.0000 0.80627  0.91933  0.24743  Biso   1.000  O
  C549     1.0000 0.82687  0.87873  0.22663  Biso   1.000  C
  C550     1.0000 0.87877  0.91753  0.17763  Biso   1.000  C
  C551     1.0000 0.85067  0.92513  0.10133  Biso   1.000  C
  C552     1.0000 0.85497  0.92933  0.00633  Biso   1.000  C
  C553     1.0000 0.51477  0.72703  0.10283  Biso   1.000  C
  C554     1.0000 0.79817  0.87723  0.19423  Biso   1.000  C
  C555     1.0000 0.79457  0.87303  0.10253  Biso   1.000  C
  C556     1.0000 0.77167  0.83463  0.06063  Biso   1.000  C
  C557     1.0000 0.48387  0.74833  0.15813  Biso   1.000  C
  C558     1.0000 0.85647  0.89173  0.99543  Biso   1.000  C
  C559     1.0000 0.82827  0.86183  0.06803  Biso   1.000  C
  C560     1.0000 0.82177  0.90053  0.11343  Biso   1.000  C
  C561     1.0000 0.78387  0.85713  0.19283  Biso   1.000  C
  O187     1.0000 0.78317  0.90883  0.22643  Biso   1.000  O
  C562     1.0000 0.28164  0.06970  0.07097  Biso   1.000  C
  C563     1.0000 0.26837  0.09918  0.12938  Biso   1.000  C
  C564     1.0000 0.26998  0.14759  0.11096  Biso   1.000  C
  H103     1.0000 0.27623  0.16007  0.06077  Biso   1.000  H
  C565     1.0000 0.26245  0.17791  0.16596  Biso   1.000  C
  C566     1.0000 0.26524  0.23002  0.14371  Biso   1.000  C
  C567     1.0000 0.25186  0.15918  0.23944  Biso   1.000  C
  H104     1.0000 0.24733  0.18027  0.27717  Biso   1.000  H
  C568     1.0000 0.24799  0.10916  0.25697  Biso   1.000  C
  C569     1.0000 0.25682  0.07938  0.20217  Biso   1.000  C
  H105     1.0000 0.25493  0.04567  0.21447  Biso   1.000  H
  C570     1.0000 0.21563  0.10827  0.38257  Biso   1.000  C
  C571     1.0000 0.16073  0.09447  0.36917  Biso   1.000  C
  C572     1.0000 0.14903  0.12157  0.44177  Biso   1.000  C
  C573     1.0000 0.08933  0.11757  0.43857  Biso   1.000  C
  C574     1.0000 0.36729  0.12545  0.78177  Biso   1.000  C
  C575     1.0000 0.38508  0.17830  0.74071  Biso   1.000  C
  C576     1.0000 0.37042  0.21566  0.76472  Biso   1.000  C
  H106     1.0000 0.35113  0.20997  0.81027  Biso   1.000  H
  C577     1.0000 0.38436  0.26220  0.72132  Biso   1.000  C
  C578     1.0000 0.36712  0.30215  0.74345  Biso   1.000  C
  C579     1.0000 0.41469  0.27123  0.65637  Biso   1.000  C
  H107     1.0000 0.42493  0.30327  0.62767  Biso   1.000  H
  C580     1.0000 0.42993  0.23397  0.63327  Biso   1.000  C
  C581     1.0000 0.41512  0.18684  0.67477  Biso   1.000  C
  H108     1.0000 0.42513  0.16087  0.65877  Biso   1.000  H
  O188     1.0000 0.28119  0.02662  0.08890  Biso   1.000  O
  O189     1.0000 0.29386  0.09144  0.00728  Biso   1.000  O
  O190     1.0000 0.26882  0.26424  0.19209  Biso   1.000  O
  O191     1.0000 0.26298  0.23923  0.07552  Biso   1.000  O
  O192     1.0000 0.23710  0.08601  0.32669  Biso   1.000  O
  O193     1.0000 0.37251  0.08926  0.74822  Biso   1.000  O
  O194     1.0000 0.34826  0.12112  0.84660  Biso   1.000  O
  O195     1.0000 0.34768  0.29963  0.80685  Biso   1.000  O
  O196     1.0000 0.37431  0.33958  0.69581  Biso   1.000  O
  Mn35     1.0000 0.30937  0.05588  0.91752  Biso   1.000  Mn
  Mn36     1.0000 0.33298  0.99437  0.08764  Biso   1.000  Mn
  O197     1.0000 0.47293  0.25267  0.58077  Biso   1.000  O
  C582     1.0000 0.49353  0.21207  0.55997  Biso   1.000  C
  C583     1.0000 0.54543  0.25087  0.51097  Biso   1.000  C
  C584     1.0000 0.51733  0.25847  0.43467  Biso   1.000  C
  C585     1.0000 0.52163  0.26267  0.33967  Biso   1.000  C
  C586     1.0000 0.18143  0.06037  0.43617  Biso   1.000  C
  C587     1.0000 0.46483  0.21057  0.52757  Biso   1.000  C
  C588     1.0000 0.46123  0.20637  0.43587  Biso   1.000  C
  C589     1.0000 0.43833  0.16797  0.39397  Biso   1.000  C
  C590     1.0000 0.15053  0.08167  0.49147  Biso   1.000  C
  C591     1.0000 0.52313  0.22507  0.32877  Biso   1.000  C
  C592     1.0000 0.49493  0.19517  0.40137  Biso   1.000  C
  C593     1.0000 0.48843  0.23387  0.44677  Biso   1.000  C
  C594     1.0000 0.45053  0.19047  0.52617  Biso   1.000  C
  O198     1.0000 0.44983  0.24217  0.55977  Biso   1.000  O
