data_image0
_cell_length_a       36.015
_cell_length_b       14.7774
_cell_length_c       31.248
_cell_angle_alpha    90
_cell_angle_beta     102.216
_cell_angle_gamma    90

_symmetry_space_group_name_H-M    "P 1"
_symmetry_int_tables_number       1

loop_
  _symmetry_equiv_pos_as_xyz
  'x, y, z'

loop_
  _atom_site_label
  _atom_site_occupancy
  _atom_site_fract_x
  _atom_site_fract_y
  _atom_site_fract_z
  _atom_site_thermal_displace_type
  _atom_site_B_iso_or_equiv
  _atom_site_type_symbol
  C1       1.0000 0.25670  0.09620  0.19843  Biso   1.000  C
  N1       1.0000 0.26305  0.18419  0.19209  Biso   1.000  N
  C2       1.0000 0.29324  0.21900  0.21962  Biso   1.000  C
  N2       1.0000 0.31713  0.17242  0.24984  Biso   1.000  N
  C3       1.0000 0.30734  0.08610  0.25425  Biso   1.000  C
  N3       1.0000 0.27701  0.04480  0.23037  Biso   1.000  N
  C4       1.0000 0.22453  0.05150  0.16848  Biso   1.000  C
  C5       1.0000 0.21475  0.96260  0.17611  Biso   1.000  C
  H1       1.0000 0.22860  0.93030  0.20060  Biso   1.000  H
  C6       1.0000 0.18496  0.92210  0.14799  Biso   1.000  C
  H2       1.0000 0.17840  0.86160  0.15370  Biso   1.000  H
  N4       1.0000 0.16469  0.96491  0.11268  Biso   1.000  N
  C7       1.0000 0.17417  0.05090  0.10527  Biso   1.000  C
  H3       1.0000 0.16000  0.08160  0.08040  Biso   1.000  H
  C8       1.0000 0.20362  0.09640  0.13225  Biso   1.000  C
  H4       1.0000 0.20940  0.15710  0.12610  Biso   1.000  H
  C9       1.0000 0.30055  0.31760  0.21853  Biso   1.000  C
  C10      1.0000 0.27278  0.37790  0.19879  Biso   1.000  C
  H5       1.0000 0.24850  0.35660  0.18410  Biso   1.000  H
  C11      1.0000 0.28079  0.46940  0.20064  Biso   1.000  C
  H6       1.0000 0.26150  0.51040  0.18730  Biso   1.000  H
  N5       1.0000 0.31472  0.50275  0.22043  Biso   1.000  N
  C12      1.0000 0.34158  0.44390  0.23936  Biso   1.000  C
  H7       1.0000 0.36570  0.46690  0.25350  Biso   1.000  H
  C13      1.0000 0.33581  0.35170  0.23927  Biso   1.000  C
  H8       1.0000 0.35550  0.31210  0.25310  Biso   1.000  H
  C14      1.0000 0.33317  0.03420  0.28945  Biso   1.000  C
  C15      1.0000 0.36452  0.07620  0.31421  Biso   1.000  C
  H9       1.0000 0.37000  0.13750  0.30890  Biso   1.000  H
  C16      1.0000 0.38790  0.02790  0.34680  Biso   1.000  C
  H10      1.0000 0.40980  0.05700  0.36340  Biso   1.000  H
  N6       1.0000 0.38122  0.94209  0.35611  Biso   1.000  N
  C17      1.0000 0.35035  0.90160  0.33257  Biso   1.000  C
  H11      1.0000 0.34520  0.84080  0.33930  Biso   1.000  H
  C18      1.0000 0.32553  0.94460  0.29872  Biso   1.000  C
  H12      1.0000 0.30400  0.91390  0.28230  Biso   1.000  H
  C19      1.0000 0.98311  0.16770  0.06380  Biso   1.000  C
  N7       1.0000 0.96287  0.15410  0.09450  Biso   1.000  N
  C20      1.0000 0.93421  0.21210  0.09265  Biso   1.000  C
  N8       1.0000 0.92641  0.28275  0.06537  Biso   1.000  N
  C21      1.0000 0.94881  0.28970  0.03684  Biso   1.000  C
  N9       1.0000 0.97670  0.23230  0.03341  Biso   1.000  N
  C22      1.0000 0.01569  0.10660  0.06440  Biso   1.000  C
  C23      1.0000 0.02915  0.09100  0.02687  Biso   1.000  C
  H13      1.0000 0.01740  0.11900  0.00000  Biso   1.000  H
  C24      1.0000 0.05988  0.03460  0.02880  Biso   1.000  C
  H14      1.0000 0.06880  0.02340  0.00280  Biso   1.000  H
  N10      1.0000 0.07771  0.99475  0.06605  Biso   1.000  N
  C25      1.0000 0.06484  0.01190  0.10262  Biso   1.000  C
  H15      1.0000 0.07770  0.98520  0.12930  Biso   1.000  H
  C26      1.0000 0.03399  0.06600  0.10311  Biso   1.000  C
  H16      1.0000 0.02540  0.07550  0.12950  Biso   1.000  H
  C27      1.0000 0.90872  0.19580  0.12357  Biso   1.000  C
  C28      1.0000 0.91933  0.13650  0.15858  Biso   1.000  C
  H17      1.0000 0.94330  0.10700  0.16370  Biso   1.000  H
  C29      1.0000 0.89438  0.12160  0.18563  Biso   1.000  C
  H18      1.0000 0.90170  0.08150  0.20970  Biso   1.000  H
  N11      1.0000 0.86031  0.16090  0.17968  Biso   1.000  N
  C30      1.0000 0.85025  0.21830  0.14592  Biso   1.000  C
  H19      1.0000 0.82600  0.24660  0.14140  Biso   1.000  H
  C31      1.0000 0.87357  0.23770  0.11761  Biso   1.000  C
  H20      1.0000 0.86570  0.27920  0.09430  Biso   1.000  H
  C32      1.0000 0.94323  0.36830  0.00633  Biso   1.000  C
  C33      1.0000 0.91142  0.42270  0.00163  Biso   1.000  C
  H21      1.0000 0.89290  0.41160  0.01860  Biso   1.000  H
  C34      1.0000 0.90668  0.49310  0.97214  Biso   1.000  C
  H22      1.0000 0.88430  0.52870  0.96850  Biso   1.000  H
  N12      1.0000 0.93226  0.51331  0.94841  Biso   1.000  N
  C35      1.0000 0.96343  0.46160  0.95336  Biso   1.000  C
  H23      1.0000 0.98200  0.47580  0.93680  Biso   1.000  H
  C36      1.0000 0.96977  0.38860  0.98154  Biso   1.000  C
  H24      1.0000 0.99200  0.35270  0.98390  Biso   1.000  H
  Zn1      1.0000 0.12117  0.90373  0.06870  Biso   1.000  Zn
  I1       1.0000 0.09971  0.76130  0.10415  Biso   1.000  I
  I2       1.0000 0.13771  0.90120  0.99228  Biso   1.000  I
  Zn2      1.0000 0.42126  0.88013  0.40366  Biso   1.000  Zn
  I3       1.0000 0.38979  0.75558  0.43838  Biso   1.000  I
  I4       1.0000 0.47818  0.86920  0.36736  Biso   1.000  I
  Zn3      1.0000 0.82656  0.13994  0.22461  Biso   1.000  Zn
  I5       1.0000 0.87059  0.16163  0.30052  Biso   1.000  I
  I6       1.0000 0.76562  0.23014  0.19970  Biso   1.000  I
  I7       1.0000 0.09987  0.76940  0.10720  Biso   1.000  I
  I8       1.0000 0.13560  0.89440  0.99570  Biso   1.000  I
  I9       1.0000 0.39110  0.75900  0.44340  Biso   1.000  I
  I10      1.0000 0.47700  0.84930  0.36730  Biso   1.000  I
  I11      1.0000 0.86550  0.16280  0.29710  Biso   1.000  I
  I12      1.0000 0.76460  0.22490  0.19480  Biso   1.000  I
  C37      1.0000 0.75670  0.59620  0.19843  Biso   1.000  C
  N13      1.0000 0.76305  0.68419  0.19209  Biso   1.000  N
  C38      1.0000 0.79324  0.71900  0.21962  Biso   1.000  C
  N14      1.0000 0.81713  0.67242  0.24984  Biso   1.000  N
  C39      1.0000 0.80734  0.58610  0.25425  Biso   1.000  C
  N15      1.0000 0.77701  0.54480  0.23037  Biso   1.000  N
  C40      1.0000 0.72453  0.55150  0.16848  Biso   1.000  C
  C41      1.0000 0.71475  0.46260  0.17611  Biso   1.000  C
  H25      1.0000 0.72860  0.43030  0.20060  Biso   1.000  H
  C42      1.0000 0.68496  0.42210  0.14799  Biso   1.000  C
  H26      1.0000 0.67840  0.36160  0.15370  Biso   1.000  H
  N16      1.0000 0.66469  0.46491  0.11268  Biso   1.000  N
  C43      1.0000 0.67417  0.55090  0.10527  Biso   1.000  C
  H27      1.0000 0.66000  0.58160  0.08040  Biso   1.000  H
  C44      1.0000 0.70362  0.59640  0.13225  Biso   1.000  C
  H28      1.0000 0.70940  0.65710  0.12610  Biso   1.000  H
  C45      1.0000 0.80055  0.81760  0.21853  Biso   1.000  C
  C46      1.0000 0.77278  0.87790  0.19879  Biso   1.000  C
  H29      1.0000 0.74850  0.85660  0.18410  Biso   1.000  H
  C47      1.0000 0.78079  0.96940  0.20064  Biso   1.000  C
  H30      1.0000 0.76150  0.01040  0.18730  Biso   1.000  H
  N17      1.0000 0.81472  0.00275  0.22043  Biso   1.000  N
  C48      1.0000 0.84158  0.94390  0.23936  Biso   1.000  C
  H31      1.0000 0.86570  0.96690  0.25350  Biso   1.000  H
  C49      1.0000 0.83581  0.85170  0.23927  Biso   1.000  C
  H32      1.0000 0.85550  0.81210  0.25310  Biso   1.000  H
  C50      1.0000 0.83317  0.53420  0.28945  Biso   1.000  C
  C51      1.0000 0.86452  0.57620  0.31421  Biso   1.000  C
  H33      1.0000 0.87000  0.63750  0.30890  Biso   1.000  H
  C52      1.0000 0.88790  0.52790  0.34680  Biso   1.000  C
  H34      1.0000 0.90980  0.55700  0.36340  Biso   1.000  H
  N18      1.0000 0.88122  0.44209  0.35611  Biso   1.000  N
  C53      1.0000 0.85035  0.40160  0.33257  Biso   1.000  C
  H35      1.0000 0.84520  0.34080  0.33930  Biso   1.000  H
  C54      1.0000 0.82553  0.44460  0.29872  Biso   1.000  C
  H36      1.0000 0.80400  0.41390  0.28230  Biso   1.000  H
  C55      1.0000 0.48311  0.66770  0.06380  Biso   1.000  C
  N19      1.0000 0.46287  0.65410  0.09450  Biso   1.000  N
  C56      1.0000 0.43421  0.71210  0.09265  Biso   1.000  C
  N20      1.0000 0.42641  0.78275  0.06537  Biso   1.000  N
  C57      1.0000 0.44881  0.78970  0.03684  Biso   1.000  C
  N21      1.0000 0.47670  0.73230  0.03341  Biso   1.000  N
  C58      1.0000 0.51569  0.60660  0.06440  Biso   1.000  C
  C59      1.0000 0.52915  0.59100  0.02687  Biso   1.000  C
  H37      1.0000 0.51740  0.61900  0.00000  Biso   1.000  H
  C60      1.0000 0.55988  0.53460  0.02880  Biso   1.000  C
  H38      1.0000 0.56880  0.52340  0.00280  Biso   1.000  H
  N22      1.0000 0.57771  0.49475  0.06605  Biso   1.000  N
  C61      1.0000 0.56484  0.51190  0.10262  Biso   1.000  C
  H39      1.0000 0.57770  0.48520  0.12930  Biso   1.000  H
  C62      1.0000 0.53399  0.56600  0.10311  Biso   1.000  C
  H40      1.0000 0.52540  0.57550  0.12950  Biso   1.000  H
  C63      1.0000 0.40872  0.69580  0.12357  Biso   1.000  C
  C64      1.0000 0.41933  0.63650  0.15858  Biso   1.000  C
  H41      1.0000 0.44330  0.60700  0.16370  Biso   1.000  H
  C65      1.0000 0.39438  0.62160  0.18563  Biso   1.000  C
  H42      1.0000 0.40170  0.58150  0.20970  Biso   1.000  H
  N23      1.0000 0.36031  0.66090  0.17968  Biso   1.000  N
  C66      1.0000 0.35025  0.71830  0.14592  Biso   1.000  C
  H43      1.0000 0.32600  0.74660  0.14140  Biso   1.000  H
  C67      1.0000 0.37357  0.73770  0.11761  Biso   1.000  C
  H44      1.0000 0.36570  0.77920  0.09430  Biso   1.000  H
  C68      1.0000 0.44323  0.86830  0.00633  Biso   1.000  C
  C69      1.0000 0.41142  0.92270  0.00163  Biso   1.000  C
  H45      1.0000 0.39290  0.91160  0.01860  Biso   1.000  H
  C70      1.0000 0.40668  0.99310  0.97214  Biso   1.000  C
  H46      1.0000 0.38430  0.02870  0.96850  Biso   1.000  H
  N24      1.0000 0.43226  0.01331  0.94841  Biso   1.000  N
  C71      1.0000 0.46343  0.96160  0.95336  Biso   1.000  C
  H47      1.0000 0.48200  0.97580  0.93680  Biso   1.000  H
  C72      1.0000 0.46977  0.88860  0.98154  Biso   1.000  C
  H48      1.0000 0.49200  0.85270  0.98390  Biso   1.000  H
  Zn4      1.0000 0.62117  0.40373  0.06870  Biso   1.000  Zn
  I13      1.0000 0.59971  0.26130  0.10415  Biso   1.000  I
  I14      1.0000 0.63771  0.40120  0.99228  Biso   1.000  I
  Zn5      1.0000 0.92126  0.38013  0.40366  Biso   1.000  Zn
  I15      1.0000 0.88979  0.25558  0.43838  Biso   1.000  I
  I16      1.0000 0.97818  0.36920  0.36736  Biso   1.000  I
  Zn6      1.0000 0.32656  0.63994  0.22461  Biso   1.000  Zn
  I17      1.0000 0.37059  0.66163  0.30052  Biso   1.000  I
  I18      1.0000 0.26562  0.73014  0.19970  Biso   1.000  I
  I19      1.0000 0.59987  0.26940  0.10720  Biso   1.000  I
  I20      1.0000 0.63560  0.39440  0.99570  Biso   1.000  I
  I21      1.0000 0.89110  0.25900  0.44340  Biso   1.000  I
  I22      1.0000 0.97700  0.34930  0.36730  Biso   1.000  I
  I23      1.0000 0.36550  0.66280  0.29710  Biso   1.000  I
  I24      1.0000 0.26460  0.72490  0.19480  Biso   1.000  I
  C73      1.0000 0.25670  0.90380  0.69843  Biso   1.000  C
  N25      1.0000 0.26305  0.81581  0.69209  Biso   1.000  N
  C74      1.0000 0.29324  0.78100  0.71962  Biso   1.000  C
  N26      1.0000 0.31713  0.82758  0.74984  Biso   1.000  N
  C75      1.0000 0.30734  0.91390  0.75425  Biso   1.000  C
  N27      1.0000 0.27701  0.95520  0.73037  Biso   1.000  N
  C76      1.0000 0.22453  0.94850  0.66848  Biso   1.000  C
  C77      1.0000 0.21475  0.03740  0.67611  Biso   1.000  C
  H49      1.0000 0.22860  0.06970  0.70060  Biso   1.000  H
  C78      1.0000 0.18496  0.07790  0.64799  Biso   1.000  C
  H50      1.0000 0.17840  0.13840  0.65370  Biso   1.000  H
  N28      1.0000 0.16469  0.03509  0.61268  Biso   1.000  N
  C79      1.0000 0.17417  0.94910  0.60527  Biso   1.000  C
  H51      1.0000 0.16000  0.91840  0.58040  Biso   1.000  H
  C80      1.0000 0.20362  0.90360  0.63225  Biso   1.000  C
  H52      1.0000 0.20940  0.84290  0.62610  Biso   1.000  H
  C81      1.0000 0.30055  0.68240  0.71853  Biso   1.000  C
  C82      1.0000 0.27278  0.62210  0.69879  Biso   1.000  C
  H53      1.0000 0.24850  0.64340  0.68410  Biso   1.000  H
  C83      1.0000 0.28079  0.53060  0.70064  Biso   1.000  C
  H54      1.0000 0.26150  0.48960  0.68730  Biso   1.000  H
  N29      1.0000 0.31472  0.49725  0.72043  Biso   1.000  N
  C84      1.0000 0.34158  0.55610  0.73936  Biso   1.000  C
  H55      1.0000 0.36570  0.53310  0.75350  Biso   1.000  H
  C85      1.0000 0.33581  0.64830  0.73927  Biso   1.000  C
  H56      1.0000 0.35550  0.68790  0.75310  Biso   1.000  H
  C86      1.0000 0.33317  0.96580  0.78945  Biso   1.000  C
  C87      1.0000 0.36452  0.92380  0.81421  Biso   1.000  C
  H57      1.0000 0.37000  0.86250  0.80890  Biso   1.000  H
  C88      1.0000 0.38790  0.97210  0.84680  Biso   1.000  C
  H58      1.0000 0.40980  0.94300  0.86340  Biso   1.000  H
  N30      1.0000 0.38122  0.05791  0.85611  Biso   1.000  N
  C89      1.0000 0.35035  0.09840  0.83257  Biso   1.000  C
  H59      1.0000 0.34520  0.15920  0.83930  Biso   1.000  H
  C90      1.0000 0.32553  0.05540  0.79872  Biso   1.000  C
  H60      1.0000 0.30400  0.08610  0.78230  Biso   1.000  H
  C91      1.0000 0.98311  0.83230  0.56380  Biso   1.000  C
  N31      1.0000 0.96287  0.84590  0.59450  Biso   1.000  N
  C92      1.0000 0.93421  0.78790  0.59265  Biso   1.000  C
  N32      1.0000 0.92641  0.71725  0.56537  Biso   1.000  N
  C93      1.0000 0.94881  0.71030  0.53684  Biso   1.000  C
  N33      1.0000 0.97670  0.76770  0.53341  Biso   1.000  N
  C94      1.0000 0.01569  0.89340  0.56440  Biso   1.000  C
  C95      1.0000 0.02915  0.90900  0.52687  Biso   1.000  C
  H61      1.0000 0.01740  0.88100  0.50000  Biso   1.000  H
  C96      1.0000 0.05988  0.96540  0.52880  Biso   1.000  C
  H62      1.0000 0.06880  0.97660  0.50280  Biso   1.000  H
  N34      1.0000 0.07771  0.00525  0.56605  Biso   1.000  N
  C97      1.0000 0.06484  0.98810  0.60262  Biso   1.000  C
  H63      1.0000 0.07770  0.01480  0.62930  Biso   1.000  H
  C98      1.0000 0.03399  0.93400  0.60311  Biso   1.000  C
  H64      1.0000 0.02540  0.92450  0.62950  Biso   1.000  H
  C99      1.0000 0.90872  0.80420  0.62357  Biso   1.000  C
  C100     1.0000 0.91933  0.86350  0.65858  Biso   1.000  C
  H65      1.0000 0.94330  0.89300  0.66370  Biso   1.000  H
  C101     1.0000 0.89438  0.87840  0.68563  Biso   1.000  C
  H66      1.0000 0.90170  0.91850  0.70970  Biso   1.000  H
  N35      1.0000 0.86031  0.83910  0.67968  Biso   1.000  N
  C102     1.0000 0.85025  0.78170  0.64592  Biso   1.000  C
  H67      1.0000 0.82600  0.75340  0.64140  Biso   1.000  H
  C103     1.0000 0.87357  0.76230  0.61761  Biso   1.000  C
  H68      1.0000 0.86570  0.72080  0.59430  Biso   1.000  H
  C104     1.0000 0.94323  0.63170  0.50633  Biso   1.000  C
  C105     1.0000 0.91142  0.57730  0.50163  Biso   1.000  C
  H69      1.0000 0.89290  0.58840  0.51860  Biso   1.000  H
  C106     1.0000 0.90668  0.50690  0.47214  Biso   1.000  C
  H70      1.0000 0.88430  0.47130  0.46850  Biso   1.000  H
  N36      1.0000 0.93226  0.48669  0.44841  Biso   1.000  N
  C107     1.0000 0.96343  0.53840  0.45336  Biso   1.000  C
  H71      1.0000 0.98200  0.52420  0.43680  Biso   1.000  H
  C108     1.0000 0.96977  0.61140  0.48154  Biso   1.000  C
  H72      1.0000 0.99200  0.64730  0.48390  Biso   1.000  H
  Zn7      1.0000 0.12117  0.09627  0.56870  Biso   1.000  Zn
  I25      1.0000 0.09971  0.23870  0.60415  Biso   1.000  I
  I26      1.0000 0.13771  0.09880  0.49228  Biso   1.000  I
  Zn8      1.0000 0.42126  0.11987  0.90366  Biso   1.000  Zn
  I27      1.0000 0.38979  0.24442  0.93838  Biso   1.000  I
  I28      1.0000 0.47818  0.13080  0.86736  Biso   1.000  I
  Zn9      1.0000 0.82656  0.86006  0.72461  Biso   1.000  Zn
  I29      1.0000 0.87059  0.83837  0.80052  Biso   1.000  I
  I30      1.0000 0.76562  0.76986  0.69970  Biso   1.000  I
  I31      1.0000 0.09987  0.23060  0.60720  Biso   1.000  I
  I32      1.0000 0.13560  0.10560  0.49570  Biso   1.000  I
  I33      1.0000 0.39110  0.24100  0.94340  Biso   1.000  I
  I34      1.0000 0.47700  0.15070  0.86730  Biso   1.000  I
  I35      1.0000 0.86550  0.83720  0.79710  Biso   1.000  I
  I36      1.0000 0.76460  0.77510  0.69480  Biso   1.000  I
  C109     1.0000 0.75670  0.40380  0.69843  Biso   1.000  C
  N37      1.0000 0.76305  0.31581  0.69209  Biso   1.000  N
  C110     1.0000 0.79324  0.28100  0.71962  Biso   1.000  C
  N38      1.0000 0.81713  0.32758  0.74984  Biso   1.000  N
  C111     1.0000 0.80734  0.41390  0.75425  Biso   1.000  C
  N39      1.0000 0.77701  0.45520  0.73037  Biso   1.000  N
  C112     1.0000 0.72453  0.44850  0.66848  Biso   1.000  C
  C113     1.0000 0.71475  0.53740  0.67611  Biso   1.000  C
  H73      1.0000 0.72860  0.56970  0.70060  Biso   1.000  H
  C114     1.0000 0.68496  0.57790  0.64799  Biso   1.000  C
  H74      1.0000 0.67840  0.63840  0.65370  Biso   1.000  H
  N40      1.0000 0.66469  0.53509  0.61268  Biso   1.000  N
  C115     1.0000 0.67417  0.44910  0.60527  Biso   1.000  C
  H75      1.0000 0.66000  0.41840  0.58040  Biso   1.000  H
  C116     1.0000 0.70362  0.40360  0.63225  Biso   1.000  C
  H76      1.0000 0.70940  0.34290  0.62610  Biso   1.000  H
  C117     1.0000 0.80055  0.18240  0.71853  Biso   1.000  C
  C118     1.0000 0.77278  0.12210  0.69879  Biso   1.000  C
  H77      1.0000 0.74850  0.14340  0.68410  Biso   1.000  H
  C119     1.0000 0.78079  0.03060  0.70064  Biso   1.000  C
  H78      1.0000 0.76150  0.98960  0.68730  Biso   1.000  H
  N41      1.0000 0.81472  0.99725  0.72043  Biso   1.000  N
  C120     1.0000 0.84158  0.05610  0.73936  Biso   1.000  C
  H79      1.0000 0.86570  0.03310  0.75350  Biso   1.000  H
  C121     1.0000 0.83581  0.14830  0.73927  Biso   1.000  C
  H80      1.0000 0.85550  0.18790  0.75310  Biso   1.000  H
  C122     1.0000 0.83317  0.46580  0.78945  Biso   1.000  C
  C123     1.0000 0.86452  0.42380  0.81421  Biso   1.000  C
  H81      1.0000 0.87000  0.36250  0.80890  Biso   1.000  H
  C124     1.0000 0.88790  0.47210  0.84680  Biso   1.000  C
  H82      1.0000 0.90980  0.44300  0.86340  Biso   1.000  H
  N42      1.0000 0.88122  0.55791  0.85611  Biso   1.000  N
  C125     1.0000 0.85035  0.59840  0.83257  Biso   1.000  C
  H83      1.0000 0.84520  0.65920  0.83930  Biso   1.000  H
  C126     1.0000 0.82553  0.55540  0.79872  Biso   1.000  C
  H84      1.0000 0.80400  0.58610  0.78230  Biso   1.000  H
  C127     1.0000 0.48311  0.33230  0.56380  Biso   1.000  C
  N43      1.0000 0.46287  0.34590  0.59450  Biso   1.000  N
  C128     1.0000 0.43421  0.28790  0.59265  Biso   1.000  C
  N44      1.0000 0.42641  0.21725  0.56537  Biso   1.000  N
  C129     1.0000 0.44881  0.21030  0.53684  Biso   1.000  C
  N45      1.0000 0.47670  0.26770  0.53341  Biso   1.000  N
  C130     1.0000 0.51569  0.39340  0.56440  Biso   1.000  C
  C131     1.0000 0.52915  0.40900  0.52687  Biso   1.000  C
  H85      1.0000 0.51740  0.38100  0.50000  Biso   1.000  H
  C132     1.0000 0.55988  0.46540  0.52880  Biso   1.000  C
  H86      1.0000 0.56880  0.47660  0.50280  Biso   1.000  H
  N46      1.0000 0.57771  0.50525  0.56605  Biso   1.000  N
  C133     1.0000 0.56484  0.48810  0.60262  Biso   1.000  C
  H87      1.0000 0.57770  0.51480  0.62930  Biso   1.000  H
  C134     1.0000 0.53399  0.43400  0.60311  Biso   1.000  C
  H88      1.0000 0.52540  0.42450  0.62950  Biso   1.000  H
  C135     1.0000 0.40872  0.30420  0.62357  Biso   1.000  C
  C136     1.0000 0.41933  0.36350  0.65858  Biso   1.000  C
  H89      1.0000 0.44330  0.39300  0.66370  Biso   1.000  H
  C137     1.0000 0.39438  0.37840  0.68563  Biso   1.000  C
  H90      1.0000 0.40170  0.41850  0.70970  Biso   1.000  H
  N47      1.0000 0.36031  0.33910  0.67968  Biso   1.000  N
  C138     1.0000 0.35025  0.28170  0.64592  Biso   1.000  C
  H91      1.0000 0.32600  0.25340  0.64140  Biso   1.000  H
  C139     1.0000 0.37357  0.26230  0.61761  Biso   1.000  C
  H92      1.0000 0.36570  0.22080  0.59430  Biso   1.000  H
  C140     1.0000 0.44323  0.13170  0.50633  Biso   1.000  C
  C141     1.0000 0.41142  0.07730  0.50163  Biso   1.000  C
  H93      1.0000 0.39290  0.08840  0.51860  Biso   1.000  H
  C142     1.0000 0.40668  0.00690  0.47214  Biso   1.000  C
  H94      1.0000 0.38430  0.97130  0.46850  Biso   1.000  H
  N48      1.0000 0.43226  0.98669  0.44841  Biso   1.000  N
  C143     1.0000 0.46343  0.03840  0.45336  Biso   1.000  C
  H95      1.0000 0.48200  0.02420  0.43680  Biso   1.000  H
  C144     1.0000 0.46977  0.11140  0.48154  Biso   1.000  C
  H96      1.0000 0.49200  0.14730  0.48390  Biso   1.000  H
  Zn10     1.0000 0.62117  0.59627  0.56870  Biso   1.000  Zn
  I37      1.0000 0.59971  0.73870  0.60415  Biso   1.000  I
  I38      1.0000 0.63771  0.59880  0.49228  Biso   1.000  I
  Zn11     1.0000 0.92126  0.61987  0.90366  Biso   1.000  Zn
  I39      1.0000 0.88979  0.74442  0.93838  Biso   1.000  I
  I40      1.0000 0.97818  0.63080  0.86736  Biso   1.000  I
  Zn12     1.0000 0.32656  0.36006  0.72461  Biso   1.000  Zn
  I41      1.0000 0.37059  0.33837  0.80052  Biso   1.000  I
  I42      1.0000 0.26562  0.26986  0.69970  Biso   1.000  I
  I43      1.0000 0.59987  0.73060  0.60720  Biso   1.000  I
  I44      1.0000 0.63560  0.60560  0.49570  Biso   1.000  I
  I45      1.0000 0.89110  0.74100  0.94340  Biso   1.000  I
  I46      1.0000 0.97700  0.65070  0.86730  Biso   1.000  I
  I47      1.0000 0.36550  0.33720  0.79710  Biso   1.000  I
  I48      1.0000 0.26460  0.27510  0.69480  Biso   1.000  I
  C145     1.0000 0.74330  0.09620  0.30157  Biso   1.000  C
  N49      1.0000 0.73695  0.18419  0.30791  Biso   1.000  N
  C146     1.0000 0.70676  0.21900  0.28038  Biso   1.000  C
  N50      1.0000 0.68287  0.17242  0.25016  Biso   1.000  N
  C147     1.0000 0.69266  0.08610  0.24575  Biso   1.000  C
  N51      1.0000 0.72299  0.04480  0.26963  Biso   1.000  N
  C148     1.0000 0.77547  0.05150  0.33152  Biso   1.000  C
  C149     1.0000 0.78525  0.96260  0.32389  Biso   1.000  C
  H97      1.0000 0.77140  0.93030  0.29940  Biso   1.000  H
  C150     1.0000 0.81504  0.92210  0.35201  Biso   1.000  C
  H98      1.0000 0.82160  0.86160  0.34630  Biso   1.000  H
  N52      1.0000 0.83531  0.96491  0.38732  Biso   1.000  N
  C151     1.0000 0.82583  0.05090  0.39473  Biso   1.000  C
  H99      1.0000 0.84000  0.08160  0.41960  Biso   1.000  H
  C152     1.0000 0.79638  0.09640  0.36775  Biso   1.000  C
  H100     1.0000 0.79060  0.15710  0.37390  Biso   1.000  H
  C153     1.0000 0.69945  0.31760  0.28147  Biso   1.000  C
  C154     1.0000 0.72722  0.37790  0.30121  Biso   1.000  C
  H101     1.0000 0.75150  0.35660  0.31590  Biso   1.000  H
  C155     1.0000 0.71921  0.46940  0.29936  Biso   1.000  C
  H102     1.0000 0.73850  0.51040  0.31270  Biso   1.000  H
  N53      1.0000 0.68528  0.50275  0.27957  Biso   1.000  N
  C156     1.0000 0.65842  0.44390  0.26064  Biso   1.000  C
  H103     1.0000 0.63430  0.46690  0.24650  Biso   1.000  H
  C157     1.0000 0.66419  0.35170  0.26073  Biso   1.000  C
  H104     1.0000 0.64450  0.31210  0.24690  Biso   1.000  H
  C158     1.0000 0.66683  0.03420  0.21055  Biso   1.000  C
  C159     1.0000 0.63548  0.07620  0.18579  Biso   1.000  C
  H105     1.0000 0.63000  0.13750  0.19110  Biso   1.000  H
  C160     1.0000 0.61210  0.02790  0.15320  Biso   1.000  C
  H106     1.0000 0.59020  0.05700  0.13660  Biso   1.000  H
  N54      1.0000 0.61878  0.94209  0.14389  Biso   1.000  N
  C161     1.0000 0.64965  0.90160  0.16743  Biso   1.000  C
  H107     1.0000 0.65480  0.84080  0.16070  Biso   1.000  H
  C162     1.0000 0.67447  0.94460  0.20128  Biso   1.000  C
  H108     1.0000 0.69600  0.91390  0.21770  Biso   1.000  H
  C163     1.0000 0.01689  0.16770  0.43620  Biso   1.000  C
  N55      1.0000 0.03713  0.15410  0.40550  Biso   1.000  N
  C164     1.0000 0.06579  0.21210  0.40735  Biso   1.000  C
  N56      1.0000 0.07359  0.28275  0.43463  Biso   1.000  N
  C165     1.0000 0.05119  0.28970  0.46316  Biso   1.000  C
  N57      1.0000 0.02330  0.23230  0.46659  Biso   1.000  N
  C166     1.0000 0.98431  0.10660  0.43560  Biso   1.000  C
  C167     1.0000 0.97085  0.09100  0.47313  Biso   1.000  C
  H109     1.0000 0.98260  0.11900  0.50000  Biso   1.000  H
  C168     1.0000 0.94012  0.03460  0.47120  Biso   1.000  C
  H110     1.0000 0.93120  0.02340  0.49720  Biso   1.000  H
  N58      1.0000 0.92229  0.99475  0.43395  Biso   1.000  N
  C169     1.0000 0.93516  0.01190  0.39738  Biso   1.000  C
  H111     1.0000 0.92230  0.98520  0.37070  Biso   1.000  H
  C170     1.0000 0.96601  0.06600  0.39689  Biso   1.000  C
  H112     1.0000 0.97460  0.07550  0.37050  Biso   1.000  H
  C171     1.0000 0.09128  0.19580  0.37643  Biso   1.000  C
  C172     1.0000 0.08067  0.13650  0.34142  Biso   1.000  C
  H113     1.0000 0.05670  0.10700  0.33630  Biso   1.000  H
  C173     1.0000 0.10562  0.12160  0.31437  Biso   1.000  C
  H114     1.0000 0.09830  0.08150  0.29030  Biso   1.000  H
  N59      1.0000 0.13969  0.16090  0.32032  Biso   1.000  N
  C174     1.0000 0.14975  0.21830  0.35408  Biso   1.000  C
  H115     1.0000 0.17400  0.24660  0.35860  Biso   1.000  H
  C175     1.0000 0.12643  0.23770  0.38239  Biso   1.000  C
  H116     1.0000 0.13430  0.27920  0.40570  Biso   1.000  H
  C176     1.0000 0.05677  0.36830  0.49367  Biso   1.000  C
  C177     1.0000 0.08858  0.42270  0.49837  Biso   1.000  C
  H117     1.0000 0.10710  0.41160  0.48140  Biso   1.000  H
  C178     1.0000 0.09332  0.49310  0.52786  Biso   1.000  C
  H118     1.0000 0.11570  0.52870  0.53150  Biso   1.000  H
  N60      1.0000 0.06774  0.51331  0.55159  Biso   1.000  N
  C179     1.0000 0.03657  0.46160  0.54664  Biso   1.000  C
  H119     1.0000 0.01800  0.47580  0.56320  Biso   1.000  H
  C180     1.0000 0.03023  0.38860  0.51846  Biso   1.000  C
  H120     1.0000 0.00800  0.35270  0.51610  Biso   1.000  H
  Zn13     1.0000 0.87883  0.90373  0.43130  Biso   1.000  Zn
  I49      1.0000 0.90029  0.76130  0.39585  Biso   1.000  I
  I50      1.0000 0.86229  0.90120  0.50772  Biso   1.000  I
  Zn14     1.0000 0.57874  0.88013  0.09634  Biso   1.000  Zn
  I51      1.0000 0.61021  0.75558  0.06162  Biso   1.000  I
  I52      1.0000 0.52182  0.86920  0.13264  Biso   1.000  I
  Zn15     1.0000 0.17344  0.13994  0.27539  Biso   1.000  Zn
  I53      1.0000 0.12941  0.16163  0.19948  Biso   1.000  I
  I54      1.0000 0.23438  0.23014  0.30030  Biso   1.000  I
  I55      1.0000 0.90013  0.76940  0.39280  Biso   1.000  I
  I56      1.0000 0.86440  0.89440  0.50430  Biso   1.000  I
  I57      1.0000 0.60890  0.75900  0.05660  Biso   1.000  I
  I58      1.0000 0.52300  0.84930  0.13270  Biso   1.000  I
  I59      1.0000 0.13450  0.16280  0.20290  Biso   1.000  I
  I60      1.0000 0.23540  0.22490  0.30520  Biso   1.000  I
  C181     1.0000 0.24330  0.59620  0.30157  Biso   1.000  C
  N61      1.0000 0.23695  0.68419  0.30791  Biso   1.000  N
  C182     1.0000 0.20676  0.71900  0.28038  Biso   1.000  C
  N62      1.0000 0.18287  0.67242  0.25016  Biso   1.000  N
  C183     1.0000 0.19266  0.58610  0.24575  Biso   1.000  C
  N63      1.0000 0.22299  0.54480  0.26963  Biso   1.000  N
  C184     1.0000 0.27547  0.55150  0.33152  Biso   1.000  C
  C185     1.0000 0.28525  0.46260  0.32389  Biso   1.000  C
  H121     1.0000 0.27140  0.43030  0.29940  Biso   1.000  H
  C186     1.0000 0.31504  0.42210  0.35201  Biso   1.000  C
  H122     1.0000 0.32160  0.36160  0.34630  Biso   1.000  H
  N64      1.0000 0.33531  0.46491  0.38732  Biso   1.000  N
  C187     1.0000 0.32583  0.55090  0.39473  Biso   1.000  C
  H123     1.0000 0.34000  0.58160  0.41960  Biso   1.000  H
  C188     1.0000 0.29638  0.59640  0.36775  Biso   1.000  C
  H124     1.0000 0.29060  0.65710  0.37390  Biso   1.000  H
  C189     1.0000 0.19945  0.81760  0.28147  Biso   1.000  C
  C190     1.0000 0.22722  0.87790  0.30121  Biso   1.000  C
  H125     1.0000 0.25150  0.85660  0.31590  Biso   1.000  H
  C191     1.0000 0.21921  0.96940  0.29936  Biso   1.000  C
  H126     1.0000 0.23850  0.01040  0.31270  Biso   1.000  H
  N65      1.0000 0.18528  0.00275  0.27957  Biso   1.000  N
  C192     1.0000 0.15842  0.94390  0.26064  Biso   1.000  C
  H127     1.0000 0.13430  0.96690  0.24650  Biso   1.000  H
  C193     1.0000 0.16419  0.85170  0.26073  Biso   1.000  C
  H128     1.0000 0.14450  0.81210  0.24690  Biso   1.000  H
  C194     1.0000 0.16683  0.53420  0.21055  Biso   1.000  C
  C195     1.0000 0.13548  0.57620  0.18579  Biso   1.000  C
  H129     1.0000 0.13000  0.63750  0.19110  Biso   1.000  H
  C196     1.0000 0.11210  0.52790  0.15320  Biso   1.000  C
  H130     1.0000 0.09020  0.55700  0.13660  Biso   1.000  H
  N66      1.0000 0.11878  0.44209  0.14389  Biso   1.000  N
  C197     1.0000 0.14965  0.40160  0.16743  Biso   1.000  C
  H131     1.0000 0.15480  0.34080  0.16070  Biso   1.000  H
  C198     1.0000 0.17447  0.44460  0.20128  Biso   1.000  C
  H132     1.0000 0.19600  0.41390  0.21770  Biso   1.000  H
  C199     1.0000 0.51689  0.66770  0.43620  Biso   1.000  C
  N67      1.0000 0.53713  0.65410  0.40550  Biso   1.000  N
  C200     1.0000 0.56579  0.71210  0.40735  Biso   1.000  C
  N68      1.0000 0.57359  0.78275  0.43463  Biso   1.000  N
  C201     1.0000 0.55119  0.78970  0.46316  Biso   1.000  C
  N69      1.0000 0.52330  0.73230  0.46659  Biso   1.000  N
  C202     1.0000 0.48431  0.60660  0.43560  Biso   1.000  C
  C203     1.0000 0.47085  0.59100  0.47313  Biso   1.000  C
  H133     1.0000 0.48260  0.61900  0.50000  Biso   1.000  H
  C204     1.0000 0.44012  0.53460  0.47120  Biso   1.000  C
  H134     1.0000 0.43120  0.52340  0.49720  Biso   1.000  H
  N70      1.0000 0.42229  0.49475  0.43395  Biso   1.000  N
  C205     1.0000 0.43516  0.51190  0.39738  Biso   1.000  C
  H135     1.0000 0.42230  0.48520  0.37070  Biso   1.000  H
  C206     1.0000 0.46601  0.56600  0.39689  Biso   1.000  C
  H136     1.0000 0.47460  0.57550  0.37050  Biso   1.000  H
  C207     1.0000 0.59128  0.69580  0.37643  Biso   1.000  C
  C208     1.0000 0.58067  0.63650  0.34142  Biso   1.000  C
  H137     1.0000 0.55670  0.60700  0.33630  Biso   1.000  H
  C209     1.0000 0.60562  0.62160  0.31437  Biso   1.000  C
  H138     1.0000 0.59830  0.58150  0.29030  Biso   1.000  H
  N71      1.0000 0.63969  0.66090  0.32032  Biso   1.000  N
  C210     1.0000 0.64975  0.71830  0.35408  Biso   1.000  C
  H139     1.0000 0.67400  0.74660  0.35860  Biso   1.000  H
  C211     1.0000 0.62643  0.73770  0.38239  Biso   1.000  C
  H140     1.0000 0.63430  0.77920  0.40570  Biso   1.000  H
  C212     1.0000 0.55677  0.86830  0.49367  Biso   1.000  C
  C213     1.0000 0.58858  0.92270  0.49837  Biso   1.000  C
  H141     1.0000 0.60710  0.91160  0.48140  Biso   1.000  H
  C214     1.0000 0.59332  0.99310  0.52786  Biso   1.000  C
  H142     1.0000 0.61570  0.02870  0.53150  Biso   1.000  H
  N72      1.0000 0.56774  0.01331  0.55159  Biso   1.000  N
  C215     1.0000 0.53657  0.96160  0.54664  Biso   1.000  C
  H143     1.0000 0.51800  0.97580  0.56320  Biso   1.000  H
  C216     1.0000 0.53023  0.88860  0.51846  Biso   1.000  C
  H144     1.0000 0.50800  0.85270  0.51610  Biso   1.000  H
  Zn16     1.0000 0.37883  0.40373  0.43130  Biso   1.000  Zn
  I61      1.0000 0.40029  0.26130  0.39585  Biso   1.000  I
  I62      1.0000 0.36229  0.40120  0.50772  Biso   1.000  I
  Zn17     1.0000 0.07874  0.38013  0.09634  Biso   1.000  Zn
  I63      1.0000 0.11021  0.25558  0.06162  Biso   1.000  I
  I64      1.0000 0.02182  0.36920  0.13264  Biso   1.000  I
  Zn18     1.0000 0.67344  0.63994  0.27539  Biso   1.000  Zn
  I65      1.0000 0.62941  0.66163  0.19948  Biso   1.000  I
  I66      1.0000 0.73438  0.73014  0.30030  Biso   1.000  I
  I67      1.0000 0.40013  0.26940  0.39280  Biso   1.000  I
  I68      1.0000 0.36440  0.39440  0.50430  Biso   1.000  I
  I69      1.0000 0.10890  0.25900  0.05660  Biso   1.000  I
  I70      1.0000 0.02300  0.34930  0.13270  Biso   1.000  I
  I71      1.0000 0.63450  0.66280  0.20290  Biso   1.000  I
  I72      1.0000 0.73540  0.72490  0.30520  Biso   1.000  I
  C217     1.0000 0.74330  0.90380  0.80157  Biso   1.000  C
  N73      1.0000 0.73695  0.81581  0.80791  Biso   1.000  N
  C218     1.0000 0.70676  0.78100  0.78038  Biso   1.000  C
  N74      1.0000 0.68287  0.82758  0.75016  Biso   1.000  N
  C219     1.0000 0.69266  0.91390  0.74575  Biso   1.000  C
  N75      1.0000 0.72299  0.95520  0.76963  Biso   1.000  N
  C220     1.0000 0.77547  0.94850  0.83152  Biso   1.000  C
  C221     1.0000 0.78525  0.03740  0.82389  Biso   1.000  C
  H145     1.0000 0.77140  0.06970  0.79940  Biso   1.000  H
  C222     1.0000 0.81504  0.07790  0.85201  Biso   1.000  C
  H146     1.0000 0.82160  0.13840  0.84630  Biso   1.000  H
  N76      1.0000 0.83531  0.03509  0.88732  Biso   1.000  N
  C223     1.0000 0.82583  0.94910  0.89473  Biso   1.000  C
  H147     1.0000 0.84000  0.91840  0.91960  Biso   1.000  H
  C224     1.0000 0.79638  0.90360  0.86775  Biso   1.000  C
  H148     1.0000 0.79060  0.84290  0.87390  Biso   1.000  H
  C225     1.0000 0.69945  0.68240  0.78147  Biso   1.000  C
  C226     1.0000 0.72722  0.62210  0.80121  Biso   1.000  C
  H149     1.0000 0.75150  0.64340  0.81590  Biso   1.000  H
  C227     1.0000 0.71921  0.53060  0.79936  Biso   1.000  C
  H150     1.0000 0.73850  0.48960  0.81270  Biso   1.000  H
  N77      1.0000 0.68528  0.49725  0.77957  Biso   1.000  N
  C228     1.0000 0.65842  0.55610  0.76064  Biso   1.000  C
  H151     1.0000 0.63430  0.53310  0.74650  Biso   1.000  H
  C229     1.0000 0.66419  0.64830  0.76073  Biso   1.000  C
  H152     1.0000 0.64450  0.68790  0.74690  Biso   1.000  H
  C230     1.0000 0.66683  0.96580  0.71055  Biso   1.000  C
  C231     1.0000 0.63548  0.92380  0.68579  Biso   1.000  C
  H153     1.0000 0.63000  0.86250  0.69110  Biso   1.000  H
  C232     1.0000 0.61210  0.97210  0.65320  Biso   1.000  C
  H154     1.0000 0.59020  0.94300  0.63660  Biso   1.000  H
  N78      1.0000 0.61878  0.05791  0.64389  Biso   1.000  N
  C233     1.0000 0.64965  0.09840  0.66743  Biso   1.000  C
  H155     1.0000 0.65480  0.15920  0.66070  Biso   1.000  H
  C234     1.0000 0.67447  0.05540  0.70128  Biso   1.000  C
  H156     1.0000 0.69600  0.08610  0.71770  Biso   1.000  H
  C235     1.0000 0.01689  0.83230  0.93620  Biso   1.000  C
  N79      1.0000 0.03713  0.84590  0.90550  Biso   1.000  N
  C236     1.0000 0.06579  0.78790  0.90735  Biso   1.000  C
  N80      1.0000 0.07359  0.71725  0.93463  Biso   1.000  N
  C237     1.0000 0.05119  0.71030  0.96316  Biso   1.000  C
  N81      1.0000 0.02330  0.76770  0.96659  Biso   1.000  N
  C238     1.0000 0.98431  0.89340  0.93560  Biso   1.000  C
  C239     1.0000 0.97085  0.90900  0.97313  Biso   1.000  C
  H157     1.0000 0.98260  0.88100  0.00000  Biso   1.000  H
  C240     1.0000 0.94012  0.96540  0.97120  Biso   1.000  C
  H158     1.0000 0.93120  0.97660  0.99720  Biso   1.000  H
  N82      1.0000 0.92229  0.00525  0.93395  Biso   1.000  N
  C241     1.0000 0.93516  0.98810  0.89738  Biso   1.000  C
  H159     1.0000 0.92230  0.01480  0.87070  Biso   1.000  H
  C242     1.0000 0.96601  0.93400  0.89689  Biso   1.000  C
  H160     1.0000 0.97460  0.92450  0.87050  Biso   1.000  H
  C243     1.0000 0.09128  0.80420  0.87643  Biso   1.000  C
  C244     1.0000 0.08067  0.86350  0.84142  Biso   1.000  C
  H161     1.0000 0.05670  0.89300  0.83630  Biso   1.000  H
  C245     1.0000 0.10562  0.87840  0.81437  Biso   1.000  C
  H162     1.0000 0.09830  0.91850  0.79030  Biso   1.000  H
  N83      1.0000 0.13969  0.83910  0.82032  Biso   1.000  N
  C246     1.0000 0.14975  0.78170  0.85408  Biso   1.000  C
  H163     1.0000 0.17400  0.75340  0.85860  Biso   1.000  H
  C247     1.0000 0.12643  0.76230  0.88239  Biso   1.000  C
  H164     1.0000 0.13430  0.72080  0.90570  Biso   1.000  H
  C248     1.0000 0.05677  0.63170  0.99367  Biso   1.000  C
  C249     1.0000 0.08858  0.57730  0.99837  Biso   1.000  C
  H165     1.0000 0.10710  0.58840  0.98140  Biso   1.000  H
  C250     1.0000 0.09332  0.50690  0.02786  Biso   1.000  C
  H166     1.0000 0.11570  0.47130  0.03150  Biso   1.000  H
  N84      1.0000 0.06774  0.48669  0.05159  Biso   1.000  N
  C251     1.0000 0.03657  0.53840  0.04664  Biso   1.000  C
  H167     1.0000 0.01800  0.52420  0.06320  Biso   1.000  H
  C252     1.0000 0.03023  0.61140  0.01846  Biso   1.000  C
  H168     1.0000 0.00800  0.64730  0.01610  Biso   1.000  H
  Zn19     1.0000 0.87883  0.09627  0.93130  Biso   1.000  Zn
  I73      1.0000 0.90029  0.23870  0.89585  Biso   1.000  I
  I74      1.0000 0.86229  0.09880  0.00772  Biso   1.000  I
  Zn20     1.0000 0.57874  0.11987  0.59634  Biso   1.000  Zn
  I75      1.0000 0.61021  0.24442  0.56162  Biso   1.000  I
  I76      1.0000 0.52182  0.13080  0.63264  Biso   1.000  I
  Zn21     1.0000 0.17344  0.86006  0.77539  Biso   1.000  Zn
  I77      1.0000 0.12941  0.83837  0.69948  Biso   1.000  I
  I78      1.0000 0.23438  0.76986  0.80030  Biso   1.000  I
  I79      1.0000 0.90013  0.23060  0.89280  Biso   1.000  I
  I80      1.0000 0.86440  0.10560  0.00430  Biso   1.000  I
  I81      1.0000 0.60890  0.24100  0.55660  Biso   1.000  I
  I82      1.0000 0.52300  0.15070  0.63270  Biso   1.000  I
  I83      1.0000 0.13450  0.83720  0.70290  Biso   1.000  I
  I84      1.0000 0.23540  0.77510  0.80520  Biso   1.000  I
  C253     1.0000 0.24330  0.40380  0.80157  Biso   1.000  C
  N85      1.0000 0.23695  0.31581  0.80791  Biso   1.000  N
  C254     1.0000 0.20676  0.28100  0.78038  Biso   1.000  C
  N86      1.0000 0.18287  0.32758  0.75016  Biso   1.000  N
  C255     1.0000 0.19266  0.41390  0.74575  Biso   1.000  C
  N87      1.0000 0.22299  0.45520  0.76963  Biso   1.000  N
  C256     1.0000 0.27547  0.44850  0.83152  Biso   1.000  C
  C257     1.0000 0.28525  0.53740  0.82389  Biso   1.000  C
  H169     1.0000 0.27140  0.56970  0.79940  Biso   1.000  H
  C258     1.0000 0.31504  0.57790  0.85201  Biso   1.000  C
  H170     1.0000 0.32160  0.63840  0.84630  Biso   1.000  H
  N88      1.0000 0.33531  0.53509  0.88732  Biso   1.000  N
  C259     1.0000 0.32583  0.44910  0.89473  Biso   1.000  C
  H171     1.0000 0.34000  0.41840  0.91960  Biso   1.000  H
  C260     1.0000 0.29638  0.40360  0.86775  Biso   1.000  C
  H172     1.0000 0.29060  0.34290  0.87390  Biso   1.000  H
  C261     1.0000 0.19945  0.18240  0.78147  Biso   1.000  C
  C262     1.0000 0.22722  0.12210  0.80121  Biso   1.000  C
  H173     1.0000 0.25150  0.14340  0.81590  Biso   1.000  H
  C263     1.0000 0.21921  0.03060  0.79936  Biso   1.000  C
  H174     1.0000 0.23850  0.98960  0.81270  Biso   1.000  H
  N89      1.0000 0.18528  0.99725  0.77957  Biso   1.000  N
  C264     1.0000 0.15842  0.05610  0.76064  Biso   1.000  C
  H175     1.0000 0.13430  0.03310  0.74650  Biso   1.000  H
  C265     1.0000 0.16419  0.14830  0.76073  Biso   1.000  C
  H176     1.0000 0.14450  0.18790  0.74690  Biso   1.000  H
  C266     1.0000 0.16683  0.46580  0.71055  Biso   1.000  C
  C267     1.0000 0.13548  0.42380  0.68579  Biso   1.000  C
  H177     1.0000 0.13000  0.36250  0.69110  Biso   1.000  H
  C268     1.0000 0.11210  0.47210  0.65320  Biso   1.000  C
  H178     1.0000 0.09020  0.44300  0.63660  Biso   1.000  H
  N90      1.0000 0.11878  0.55791  0.64389  Biso   1.000  N
  C269     1.0000 0.14965  0.59840  0.66743  Biso   1.000  C
  H179     1.0000 0.15480  0.65920  0.66070  Biso   1.000  H
  C270     1.0000 0.17447  0.55540  0.70128  Biso   1.000  C
  H180     1.0000 0.19600  0.58610  0.71770  Biso   1.000  H
  C271     1.0000 0.51689  0.33230  0.93620  Biso   1.000  C
  N91      1.0000 0.53713  0.34590  0.90550  Biso   1.000  N
  C272     1.0000 0.56579  0.28790  0.90735  Biso   1.000  C
  N92      1.0000 0.57359  0.21725  0.93463  Biso   1.000  N
  C273     1.0000 0.55119  0.21030  0.96316  Biso   1.000  C
  N93      1.0000 0.52330  0.26770  0.96659  Biso   1.000  N
  C274     1.0000 0.48431  0.39340  0.93560  Biso   1.000  C
  C275     1.0000 0.47085  0.40900  0.97313  Biso   1.000  C
  H181     1.0000 0.48260  0.38100  0.00000  Biso   1.000  H
  C276     1.0000 0.44012  0.46540  0.97120  Biso   1.000  C
  H182     1.0000 0.43120  0.47660  0.99720  Biso   1.000  H
  N94      1.0000 0.42229  0.50525  0.93395  Biso   1.000  N
  C277     1.0000 0.43516  0.48810  0.89738  Biso   1.000  C
  H183     1.0000 0.42230  0.51480  0.87070  Biso   1.000  H
  C278     1.0000 0.46601  0.43400  0.89689  Biso   1.000  C
  H184     1.0000 0.47460  0.42450  0.87050  Biso   1.000  H
  C279     1.0000 0.59128  0.30420  0.87643  Biso   1.000  C
  C280     1.0000 0.58067  0.36350  0.84142  Biso   1.000  C
  H185     1.0000 0.55670  0.39300  0.83630  Biso   1.000  H
  C281     1.0000 0.60562  0.37840  0.81437  Biso   1.000  C
  H186     1.0000 0.59830  0.41850  0.79030  Biso   1.000  H
  N95      1.0000 0.63969  0.33910  0.82032  Biso   1.000  N
  C282     1.0000 0.64975  0.28170  0.85408  Biso   1.000  C
  H187     1.0000 0.67400  0.25340  0.85860  Biso   1.000  H
  C283     1.0000 0.62643  0.26230  0.88239  Biso   1.000  C
  H188     1.0000 0.63430  0.22080  0.90570  Biso   1.000  H
  C284     1.0000 0.55677  0.13170  0.99367  Biso   1.000  C
  C285     1.0000 0.58858  0.07730  0.99837  Biso   1.000  C
  H189     1.0000 0.60710  0.08840  0.98140  Biso   1.000  H
  C286     1.0000 0.59332  0.00690  0.02786  Biso   1.000  C
  H190     1.0000 0.61570  0.97130  0.03150  Biso   1.000  H
  N96      1.0000 0.56774  0.98669  0.05159  Biso   1.000  N
  C287     1.0000 0.53657  0.03840  0.04664  Biso   1.000  C
  H191     1.0000 0.51800  0.02420  0.06320  Biso   1.000  H
  C288     1.0000 0.53023  0.11140  0.01846  Biso   1.000  C
  H192     1.0000 0.50800  0.14730  0.01610  Biso   1.000  H
  Zn22     1.0000 0.37883  0.59627  0.93130  Biso   1.000  Zn
  I85      1.0000 0.40029  0.73870  0.89585  Biso   1.000  I
  I86      1.0000 0.36229  0.59880  0.00772  Biso   1.000  I
  Zn23     1.0000 0.07874  0.61987  0.59634  Biso   1.000  Zn
  I87      1.0000 0.11021  0.74442  0.56162  Biso   1.000  I
  I88      1.0000 0.02182  0.63080  0.63264  Biso   1.000  I
  Zn24     1.0000 0.67344  0.36006  0.77539  Biso   1.000  Zn
  I89      1.0000 0.62941  0.33837  0.69948  Biso   1.000  I
  I90      1.0000 0.73438  0.26986  0.80030  Biso   1.000  I
  I91      1.0000 0.40013  0.73060  0.89280  Biso   1.000  I
  I92      1.0000 0.36440  0.60560  0.00430  Biso   1.000  I
  I93      1.0000 0.10890  0.74100  0.55660  Biso   1.000  I
  I94      1.0000 0.02300  0.65070  0.63270  Biso   1.000  I
  I95      1.0000 0.63450  0.33720  0.70290  Biso   1.000  I
  I96      1.0000 0.73540  0.27510  0.80520  Biso   1.000  I
