data_image0
_cell_length_a       29.1115
_cell_length_b       14.3108
_cell_length_c       26.1788
_cell_angle_alpha    90
_cell_angle_beta     101.959
_cell_angle_gamma    90

_symmetry_space_group_name_H-M    "P 1"
_symmetry_int_tables_number       1

loop_
  _symmetry_equiv_pos_as_xyz
  'x, y, z'

loop_
  _atom_site_label
  _atom_site_occupancy
  _atom_site_fract_x
  _atom_site_fract_y
  _atom_site_fract_z
  _atom_site_thermal_displace_type
  _atom_site_B_iso_or_equiv
  _atom_site_type_symbol
  Cd1      1.0000 0.62660  0.66132  0.44134  Biso   1.000  Cd
  Cd2      1.0000 0.62927  0.43766  0.36983  Biso   1.000  Cd
  Cd3      1.0000 0.75389  0.37601  0.34833  Biso   1.000  Cd
  N1       1.0000 0.74326  0.61560  0.45350  Biso   1.000  N
  N2       1.0000 0.69925  0.58380  0.43900  Biso   1.000  N
  N3       1.0000 0.69961  0.50810  0.41130  Biso   1.000  N
  N4       1.0000 0.74403  0.48990  0.40670  Biso   1.000  N
  N5       1.0000 0.79260  0.23060  0.21810  Biso   1.000  N
  O1       1.0000 0.68254  0.79070  0.44057  Biso   1.000  O
  O2       1.0000 0.60721  0.81930  0.42110  Biso   1.000  O
  O3       1.0000 0.64940  0.29420  0.39550  Biso   1.000  O
  O4       1.0000 0.72060  0.25910  0.38210  Biso   1.000  O
  O5       1.0000 0.62869  0.68430  0.52541  Biso   1.000  O
  O6       1.0000 0.70678  0.68020  0.55271  Biso   1.000  O
  O7       1.0000 0.68290  0.56580  0.80350  Biso   1.000  O
  O8       1.0000 0.60810  0.60210  0.78380  Biso   1.000  O
  O9       1.0000 0.60775  0.59850  0.35236  Biso   1.000  O
  O10      1.0000 0.55022  0.65180  0.38800  Biso   1.000  O
  O11      1.0000 0.61009  0.50010  0.45209  Biso   1.000  O
  O12      1.0000 0.55774  0.42140  0.39500  Biso   1.000  O
  O13      1.0000 0.76160  0.27000  0.28480  Biso   1.000  O
  C1       1.0000 0.77060  0.55710  0.43320  Biso   1.000  C
  C2       1.0000 0.82220  0.56770  0.43870  Biso   1.000  C
  H1       1.0000 0.83720  0.50830  0.44750  Biso   1.000  H
  H2       1.0000 0.83390  0.61190  0.46590  Biso   1.000  H
  H3       1.0000 0.82900  0.58960  0.40640  Biso   1.000  H
  C3       1.0000 0.64870  0.84740  0.42840  Biso   1.000  C
  C4       1.0000 0.68170  0.23940  0.39370  Biso   1.000  C
  C5       1.0000 0.65810  0.94870  0.42010  Biso   1.000  C
  C6       1.0000 0.70330  0.98110  0.42240  Biso   1.000  C
  H4       1.0000 0.72850  0.93990  0.42980  Biso   1.000  H
  C7       1.0000 0.71100  0.07440  0.41390  Biso   1.000  C
  H5       1.0000 0.74130  0.09510  0.41420  Biso   1.000  H
  C8       1.0000 0.67450  0.13720  0.40490  Biso   1.000  C
  C9       1.0000 0.62970  0.10520  0.40400  Biso   1.000  C
  H6       1.0000 0.60490  0.14740  0.39860  Biso   1.000  H
  C10      1.0000 0.62090  0.01110  0.41090  Biso   1.000  C
  H7       1.0000 0.59040  0.99020  0.40930  Biso   1.000  H
  C11      1.0000 0.66580  0.67450  0.55980  Biso   1.000  C
  C12      1.0000 0.64740  0.59300  0.77180  Biso   1.000  C
  C13      1.0000 0.66020  0.65240  0.61450  Biso   1.000  C
  C14      1.0000 0.69630  0.60900  0.64870  Biso   1.000  C
  H8       1.0000 0.72370  0.59290  0.63780  Biso   1.000  H
  C15      1.0000 0.69200  0.58930  0.69950  Biso   1.000  C
  H9       1.0000 0.71680  0.56170  0.72270  Biso   1.000  H
  C16      1.0000 0.65090  0.61050  0.71560  Biso   1.000  C
  C17      1.0000 0.61410  0.65070  0.68060  Biso   1.000  C
  H10      1.0000 0.58620  0.66460  0.69110  Biso   1.000  H
  C18      1.0000 0.61850  0.67030  0.63010  Biso   1.000  C
  H11      1.0000 0.59320  0.69570  0.60650  Biso   1.000  H
  C19      1.0000 0.56470  0.62030  0.34950  Biso   1.000  C
  C20      1.0000 0.53090  0.61130  0.29790  Biso   1.000  C
  C21      1.0000 0.54760  0.60790  0.25210  Biso   1.000  C
  H12      1.0000 0.57980  0.60410  0.25360  Biso   1.000  H
  C22      1.0000 0.48330  0.61020  0.29570  Biso   1.000  C
  H13      1.0000 0.47190  0.61100  0.32640  Biso   1.000  H
  C23      1.0000 0.56880  0.46740  0.43650  Biso   1.000  C
  C24      1.0000 0.53290  0.48410  0.46960  Biso   1.000  C
  C25      1.0000 0.54550  0.52770  0.51730  Biso   1.000  C
  H14      1.0000 0.57640  0.54670  0.52930  Biso   1.000  H
  C26      1.0000 0.51240  0.54330  0.54750  Biso   1.000  C
  H15      1.0000 0.52120  0.57290  0.57970  Biso   1.000  H
  C27      1.0000 0.79090  0.28400  0.25800  Biso   1.000  C
  C28      1.0000 0.82440  0.24500  0.18240  Biso   1.000  C
  H16      1.0000 0.80880  0.28040  0.15280  Biso   1.000  H
  H17      1.0000 0.83360  0.18530  0.17090  Biso   1.000  H
  H18      1.0000 0.85180  0.27810  0.20010  Biso   1.000  H
  C29      1.0000 0.75900  0.15300  0.20230  Biso   1.000  C
  H19      1.0000 0.75140  0.12520  0.23280  Biso   1.000  H
  H20      1.0000 0.77280  0.10730  0.18340  Biso   1.000  H
  H21      1.0000 0.73090  0.17730  0.18030  Biso   1.000  H
  O14      1.0000 0.78800  0.29000  0.29200  Biso   1.000  O
  C30      1.0000 0.76800  0.24200  0.25500  Biso   1.000  C
  C31      1.0000 0.78200  0.16300  0.17500  Biso   1.000  C
  H22      1.0000 0.74870  0.15450  0.16490  Biso   1.000  H
  H23      1.0000 0.79670  0.10440  0.18600  Biso   1.000  H
  H24      1.0000 0.79380  0.18630  0.14570  Biso   1.000  H
  C32      1.0000 0.83400  0.28900  0.21500  Biso   1.000  C
  H25      1.0000 0.84410  0.27490  0.18300  Biso   1.000  H
  H26      1.0000 0.85890  0.27590  0.24410  Biso   1.000  H
  H27      1.0000 0.82550  0.35370  0.21510  Biso   1.000  H
  Cd4      1.0000 0.12660  0.16132  0.44134  Biso   1.000  Cd
  Cd5      1.0000 0.12927  0.93766  0.36983  Biso   1.000  Cd
  Cd6      1.0000 0.25389  0.87601  0.34833  Biso   1.000  Cd
  N6       1.0000 0.24326  0.11560  0.45350  Biso   1.000  N
  N7       1.0000 0.19925  0.08380  0.43900  Biso   1.000  N
  N8       1.0000 0.19961  0.00810  0.41130  Biso   1.000  N
  N9       1.0000 0.24403  0.98990  0.40670  Biso   1.000  N
  N10      1.0000 0.29260  0.73060  0.21810  Biso   1.000  N
  O15      1.0000 0.18254  0.29070  0.44057  Biso   1.000  O
  O16      1.0000 0.10721  0.31930  0.42110  Biso   1.000  O
  O17      1.0000 0.14940  0.79420  0.39550  Biso   1.000  O
  O18      1.0000 0.22060  0.75910  0.38210  Biso   1.000  O
  O19      1.0000 0.12869  0.18430  0.52541  Biso   1.000  O
  O20      1.0000 0.20678  0.18020  0.55271  Biso   1.000  O
  O21      1.0000 0.18290  0.06580  0.80350  Biso   1.000  O
  O22      1.0000 0.10810  0.10210  0.78380  Biso   1.000  O
  O23      1.0000 0.10775  0.09850  0.35236  Biso   1.000  O
  O24      1.0000 0.05022  0.15180  0.38800  Biso   1.000  O
  O25      1.0000 0.11009  0.00010  0.45209  Biso   1.000  O
  O26      1.0000 0.05774  0.92140  0.39500  Biso   1.000  O
  O27      1.0000 0.26160  0.77000  0.28480  Biso   1.000  O
  C33      1.0000 0.27060  0.05710  0.43320  Biso   1.000  C
  C34      1.0000 0.32220  0.06770  0.43870  Biso   1.000  C
  H28      1.0000 0.33720  0.00830  0.44750  Biso   1.000  H
  H29      1.0000 0.33390  0.11190  0.46590  Biso   1.000  H
  H30      1.0000 0.32900  0.08960  0.40640  Biso   1.000  H
  C35      1.0000 0.14870  0.34740  0.42840  Biso   1.000  C
  C36      1.0000 0.18170  0.73940  0.39370  Biso   1.000  C
  C37      1.0000 0.15810  0.44870  0.42010  Biso   1.000  C
  C38      1.0000 0.20330  0.48110  0.42240  Biso   1.000  C
  H31      1.0000 0.22850  0.43990  0.42980  Biso   1.000  H
  C39      1.0000 0.21100  0.57440  0.41390  Biso   1.000  C
  H32      1.0000 0.24130  0.59510  0.41420  Biso   1.000  H
  C40      1.0000 0.17450  0.63720  0.40490  Biso   1.000  C
  C41      1.0000 0.12970  0.60520  0.40400  Biso   1.000  C
  H33      1.0000 0.10490  0.64740  0.39860  Biso   1.000  H
  C42      1.0000 0.12090  0.51110  0.41090  Biso   1.000  C
  H34      1.0000 0.09040  0.49020  0.40930  Biso   1.000  H
  C43      1.0000 0.16580  0.17450  0.55980  Biso   1.000  C
  C44      1.0000 0.14740  0.09300  0.77180  Biso   1.000  C
  C45      1.0000 0.16020  0.15240  0.61450  Biso   1.000  C
  C46      1.0000 0.19630  0.10900  0.64870  Biso   1.000  C
  H35      1.0000 0.22370  0.09290  0.63780  Biso   1.000  H
  C47      1.0000 0.19200  0.08930  0.69950  Biso   1.000  C
  H36      1.0000 0.21680  0.06170  0.72270  Biso   1.000  H
  C48      1.0000 0.15090  0.11050  0.71560  Biso   1.000  C
  C49      1.0000 0.11410  0.15070  0.68060  Biso   1.000  C
  H37      1.0000 0.08620  0.16460  0.69110  Biso   1.000  H
  C50      1.0000 0.11850  0.17030  0.63010  Biso   1.000  C
  H38      1.0000 0.09320  0.19570  0.60650  Biso   1.000  H
  C51      1.0000 0.06470  0.12030  0.34950  Biso   1.000  C
  C52      1.0000 0.03090  0.11130  0.29790  Biso   1.000  C
  C53      1.0000 0.04760  0.10790  0.25210  Biso   1.000  C
  H39      1.0000 0.07980  0.10410  0.25360  Biso   1.000  H
  C54      1.0000 0.98330  0.11020  0.29570  Biso   1.000  C
  H40      1.0000 0.97190  0.11100  0.32640  Biso   1.000  H
  C55      1.0000 0.06880  0.96740  0.43650  Biso   1.000  C
  C56      1.0000 0.03290  0.98410  0.46960  Biso   1.000  C
  C57      1.0000 0.04550  0.02770  0.51730  Biso   1.000  C
  H41      1.0000 0.07640  0.04670  0.52930  Biso   1.000  H
  C58      1.0000 0.01240  0.04330  0.54750  Biso   1.000  C
  H42      1.0000 0.02120  0.07290  0.57970  Biso   1.000  H
  C59      1.0000 0.29090  0.78400  0.25800  Biso   1.000  C
  C60      1.0000 0.32440  0.74500  0.18240  Biso   1.000  C
  H43      1.0000 0.30880  0.78040  0.15280  Biso   1.000  H
  H44      1.0000 0.33360  0.68530  0.17090  Biso   1.000  H
  H45      1.0000 0.35180  0.77810  0.20010  Biso   1.000  H
  C61      1.0000 0.25900  0.65300  0.20230  Biso   1.000  C
  H46      1.0000 0.25140  0.62520  0.23280  Biso   1.000  H
  H47      1.0000 0.27280  0.60730  0.18340  Biso   1.000  H
  H48      1.0000 0.23090  0.67730  0.18030  Biso   1.000  H
  O28      1.0000 0.28800  0.79000  0.29200  Biso   1.000  O
  C62      1.0000 0.26800  0.74200  0.25500  Biso   1.000  C
  C63      1.0000 0.28200  0.66300  0.17500  Biso   1.000  C
  H49      1.0000 0.24870  0.65450  0.16490  Biso   1.000  H
  H50      1.0000 0.29670  0.60440  0.18600  Biso   1.000  H
  H51      1.0000 0.29380  0.68630  0.14570  Biso   1.000  H
  C64      1.0000 0.33400  0.78900  0.21500  Biso   1.000  C
  H52      1.0000 0.34410  0.77490  0.18300  Biso   1.000  H
  H53      1.0000 0.35890  0.77590  0.24410  Biso   1.000  H
  H54      1.0000 0.32550  0.85370  0.21510  Biso   1.000  H
  Cd7      1.0000 0.37340  0.66132  0.05866  Biso   1.000  Cd
  Cd8      1.0000 0.37073  0.43766  0.13017  Biso   1.000  Cd
  Cd9      1.0000 0.24611  0.37601  0.15167  Biso   1.000  Cd
  N11      1.0000 0.25674  0.61560  0.04650  Biso   1.000  N
  N12      1.0000 0.30075  0.58380  0.06100  Biso   1.000  N
  N13      1.0000 0.30039  0.50810  0.08870  Biso   1.000  N
  N14      1.0000 0.25597  0.48990  0.09330  Biso   1.000  N
  N15      1.0000 0.20740  0.23060  0.28190  Biso   1.000  N
  O29      1.0000 0.31746  0.79070  0.05943  Biso   1.000  O
  O30      1.0000 0.39279  0.81930  0.07890  Biso   1.000  O
  O31      1.0000 0.35060  0.29420  0.10450  Biso   1.000  O
  O32      1.0000 0.27940  0.25910  0.11790  Biso   1.000  O
  O33      1.0000 0.37131  0.68430  0.97459  Biso   1.000  O
  O34      1.0000 0.29322  0.68020  0.94729  Biso   1.000  O
  O35      1.0000 0.31710  0.56580  0.69650  Biso   1.000  O
  O36      1.0000 0.39190  0.60210  0.71620  Biso   1.000  O
  O37      1.0000 0.39225  0.59850  0.14764  Biso   1.000  O
  O38      1.0000 0.44978  0.65180  0.11200  Biso   1.000  O
  O39      1.0000 0.38991  0.50010  0.04791  Biso   1.000  O
  O40      1.0000 0.44226  0.42140  0.10500  Biso   1.000  O
  O41      1.0000 0.23840  0.27000  0.21520  Biso   1.000  O
  C65      1.0000 0.22940  0.55710  0.06680  Biso   1.000  C
  C66      1.0000 0.17780  0.56770  0.06130  Biso   1.000  C
  H55      1.0000 0.16280  0.50830  0.05250  Biso   1.000  H
  H56      1.0000 0.16610  0.61190  0.03410  Biso   1.000  H
  H57      1.0000 0.17100  0.58960  0.09360  Biso   1.000  H
  C67      1.0000 0.35130  0.84740  0.07160  Biso   1.000  C
  C68      1.0000 0.31830  0.23940  0.10630  Biso   1.000  C
  C69      1.0000 0.34190  0.94870  0.07990  Biso   1.000  C
  C70      1.0000 0.29670  0.98110  0.07760  Biso   1.000  C
  H58      1.0000 0.27150  0.93990  0.07020  Biso   1.000  H
  C71      1.0000 0.28900  0.07440  0.08610  Biso   1.000  C
  H59      1.0000 0.25870  0.09510  0.08580  Biso   1.000  H
  C72      1.0000 0.32550  0.13720  0.09510  Biso   1.000  C
  C73      1.0000 0.37030  0.10520  0.09600  Biso   1.000  C
  H60      1.0000 0.39510  0.14740  0.10140  Biso   1.000  H
  C74      1.0000 0.37910  0.01110  0.08910  Biso   1.000  C
  H61      1.0000 0.40960  0.99020  0.09070  Biso   1.000  H
  C75      1.0000 0.33420  0.67450  0.94020  Biso   1.000  C
  C76      1.0000 0.35260  0.59300  0.72820  Biso   1.000  C
  C77      1.0000 0.33980  0.65240  0.88550  Biso   1.000  C
  C78      1.0000 0.30370  0.60900  0.85130  Biso   1.000  C
  H62      1.0000 0.27630  0.59290  0.86220  Biso   1.000  H
  C79      1.0000 0.30800  0.58930  0.80050  Biso   1.000  C
  H63      1.0000 0.28320  0.56170  0.77730  Biso   1.000  H
  C80      1.0000 0.34910  0.61050  0.78440  Biso   1.000  C
  C81      1.0000 0.38590  0.65070  0.81940  Biso   1.000  C
  H64      1.0000 0.41380  0.66460  0.80890  Biso   1.000  H
  C82      1.0000 0.38150  0.67030  0.86990  Biso   1.000  C
  H65      1.0000 0.40680  0.69570  0.89350  Biso   1.000  H
  C83      1.0000 0.43530  0.62030  0.15050  Biso   1.000  C
  C84      1.0000 0.46910  0.61130  0.20210  Biso   1.000  C
  C85      1.0000 0.45240  0.60790  0.24790  Biso   1.000  C
  H66      1.0000 0.42020  0.60410  0.24640  Biso   1.000  H
  C86      1.0000 0.51670  0.61020  0.20430  Biso   1.000  C
  H67      1.0000 0.52810  0.61100  0.17360  Biso   1.000  H
  C87      1.0000 0.43120  0.46740  0.06350  Biso   1.000  C
  C88      1.0000 0.46710  0.48410  0.03040  Biso   1.000  C
  C89      1.0000 0.45450  0.52770  0.98270  Biso   1.000  C
  H68      1.0000 0.42360  0.54670  0.97070  Biso   1.000  H
  C90      1.0000 0.48760  0.54330  0.95250  Biso   1.000  C
  H69      1.0000 0.47880  0.57290  0.92030  Biso   1.000  H
  C91      1.0000 0.20910  0.28400  0.24200  Biso   1.000  C
  C92      1.0000 0.17560  0.24500  0.31760  Biso   1.000  C
  H70      1.0000 0.19120  0.28040  0.34720  Biso   1.000  H
  H71      1.0000 0.16640  0.18530  0.32910  Biso   1.000  H
  H72      1.0000 0.14820  0.27810  0.29990  Biso   1.000  H
  C93      1.0000 0.24100  0.15300  0.29770  Biso   1.000  C
  H73      1.0000 0.24860  0.12520  0.26720  Biso   1.000  H
  H74      1.0000 0.22720  0.10730  0.31660  Biso   1.000  H
  H75      1.0000 0.26910  0.17730  0.31970  Biso   1.000  H
  O42      1.0000 0.21200  0.29000  0.20800  Biso   1.000  O
  C94      1.0000 0.23200  0.24200  0.24500  Biso   1.000  C
  C95      1.0000 0.21800  0.16300  0.32500  Biso   1.000  C
  H76      1.0000 0.25130  0.15450  0.33510  Biso   1.000  H
  H77      1.0000 0.20330  0.10440  0.31400  Biso   1.000  H
  H78      1.0000 0.20620  0.18630  0.35430  Biso   1.000  H
  C96      1.0000 0.16600  0.28900  0.28500  Biso   1.000  C
  H79      1.0000 0.15590  0.27490  0.31700  Biso   1.000  H
  H80      1.0000 0.14110  0.27590  0.25590  Biso   1.000  H
  H81      1.0000 0.17450  0.35370  0.28490  Biso   1.000  H
  Cd10     1.0000 0.87340  0.16132  0.05866  Biso   1.000  Cd
  Cd11     1.0000 0.87073  0.93766  0.13017  Biso   1.000  Cd
  Cd12     1.0000 0.74611  0.87601  0.15167  Biso   1.000  Cd
  N16      1.0000 0.75674  0.11560  0.04650  Biso   1.000  N
  N17      1.0000 0.80075  0.08380  0.06100  Biso   1.000  N
  N18      1.0000 0.80039  0.00810  0.08870  Biso   1.000  N
  N19      1.0000 0.75597  0.98990  0.09330  Biso   1.000  N
  N20      1.0000 0.70740  0.73060  0.28190  Biso   1.000  N
  O43      1.0000 0.81746  0.29070  0.05943  Biso   1.000  O
  O44      1.0000 0.89279  0.31930  0.07890  Biso   1.000  O
  O45      1.0000 0.85060  0.79420  0.10450  Biso   1.000  O
  O46      1.0000 0.77940  0.75910  0.11790  Biso   1.000  O
  O47      1.0000 0.87131  0.18430  0.97459  Biso   1.000  O
  O48      1.0000 0.79322  0.18020  0.94729  Biso   1.000  O
  O49      1.0000 0.81710  0.06580  0.69650  Biso   1.000  O
  O50      1.0000 0.89190  0.10210  0.71620  Biso   1.000  O
  O51      1.0000 0.89225  0.09850  0.14764  Biso   1.000  O
  O52      1.0000 0.94978  0.15180  0.11200  Biso   1.000  O
  O53      1.0000 0.88991  0.00010  0.04791  Biso   1.000  O
  O54      1.0000 0.94226  0.92140  0.10500  Biso   1.000  O
  O55      1.0000 0.73840  0.77000  0.21520  Biso   1.000  O
  C97      1.0000 0.72940  0.05710  0.06680  Biso   1.000  C
  C98      1.0000 0.67780  0.06770  0.06130  Biso   1.000  C
  H82      1.0000 0.66280  0.00830  0.05250  Biso   1.000  H
  H83      1.0000 0.66610  0.11190  0.03410  Biso   1.000  H
  H84      1.0000 0.67100  0.08960  0.09360  Biso   1.000  H
  C99      1.0000 0.85130  0.34740  0.07160  Biso   1.000  C
  C100     1.0000 0.81830  0.73940  0.10630  Biso   1.000  C
  C101     1.0000 0.84190  0.44870  0.07990  Biso   1.000  C
  C102     1.0000 0.79670  0.48110  0.07760  Biso   1.000  C
  H85      1.0000 0.77150  0.43990  0.07020  Biso   1.000  H
  C103     1.0000 0.78900  0.57440  0.08610  Biso   1.000  C
  H86      1.0000 0.75870  0.59510  0.08580  Biso   1.000  H
  C104     1.0000 0.82550  0.63720  0.09510  Biso   1.000  C
  C105     1.0000 0.87030  0.60520  0.09600  Biso   1.000  C
  H87      1.0000 0.89510  0.64740  0.10140  Biso   1.000  H
  C106     1.0000 0.87910  0.51110  0.08910  Biso   1.000  C
  H88      1.0000 0.90960  0.49020  0.09070  Biso   1.000  H
  C107     1.0000 0.83420  0.17450  0.94020  Biso   1.000  C
  C108     1.0000 0.85260  0.09300  0.72820  Biso   1.000  C
  C109     1.0000 0.83980  0.15240  0.88550  Biso   1.000  C
  C110     1.0000 0.80370  0.10900  0.85130  Biso   1.000  C
  H89      1.0000 0.77630  0.09290  0.86220  Biso   1.000  H
  C111     1.0000 0.80800  0.08930  0.80050  Biso   1.000  C
  H90      1.0000 0.78320  0.06170  0.77730  Biso   1.000  H
  C112     1.0000 0.84910  0.11050  0.78440  Biso   1.000  C
  C113     1.0000 0.88590  0.15070  0.81940  Biso   1.000  C
  H91      1.0000 0.91380  0.16460  0.80890  Biso   1.000  H
  C114     1.0000 0.88150  0.17030  0.86990  Biso   1.000  C
  H92      1.0000 0.90680  0.19570  0.89350  Biso   1.000  H
  C115     1.0000 0.93530  0.12030  0.15050  Biso   1.000  C
  C116     1.0000 0.96910  0.11130  0.20210  Biso   1.000  C
  C117     1.0000 0.95240  0.10790  0.24790  Biso   1.000  C
  H93      1.0000 0.92020  0.10410  0.24640  Biso   1.000  H
  C118     1.0000 0.01670  0.11020  0.20430  Biso   1.000  C
  H94      1.0000 0.02810  0.11100  0.17360  Biso   1.000  H
  C119     1.0000 0.93120  0.96740  0.06350  Biso   1.000  C
  C120     1.0000 0.96710  0.98410  0.03040  Biso   1.000  C
  C121     1.0000 0.95450  0.02770  0.98270  Biso   1.000  C
  H95      1.0000 0.92360  0.04670  0.97070  Biso   1.000  H
  C122     1.0000 0.98760  0.04330  0.95250  Biso   1.000  C
  H96      1.0000 0.97880  0.07290  0.92030  Biso   1.000  H
  C123     1.0000 0.70910  0.78400  0.24200  Biso   1.000  C
  C124     1.0000 0.67560  0.74500  0.31760  Biso   1.000  C
  H97      1.0000 0.69120  0.78040  0.34720  Biso   1.000  H
  H98      1.0000 0.66640  0.68530  0.32910  Biso   1.000  H
  H99      1.0000 0.64820  0.77810  0.29990  Biso   1.000  H
  C125     1.0000 0.74100  0.65300  0.29770  Biso   1.000  C
  H100     1.0000 0.74860  0.62520  0.26720  Biso   1.000  H
  H101     1.0000 0.72720  0.60730  0.31660  Biso   1.000  H
  H102     1.0000 0.76910  0.67730  0.31970  Biso   1.000  H
  O56      1.0000 0.71200  0.79000  0.20800  Biso   1.000  O
  C126     1.0000 0.73200  0.74200  0.24500  Biso   1.000  C
  C127     1.0000 0.71800  0.66300  0.32500  Biso   1.000  C
  H103     1.0000 0.75130  0.65450  0.33510  Biso   1.000  H
  H104     1.0000 0.70330  0.60440  0.31400  Biso   1.000  H
  H105     1.0000 0.70620  0.68630  0.35430  Biso   1.000  H
  C128     1.0000 0.66600  0.78900  0.28500  Biso   1.000  C
  H106     1.0000 0.65590  0.77490  0.31700  Biso   1.000  H
  H107     1.0000 0.64110  0.77590  0.25590  Biso   1.000  H
  H108     1.0000 0.67450  0.85370  0.28490  Biso   1.000  H
  Cd13     1.0000 0.37340  0.33868  0.55866  Biso   1.000  Cd
  Cd14     1.0000 0.37073  0.56234  0.63017  Biso   1.000  Cd
  Cd15     1.0000 0.24611  0.62399  0.65167  Biso   1.000  Cd
  N21      1.0000 0.25674  0.38440  0.54650  Biso   1.000  N
  N22      1.0000 0.30075  0.41620  0.56100  Biso   1.000  N
  N23      1.0000 0.30039  0.49190  0.58870  Biso   1.000  N
  N24      1.0000 0.25597  0.51010  0.59330  Biso   1.000  N
  N25      1.0000 0.20740  0.76940  0.78190  Biso   1.000  N
  O57      1.0000 0.31746  0.20930  0.55943  Biso   1.000  O
  O58      1.0000 0.39279  0.18070  0.57890  Biso   1.000  O
  O59      1.0000 0.35060  0.70580  0.60450  Biso   1.000  O
  O60      1.0000 0.27940  0.74090  0.61790  Biso   1.000  O
  O61      1.0000 0.37131  0.31570  0.47459  Biso   1.000  O
  O62      1.0000 0.29322  0.31980  0.44729  Biso   1.000  O
  O63      1.0000 0.31710  0.43420  0.19650  Biso   1.000  O
  O64      1.0000 0.39190  0.39790  0.21620  Biso   1.000  O
  O65      1.0000 0.39225  0.40150  0.64764  Biso   1.000  O
  O66      1.0000 0.44978  0.34820  0.61200  Biso   1.000  O
  O67      1.0000 0.38991  0.49990  0.54791  Biso   1.000  O
  O68      1.0000 0.44226  0.57860  0.60500  Biso   1.000  O
  O69      1.0000 0.23840  0.73000  0.71520  Biso   1.000  O
  C129     1.0000 0.22940  0.44290  0.56680  Biso   1.000  C
  C130     1.0000 0.17780  0.43230  0.56130  Biso   1.000  C
  H109     1.0000 0.16280  0.49170  0.55250  Biso   1.000  H
  H110     1.0000 0.16610  0.38810  0.53410  Biso   1.000  H
  H111     1.0000 0.17100  0.41040  0.59360  Biso   1.000  H
  C131     1.0000 0.35130  0.15260  0.57160  Biso   1.000  C
  C132     1.0000 0.31830  0.76060  0.60630  Biso   1.000  C
  C133     1.0000 0.34190  0.05130  0.57990  Biso   1.000  C
  C134     1.0000 0.29670  0.01890  0.57760  Biso   1.000  C
  H112     1.0000 0.27150  0.06010  0.57020  Biso   1.000  H
  C135     1.0000 0.28900  0.92560  0.58610  Biso   1.000  C
  H113     1.0000 0.25870  0.90490  0.58580  Biso   1.000  H
  C136     1.0000 0.32550  0.86280  0.59510  Biso   1.000  C
  C137     1.0000 0.37030  0.89480  0.59600  Biso   1.000  C
  H114     1.0000 0.39510  0.85260  0.60140  Biso   1.000  H
  C138     1.0000 0.37910  0.98890  0.58910  Biso   1.000  C
  H115     1.0000 0.40960  0.00980  0.59070  Biso   1.000  H
  C139     1.0000 0.33420  0.32550  0.44020  Biso   1.000  C
  C140     1.0000 0.35260  0.40700  0.22820  Biso   1.000  C
  C141     1.0000 0.33980  0.34760  0.38550  Biso   1.000  C
  C142     1.0000 0.30370  0.39100  0.35130  Biso   1.000  C
  H116     1.0000 0.27630  0.40710  0.36220  Biso   1.000  H
  C143     1.0000 0.30800  0.41070  0.30050  Biso   1.000  C
  H117     1.0000 0.28320  0.43830  0.27730  Biso   1.000  H
  C144     1.0000 0.34910  0.38950  0.28440  Biso   1.000  C
  C145     1.0000 0.38590  0.34930  0.31940  Biso   1.000  C
  H118     1.0000 0.41380  0.33540  0.30890  Biso   1.000  H
  C146     1.0000 0.38150  0.32970  0.36990  Biso   1.000  C
  H119     1.0000 0.40680  0.30430  0.39350  Biso   1.000  H
  C147     1.0000 0.43530  0.37970  0.65050  Biso   1.000  C
  C148     1.0000 0.46910  0.38870  0.70210  Biso   1.000  C
  C149     1.0000 0.45240  0.39210  0.74790  Biso   1.000  C
  H120     1.0000 0.42020  0.39590  0.74640  Biso   1.000  H
  C150     1.0000 0.51670  0.38980  0.70430  Biso   1.000  C
  H121     1.0000 0.52810  0.38900  0.67360  Biso   1.000  H
  C151     1.0000 0.43120  0.53260  0.56350  Biso   1.000  C
  C152     1.0000 0.46710  0.51590  0.53040  Biso   1.000  C
  C153     1.0000 0.45450  0.47230  0.48270  Biso   1.000  C
  H122     1.0000 0.42360  0.45330  0.47070  Biso   1.000  H
  C154     1.0000 0.48760  0.45670  0.45250  Biso   1.000  C
  H123     1.0000 0.47880  0.42710  0.42030  Biso   1.000  H
  C155     1.0000 0.20910  0.71600  0.74200  Biso   1.000  C
  C156     1.0000 0.17560  0.75500  0.81760  Biso   1.000  C
  H124     1.0000 0.19120  0.71960  0.84720  Biso   1.000  H
  H125     1.0000 0.16640  0.81470  0.82910  Biso   1.000  H
  H126     1.0000 0.14820  0.72190  0.79990  Biso   1.000  H
  C157     1.0000 0.24100  0.84700  0.79770  Biso   1.000  C
  H127     1.0000 0.24860  0.87480  0.76720  Biso   1.000  H
  H128     1.0000 0.22720  0.89270  0.81660  Biso   1.000  H
  H129     1.0000 0.26910  0.82270  0.81970  Biso   1.000  H
  O70      1.0000 0.21200  0.71000  0.70800  Biso   1.000  O
  C158     1.0000 0.23200  0.75800  0.74500  Biso   1.000  C
  C159     1.0000 0.21800  0.83700  0.82500  Biso   1.000  C
  H130     1.0000 0.25130  0.84550  0.83510  Biso   1.000  H
  H131     1.0000 0.20330  0.89560  0.81400  Biso   1.000  H
  H132     1.0000 0.20620  0.81370  0.85430  Biso   1.000  H
  C160     1.0000 0.16600  0.71100  0.78500  Biso   1.000  C
  H133     1.0000 0.15590  0.72510  0.81700  Biso   1.000  H
  H134     1.0000 0.14110  0.72410  0.75590  Biso   1.000  H
  H135     1.0000 0.17450  0.64630  0.78490  Biso   1.000  H
  Cd16     1.0000 0.87340  0.83868  0.55866  Biso   1.000  Cd
  Cd17     1.0000 0.87073  0.06234  0.63017  Biso   1.000  Cd
  Cd18     1.0000 0.74611  0.12399  0.65167  Biso   1.000  Cd
  N26      1.0000 0.75674  0.88440  0.54650  Biso   1.000  N
  N27      1.0000 0.80075  0.91620  0.56100  Biso   1.000  N
  N28      1.0000 0.80039  0.99190  0.58870  Biso   1.000  N
  N29      1.0000 0.75597  0.01010  0.59330  Biso   1.000  N
  N30      1.0000 0.70740  0.26940  0.78190  Biso   1.000  N
  O71      1.0000 0.81746  0.70930  0.55943  Biso   1.000  O
  O72      1.0000 0.89279  0.68070  0.57890  Biso   1.000  O
  O73      1.0000 0.85060  0.20580  0.60450  Biso   1.000  O
  O74      1.0000 0.77940  0.24090  0.61790  Biso   1.000  O
  O75      1.0000 0.87131  0.81570  0.47459  Biso   1.000  O
  O76      1.0000 0.79322  0.81980  0.44729  Biso   1.000  O
  O77      1.0000 0.81710  0.93420  0.19650  Biso   1.000  O
  O78      1.0000 0.89190  0.89790  0.21620  Biso   1.000  O
  O79      1.0000 0.89225  0.90150  0.64764  Biso   1.000  O
  O80      1.0000 0.94978  0.84820  0.61200  Biso   1.000  O
  O81      1.0000 0.88991  0.99990  0.54791  Biso   1.000  O
  O82      1.0000 0.94226  0.07860  0.60500  Biso   1.000  O
  O83      1.0000 0.73840  0.23000  0.71520  Biso   1.000  O
  C161     1.0000 0.72940  0.94290  0.56680  Biso   1.000  C
  C162     1.0000 0.67780  0.93230  0.56130  Biso   1.000  C
  H136     1.0000 0.66280  0.99170  0.55250  Biso   1.000  H
  H137     1.0000 0.66610  0.88810  0.53410  Biso   1.000  H
  H138     1.0000 0.67100  0.91040  0.59360  Biso   1.000  H
  C163     1.0000 0.85130  0.65260  0.57160  Biso   1.000  C
  C164     1.0000 0.81830  0.26060  0.60630  Biso   1.000  C
  C165     1.0000 0.84190  0.55130  0.57990  Biso   1.000  C
  C166     1.0000 0.79670  0.51890  0.57760  Biso   1.000  C
  H139     1.0000 0.77150  0.56010  0.57020  Biso   1.000  H
  C167     1.0000 0.78900  0.42560  0.58610  Biso   1.000  C
  H140     1.0000 0.75870  0.40490  0.58580  Biso   1.000  H
  C168     1.0000 0.82550  0.36280  0.59510  Biso   1.000  C
  C169     1.0000 0.87030  0.39480  0.59600  Biso   1.000  C
  H141     1.0000 0.89510  0.35260  0.60140  Biso   1.000  H
  C170     1.0000 0.87910  0.48890  0.58910  Biso   1.000  C
  H142     1.0000 0.90960  0.50980  0.59070  Biso   1.000  H
  C171     1.0000 0.83420  0.82550  0.44020  Biso   1.000  C
  C172     1.0000 0.85260  0.90700  0.22820  Biso   1.000  C
  C173     1.0000 0.83980  0.84760  0.38550  Biso   1.000  C
  C174     1.0000 0.80370  0.89100  0.35130  Biso   1.000  C
  H143     1.0000 0.77630  0.90710  0.36220  Biso   1.000  H
  C175     1.0000 0.80800  0.91070  0.30050  Biso   1.000  C
  H144     1.0000 0.78320  0.93830  0.27730  Biso   1.000  H
  C176     1.0000 0.84910  0.88950  0.28440  Biso   1.000  C
  C177     1.0000 0.88590  0.84930  0.31940  Biso   1.000  C
  H145     1.0000 0.91380  0.83540  0.30890  Biso   1.000  H
  C178     1.0000 0.88150  0.82970  0.36990  Biso   1.000  C
  H146     1.0000 0.90680  0.80430  0.39350  Biso   1.000  H
  C179     1.0000 0.93530  0.87970  0.65050  Biso   1.000  C
  C180     1.0000 0.96910  0.88870  0.70210  Biso   1.000  C
  C181     1.0000 0.95240  0.89210  0.74790  Biso   1.000  C
  H147     1.0000 0.92020  0.89590  0.74640  Biso   1.000  H
  C182     1.0000 0.01670  0.88980  0.70430  Biso   1.000  C
  H148     1.0000 0.02810  0.88900  0.67360  Biso   1.000  H
  C183     1.0000 0.93120  0.03260  0.56350  Biso   1.000  C
  C184     1.0000 0.96710  0.01590  0.53040  Biso   1.000  C
  C185     1.0000 0.95450  0.97230  0.48270  Biso   1.000  C
  H149     1.0000 0.92360  0.95330  0.47070  Biso   1.000  H
  C186     1.0000 0.98760  0.95670  0.45250  Biso   1.000  C
  H150     1.0000 0.97880  0.92710  0.42030  Biso   1.000  H
  C187     1.0000 0.70910  0.21600  0.74200  Biso   1.000  C
  C188     1.0000 0.67560  0.25500  0.81760  Biso   1.000  C
  H151     1.0000 0.69120  0.21960  0.84720  Biso   1.000  H
  H152     1.0000 0.66640  0.31470  0.82910  Biso   1.000  H
  H153     1.0000 0.64820  0.22190  0.79990  Biso   1.000  H
  C189     1.0000 0.74100  0.34700  0.79770  Biso   1.000  C
  H154     1.0000 0.74860  0.37480  0.76720  Biso   1.000  H
  H155     1.0000 0.72720  0.39270  0.81660  Biso   1.000  H
  H156     1.0000 0.76910  0.32270  0.81970  Biso   1.000  H
  O84      1.0000 0.71200  0.21000  0.70800  Biso   1.000  O
  C190     1.0000 0.73200  0.25800  0.74500  Biso   1.000  C
  C191     1.0000 0.71800  0.33700  0.82500  Biso   1.000  C
  H157     1.0000 0.75130  0.34550  0.83510  Biso   1.000  H
  H158     1.0000 0.70330  0.39560  0.81400  Biso   1.000  H
  H159     1.0000 0.70620  0.31370  0.85430  Biso   1.000  H
  C192     1.0000 0.66600  0.21100  0.78500  Biso   1.000  C
  H160     1.0000 0.65590  0.22510  0.81700  Biso   1.000  H
  H161     1.0000 0.64110  0.22410  0.75590  Biso   1.000  H
  H162     1.0000 0.67450  0.14630  0.78490  Biso   1.000  H
  Cd19     1.0000 0.62660  0.33868  0.94134  Biso   1.000  Cd
  Cd20     1.0000 0.62927  0.56234  0.86983  Biso   1.000  Cd
  Cd21     1.0000 0.75389  0.62399  0.84833  Biso   1.000  Cd
  N31      1.0000 0.74326  0.38440  0.95350  Biso   1.000  N
  N32      1.0000 0.69925  0.41620  0.93900  Biso   1.000  N
  N33      1.0000 0.69961  0.49190  0.91130  Biso   1.000  N
  N34      1.0000 0.74403  0.51010  0.90670  Biso   1.000  N
  N35      1.0000 0.79260  0.76940  0.71810  Biso   1.000  N
  O85      1.0000 0.68254  0.20930  0.94057  Biso   1.000  O
  O86      1.0000 0.60721  0.18070  0.92110  Biso   1.000  O
  O87      1.0000 0.64940  0.70580  0.89550  Biso   1.000  O
  O88      1.0000 0.72060  0.74090  0.88210  Biso   1.000  O
  O89      1.0000 0.62869  0.31570  0.02541  Biso   1.000  O
  O90      1.0000 0.70678  0.31980  0.05271  Biso   1.000  O
  O91      1.0000 0.68290  0.43420  0.30350  Biso   1.000  O
  O92      1.0000 0.60810  0.39790  0.28380  Biso   1.000  O
  O93      1.0000 0.60775  0.40150  0.85236  Biso   1.000  O
  O94      1.0000 0.55022  0.34820  0.88800  Biso   1.000  O
  O95      1.0000 0.61009  0.49990  0.95209  Biso   1.000  O
  O96      1.0000 0.55774  0.57860  0.89500  Biso   1.000  O
  O97      1.0000 0.76160  0.73000  0.78480  Biso   1.000  O
  C193     1.0000 0.77060  0.44290  0.93320  Biso   1.000  C
  C194     1.0000 0.82220  0.43230  0.93870  Biso   1.000  C
  H163     1.0000 0.83720  0.49170  0.94750  Biso   1.000  H
  H164     1.0000 0.83390  0.38810  0.96590  Biso   1.000  H
  H165     1.0000 0.82900  0.41040  0.90640  Biso   1.000  H
  C195     1.0000 0.64870  0.15260  0.92840  Biso   1.000  C
  C196     1.0000 0.68170  0.76060  0.89370  Biso   1.000  C
  C197     1.0000 0.65810  0.05130  0.92010  Biso   1.000  C
  C198     1.0000 0.70330  0.01890  0.92240  Biso   1.000  C
  H166     1.0000 0.72850  0.06010  0.92980  Biso   1.000  H
  C199     1.0000 0.71100  0.92560  0.91390  Biso   1.000  C
  H167     1.0000 0.74130  0.90490  0.91420  Biso   1.000  H
  C200     1.0000 0.67450  0.86280  0.90490  Biso   1.000  C
  C201     1.0000 0.62970  0.89480  0.90400  Biso   1.000  C
  H168     1.0000 0.60490  0.85260  0.89860  Biso   1.000  H
  C202     1.0000 0.62090  0.98890  0.91090  Biso   1.000  C
  H169     1.0000 0.59040  0.00980  0.90930  Biso   1.000  H
  C203     1.0000 0.66580  0.32550  0.05980  Biso   1.000  C
  C204     1.0000 0.64740  0.40700  0.27180  Biso   1.000  C
  C205     1.0000 0.66020  0.34760  0.11450  Biso   1.000  C
  C206     1.0000 0.69630  0.39100  0.14870  Biso   1.000  C
  H170     1.0000 0.72370  0.40710  0.13780  Biso   1.000  H
  C207     1.0000 0.69200  0.41070  0.19950  Biso   1.000  C
  H171     1.0000 0.71680  0.43830  0.22270  Biso   1.000  H
  C208     1.0000 0.65090  0.38950  0.21560  Biso   1.000  C
  C209     1.0000 0.61410  0.34930  0.18060  Biso   1.000  C
  H172     1.0000 0.58620  0.33540  0.19110  Biso   1.000  H
  C210     1.0000 0.61850  0.32970  0.13010  Biso   1.000  C
  H173     1.0000 0.59320  0.30430  0.10650  Biso   1.000  H
  C211     1.0000 0.56470  0.37970  0.84950  Biso   1.000  C
  C212     1.0000 0.53090  0.38870  0.79790  Biso   1.000  C
  C213     1.0000 0.54760  0.39210  0.75210  Biso   1.000  C
  H174     1.0000 0.57980  0.39590  0.75360  Biso   1.000  H
  C214     1.0000 0.48330  0.38980  0.79570  Biso   1.000  C
  H175     1.0000 0.47190  0.38900  0.82640  Biso   1.000  H
  C215     1.0000 0.56880  0.53260  0.93650  Biso   1.000  C
  C216     1.0000 0.53290  0.51590  0.96960  Biso   1.000  C
  C217     1.0000 0.54550  0.47230  0.01730  Biso   1.000  C
  H176     1.0000 0.57640  0.45330  0.02930  Biso   1.000  H
  C218     1.0000 0.51240  0.45670  0.04750  Biso   1.000  C
  H177     1.0000 0.52120  0.42710  0.07970  Biso   1.000  H
  C219     1.0000 0.79090  0.71600  0.75800  Biso   1.000  C
  C220     1.0000 0.82440  0.75500  0.68240  Biso   1.000  C
  H178     1.0000 0.80880  0.71960  0.65280  Biso   1.000  H
  H179     1.0000 0.83360  0.81470  0.67090  Biso   1.000  H
  H180     1.0000 0.85180  0.72190  0.70010  Biso   1.000  H
  C221     1.0000 0.75900  0.84700  0.70230  Biso   1.000  C
  H181     1.0000 0.75140  0.87480  0.73280  Biso   1.000  H
  H182     1.0000 0.77280  0.89270  0.68340  Biso   1.000  H
  H183     1.0000 0.73090  0.82270  0.68030  Biso   1.000  H
  O98      1.0000 0.78800  0.71000  0.79200  Biso   1.000  O
  C222     1.0000 0.76800  0.75800  0.75500  Biso   1.000  C
  C223     1.0000 0.78200  0.83700  0.67500  Biso   1.000  C
  H184     1.0000 0.74870  0.84550  0.66490  Biso   1.000  H
  H185     1.0000 0.79670  0.89560  0.68600  Biso   1.000  H
  H186     1.0000 0.79380  0.81370  0.64570  Biso   1.000  H
  C224     1.0000 0.83400  0.71100  0.71500  Biso   1.000  C
  H187     1.0000 0.84410  0.72510  0.68300  Biso   1.000  H
  H188     1.0000 0.85890  0.72410  0.74410  Biso   1.000  H
  H189     1.0000 0.82550  0.64630  0.71510  Biso   1.000  H
  Cd22     1.0000 0.12660  0.83868  0.94134  Biso   1.000  Cd
  Cd23     1.0000 0.12927  0.06234  0.86983  Biso   1.000  Cd
  Cd24     1.0000 0.25389  0.12399  0.84833  Biso   1.000  Cd
  N36      1.0000 0.24326  0.88440  0.95350  Biso   1.000  N
  N37      1.0000 0.19925  0.91620  0.93900  Biso   1.000  N
  N38      1.0000 0.19961  0.99190  0.91130  Biso   1.000  N
  N39      1.0000 0.24403  0.01010  0.90670  Biso   1.000  N
  N40      1.0000 0.29260  0.26940  0.71810  Biso   1.000  N
  O99      1.0000 0.18254  0.70930  0.94057  Biso   1.000  O
  O100     1.0000 0.10721  0.68070  0.92110  Biso   1.000  O
  O101     1.0000 0.14940  0.20580  0.89550  Biso   1.000  O
  O102     1.0000 0.22060  0.24090  0.88210  Biso   1.000  O
  O103     1.0000 0.12869  0.81570  0.02541  Biso   1.000  O
  O104     1.0000 0.20678  0.81980  0.05271  Biso   1.000  O
  O105     1.0000 0.18290  0.93420  0.30350  Biso   1.000  O
  O106     1.0000 0.10810  0.89790  0.28380  Biso   1.000  O
  O107     1.0000 0.10775  0.90150  0.85236  Biso   1.000  O
  O108     1.0000 0.05022  0.84820  0.88800  Biso   1.000  O
  O109     1.0000 0.11009  0.99990  0.95209  Biso   1.000  O
  O110     1.0000 0.05774  0.07860  0.89500  Biso   1.000  O
  O111     1.0000 0.26160  0.23000  0.78480  Biso   1.000  O
  C225     1.0000 0.27060  0.94290  0.93320  Biso   1.000  C
  C226     1.0000 0.32220  0.93230  0.93870  Biso   1.000  C
  H190     1.0000 0.33720  0.99170  0.94750  Biso   1.000  H
  H191     1.0000 0.33390  0.88810  0.96590  Biso   1.000  H
  H192     1.0000 0.32900  0.91040  0.90640  Biso   1.000  H
  C227     1.0000 0.14870  0.65260  0.92840  Biso   1.000  C
  C228     1.0000 0.18170  0.26060  0.89370  Biso   1.000  C
  C229     1.0000 0.15810  0.55130  0.92010  Biso   1.000  C
  C230     1.0000 0.20330  0.51890  0.92240  Biso   1.000  C
  H193     1.0000 0.22850  0.56010  0.92980  Biso   1.000  H
  C231     1.0000 0.21100  0.42560  0.91390  Biso   1.000  C
  H194     1.0000 0.24130  0.40490  0.91420  Biso   1.000  H
  C232     1.0000 0.17450  0.36280  0.90490  Biso   1.000  C
  C233     1.0000 0.12970  0.39480  0.90400  Biso   1.000  C
  H195     1.0000 0.10490  0.35260  0.89860  Biso   1.000  H
  C234     1.0000 0.12090  0.48890  0.91090  Biso   1.000  C
  H196     1.0000 0.09040  0.50980  0.90930  Biso   1.000  H
  C235     1.0000 0.16580  0.82550  0.05980  Biso   1.000  C
  C236     1.0000 0.14740  0.90700  0.27180  Biso   1.000  C
  C237     1.0000 0.16020  0.84760  0.11450  Biso   1.000  C
  C238     1.0000 0.19630  0.89100  0.14870  Biso   1.000  C
  H197     1.0000 0.22370  0.90710  0.13780  Biso   1.000  H
  C239     1.0000 0.19200  0.91070  0.19950  Biso   1.000  C
  H198     1.0000 0.21680  0.93830  0.22270  Biso   1.000  H
  C240     1.0000 0.15090  0.88950  0.21560  Biso   1.000  C
  C241     1.0000 0.11410  0.84930  0.18060  Biso   1.000  C
  H199     1.0000 0.08620  0.83540  0.19110  Biso   1.000  H
  C242     1.0000 0.11850  0.82970  0.13010  Biso   1.000  C
  H200     1.0000 0.09320  0.80430  0.10650  Biso   1.000  H
  C243     1.0000 0.06470  0.87970  0.84950  Biso   1.000  C
  C244     1.0000 0.03090  0.88870  0.79790  Biso   1.000  C
  C245     1.0000 0.04760  0.89210  0.75210  Biso   1.000  C
  H201     1.0000 0.07980  0.89590  0.75360  Biso   1.000  H
  C246     1.0000 0.98330  0.88980  0.79570  Biso   1.000  C
  H202     1.0000 0.97190  0.88900  0.82640  Biso   1.000  H
  C247     1.0000 0.06880  0.03260  0.93650  Biso   1.000  C
  C248     1.0000 0.03290  0.01590  0.96960  Biso   1.000  C
  C249     1.0000 0.04550  0.97230  0.01730  Biso   1.000  C
  H203     1.0000 0.07640  0.95330  0.02930  Biso   1.000  H
  C250     1.0000 0.01240  0.95670  0.04750  Biso   1.000  C
  H204     1.0000 0.02120  0.92710  0.07970  Biso   1.000  H
  C251     1.0000 0.29090  0.21600  0.75800  Biso   1.000  C
  C252     1.0000 0.32440  0.25500  0.68240  Biso   1.000  C
  H205     1.0000 0.30880  0.21960  0.65280  Biso   1.000  H
  H206     1.0000 0.33360  0.31470  0.67090  Biso   1.000  H
  H207     1.0000 0.35180  0.22190  0.70010  Biso   1.000  H
  C253     1.0000 0.25900  0.34700  0.70230  Biso   1.000  C
  H208     1.0000 0.25140  0.37480  0.73280  Biso   1.000  H
  H209     1.0000 0.27280  0.39270  0.68340  Biso   1.000  H
  H210     1.0000 0.23090  0.32270  0.68030  Biso   1.000  H
  O112     1.0000 0.28800  0.21000  0.79200  Biso   1.000  O
  C254     1.0000 0.26800  0.25800  0.75500  Biso   1.000  C
  C255     1.0000 0.28200  0.33700  0.67500  Biso   1.000  C
  H211     1.0000 0.24870  0.34550  0.66490  Biso   1.000  H
  H212     1.0000 0.29670  0.39560  0.68600  Biso   1.000  H
  H213     1.0000 0.29380  0.31370  0.64570  Biso   1.000  H
  C256     1.0000 0.33400  0.21100  0.71500  Biso   1.000  C
  H214     1.0000 0.34410  0.22510  0.68300  Biso   1.000  H
  H215     1.0000 0.35890  0.22410  0.74410  Biso   1.000  H
  H216     1.0000 0.32550  0.14630  0.71510  Biso   1.000  H
  Cd25     1.0000 0.75000  0.75000  0.50000  Biso   1.000  Cd
  Cd26     1.0000 0.25000  0.75000  0.00000  Biso   1.000  Cd
  Cd27     1.0000 0.25000  0.25000  0.50000  Biso   1.000  Cd
  Cd28     1.0000 0.75000  0.25000  0.00000  Biso   1.000  Cd
