data_image0
_cell_length_a       35.2593
_cell_length_b       14.8434
_cell_length_c       31.0697
_cell_angle_alpha    90
_cell_angle_beta     101.611
_cell_angle_gamma    90

_symmetry_space_group_name_H-M    "P 1"
_symmetry_int_tables_number       1

loop_
  _symmetry_equiv_pos_as_xyz
  'x, y, z'

loop_
  _atom_site_label
  _atom_site_occupancy
  _atom_site_fract_x
  _atom_site_fract_y
  _atom_site_fract_z
  _atom_site_thermal_displace_type
  _atom_site_B_iso_or_equiv
  _atom_site_type_symbol
  Zn1      1.0000 0.66945  0.86060  0.51781  Biso   1.000  Zn
  I1       1.0000 0.72951  0.76499  0.54022  Biso   1.000  I
  I2       1.0000 0.62295  0.84490  0.44411  Biso   1.000  I
  Zn2      1.0000 0.37539  0.09930  0.68722  Biso   1.000  Zn
  I3       1.0000 0.39534  0.23668  0.64821  Biso   1.000  I
  I4       1.0000 0.35685  0.10000  0.76158  Biso   1.000  I
  Zn3      1.0000 0.08444  0.12647  0.34226  Biso   1.000  Zn
  I5       1.0000 0.02536  0.14940  0.37835  Biso   1.000  I
  I6       1.0000 0.11819  0.24070  0.30478  Biso   1.000  I
  Zn4      1.0000 0.87500  0.39500  0.18530  Biso   1.000  Zn
  I7       1.0000 0.89659  0.25940  0.14607  Biso   1.000  I
  I8       1.0000 0.85241  0.40770  0.25960  Biso   1.000  I
  Zn5      1.0000 0.17040  0.63923  0.02075  Biso   1.000  Zn
  I9       1.0000 0.23061  0.73579  0.04307  Biso   1.000  I
  I10      1.0000 0.12364  0.65540  0.94639  Biso   1.000  I
  Zn6      1.0000 0.08210  0.87673  0.84176  Biso   1.000  Zn
  I11      1.0000 0.11534  0.75706  0.80376  Biso   1.000  I
  I12      1.0000 0.02356  0.85570  0.87689  Biso   1.000  I
  N1       1.0000 0.63850  0.84390  0.56740  Biso   1.000  N
  N2       1.0000 0.57060  0.48450  0.79790  Biso   1.000  N
  N3       1.0000 0.42099  0.01210  0.69040  Biso   1.000  N
  N4       1.0000 0.57569  0.72760  0.68720  Biso   1.000  N
  N5       1.0000 0.52442  0.77340  0.72110  Biso   1.000  N
  N6       1.0000 0.53937  0.85730  0.66140  Biso   1.000  N
  N7       1.0000 0.33178  0.03540  0.64370  Biso   1.000  N
  N8       1.0000 0.18390  0.49750  0.52530  Biso   1.000  N
  N9       1.0000 0.12400  0.05900  0.38970  Biso   1.000  N
  N10      1.0000 0.23400  0.81540  0.56130  Biso   1.000  N
  N11      1.0000 0.18160  0.82830  0.50020  Biso   1.000  N
  N12      1.0000 0.22092  0.95510  0.52300  Biso   1.000  N
  N13      1.0000 0.07020  0.02010  0.29840  Biso   1.000  N
  N14      1.0000 0.92001  0.49270  0.19160  Biso   1.000  N
  N15      1.0000 0.13910  0.65640  0.06900  Biso   1.000  N
  N16      1.0000 0.02349  0.72820  0.22247  Biso   1.000  N
  N17      1.0000 0.03711  0.64660  0.16210  Biso   1.000  N
  N18      1.0000 0.07445  0.77680  0.18780  Biso   1.000  N
  N19      1.0000 0.18360  0.50280  0.02660  Biso   1.000  N
  N20      1.0000 0.33282  0.96540  0.14120  Biso   1.000  N
  N21      1.0000 0.12220  0.94120  0.89040  Biso   1.000  N
  N22      1.0000 0.23540  0.18510  0.05890  Biso   1.000  N
  N23      1.0000 0.22200  0.04660  0.02110  Biso   1.000  N
  N24      1.0000 0.18252  0.17460  0.99840  Biso   1.000  N
  C1       1.0000 0.60570  0.88390  0.56410  Biso   1.000  C
  H1       1.0000 0.59740  0.92260  0.53970  Biso   1.000  H
  C2       1.0000 0.58230  0.87460  0.59330  Biso   1.000  C
  H2       1.0000 0.55880  0.90760  0.58950  Biso   1.000  H
  C3       1.0000 0.59260  0.81650  0.62880  Biso   1.000  C
  C4       1.0000 0.62830  0.77400  0.63210  Biso   1.000  C
  H3       1.0000 0.63750  0.73420  0.65590  Biso   1.000  H
  C5       1.0000 0.64940  0.78930  0.60200  Biso   1.000  C
  H4       1.0000 0.67370  0.75980  0.60520  Biso   1.000  H
  C6       1.0000 0.59770  0.51120  0.77630  Biso   1.000  C
  H5       1.0000 0.62100  0.47750  0.77950  Biso   1.000  H
  C7       1.0000 0.59320  0.58570  0.74960  Biso   1.000  C
  H6       1.0000 0.61310  0.60330  0.73480  Biso   1.000  H
  C8       1.0000 0.55890  0.63540  0.74450  Biso   1.000  C
  C9       1.0000 0.53130  0.60960  0.76750  Biso   1.000  C
  H7       1.0000 0.50820  0.64350  0.76560  Biso   1.000  H
  C10      1.0000 0.53780  0.53350  0.79350  Biso   1.000  C
  H8       1.0000 0.51840  0.51490  0.80890  Biso   1.000  H
  C11      1.0000 0.43550  0.99900  0.65580  Biso   1.000  C
  H9       1.0000 0.42300  0.02660  0.62920  Biso   1.000  H
  C12      1.0000 0.46780  0.94780  0.65500  Biso   1.000  C
  H10      1.0000 0.47880  0.94500  0.62950  Biso   1.000  H
  C13      1.0000 0.48380  0.90000  0.69300  Biso   1.000  C
  C14      1.0000 0.46770  0.90820  0.72890  Biso   1.000  C
  H11      1.0000 0.47820  0.87630  0.75510  Biso   1.000  H
  C15      1.0000 0.43670  0.96240  0.72690  Biso   1.000  C
  H12      1.0000 0.42520  0.96640  0.75200  Biso   1.000  H
  C16      1.0000 0.56770  0.80010  0.66090  Biso   1.000  C
  C17      1.0000 0.55300  0.71720  0.71600  Biso   1.000  C
  C18      1.0000 0.51840  0.84170  0.69190  Biso   1.000  C
  C19      1.0000 0.31020  0.07990  0.61040  Biso   1.000  C
  H13      1.0000 0.31540  0.14170  0.60610  Biso   1.000  H
  C20      1.0000 0.27990  0.03750  0.58170  Biso   1.000  C
  H14      1.0000 0.26430  0.07110  0.55880  Biso   1.000  H
  C21      1.0000 0.27280  0.94850  0.58630  Biso   1.000  C
  C22      1.0000 0.29550  0.90280  0.62130  Biso   1.000  C
  H15      1.0000 0.29110  0.84070  0.62590  Biso   1.000  H
  C23      1.0000 0.32430  0.94810  0.64900  Biso   1.000  C
  H16      1.0000 0.33950  0.91640  0.67290  Biso   1.000  H
  C24      1.0000 0.21530  0.52810  0.55100  Biso   1.000  C
  H17      1.0000 0.23380  0.48680  0.56640  Biso   1.000  H
  C25      1.0000 0.22200  0.62270  0.55640  Biso   1.000  C
  H18      1.0000 0.24330  0.64440  0.57760  Biso   1.000  H
  C26      1.0000 0.19750  0.68180  0.53080  Biso   1.000  C
  C27      1.0000 0.16540  0.64810  0.50500  Biso   1.000  C
  H19      1.0000 0.14680  0.68750  0.48840  Biso   1.000  H
  C28      1.0000 0.15930  0.55480  0.50270  Biso   1.000  C
  H20      1.0000 0.13660  0.53220  0.48400  Biso   1.000  H
  C29      1.0000 0.11750  0.97270  0.39660  Biso   1.000  C
  H21      1.0000 0.09730  0.94310  0.37670  Biso   1.000  H
  C30      1.0000 0.13900  0.92250  0.43160  Biso   1.000  C
  H22      1.0000 0.13320  0.86100  0.43590  Biso   1.000  H
  C31      1.0000 0.16880  0.96620  0.45960  Biso   1.000  C
  C32      1.0000 0.17450  0.05560  0.45320  Biso   1.000  C
  H23      1.0000 0.19380  0.08760  0.47310  Biso   1.000  H
  C33      1.0000 0.15210  0.09980  0.41780  Biso   1.000  C
  H24      1.0000 0.15710  0.16170  0.41340  Biso   1.000  H
  C34      1.0000 0.24010  0.90340  0.55500  Biso   1.000  C
  C35      1.0000 0.20490  0.78110  0.53170  Biso   1.000  C
  C36      1.0000 0.19210  0.91370  0.49640  Biso   1.000  C
  C37      1.0000 0.09410  0.99790  0.27230  Biso   1.000  C
  H25      1.0000 0.11580  0.03590  0.27190  Biso   1.000  H
  C38      1.0000 0.08930  0.92150  0.24520  Biso   1.000  C
  H26      1.0000 0.10740  0.90770  0.22720  Biso   1.000  H
  C39      1.0000 0.05790  0.86720  0.24530  Biso   1.000  C
  C40      1.0000 0.03230  0.89120  0.27120  Biso   1.000  C
  H27      1.0000 0.00980  0.85570  0.27100  Biso   1.000  H
  C41      1.0000 0.03900  0.96740  0.29780  Biso   1.000  C
  H28      1.0000 0.02130  0.98250  0.31590  Biso   1.000  H
  C42      1.0000 0.93740  0.52950  0.22870  Biso   1.000  C
  H29      1.0000 0.92850  0.51650  0.25490  Biso   1.000  H
  C43      1.0000 0.96910  0.58810  0.23050  Biso   1.000  C
  H30      1.0000 0.98040  0.61700  0.25730  Biso   1.000  H
  C44      1.0000 0.98360  0.60310  0.19280  Biso   1.000  C
  C45      1.0000 0.96380  0.56430  0.15390  Biso   1.000  C
  H31      1.0000 0.97160  0.57600  0.12690  Biso   1.000  H
  C46      1.0000 0.93290  0.50900  0.15500  Biso   1.000  C
  H32      1.0000 0.92010  0.48110  0.12850  Biso   1.000  H
  C47      1.0000 0.14910  0.71530  0.10160  Biso   1.000  C
  H33      1.0000 0.17290  0.74680  0.10430  Biso   1.000  H
  C48      1.0000 0.12550  0.73250  0.13260  Biso   1.000  C
  H34      1.0000 0.13320  0.77550  0.15530  Biso   1.000  H
  C49      1.0000 0.09210  0.68740  0.12940  Biso   1.000  C
  C50      1.0000 0.08270  0.62350  0.09780  Biso   1.000  C
  H35      1.0000 0.05960  0.58940  0.09560  Biso   1.000  H
  C51      1.0000 0.10700  0.60870  0.06930  Biso   1.000  C
  H36      1.0000 0.10060  0.56150  0.04840  Biso   1.000  H
  C52      1.0000 0.05160  0.78520  0.21720  Biso   1.000  C
  C53      1.0000 0.01680  0.66350  0.19300  Biso   1.000  C
  C54      1.0000 0.06650  0.70440  0.16210  Biso   1.000  C
  C55      1.0000 0.15820  0.44420  0.00420  Biso   1.000  C
  H37      1.0000 0.13490  0.46710  0.98700  Biso   1.000  H
  C56      1.0000 0.16400  0.35280  0.00470  Biso   1.000  C
  H38      1.0000 0.14570  0.31420  0.98720  Biso   1.000  H
  C57      1.0000 0.19730  0.31770  0.03130  Biso   1.000  C
  C58      1.0000 0.22450  0.37840  0.05460  Biso   1.000  C
  H39      1.0000 0.24820  0.35770  0.07180  Biso   1.000  H
  C59      1.0000 0.21570  0.46860  0.05160  Biso   1.000  C
  H40      1.0000 0.23350  0.50930  0.06850  Biso   1.000  H
  C60      1.0000 0.31210  0.92260  0.10620  Biso   1.000  C
  H41      1.0000 0.31800  0.86130  0.10160  Biso   1.000  H
  C61      1.0000 0.28310  0.96240  0.07700  Biso   1.000  C
  H42      1.0000 0.26940  0.92990  0.05240  Biso   1.000  H
  C62      1.0000 0.27380  0.05310  0.08390  Biso   1.000  C
  C63      1.0000 0.29610  0.09780  0.11920  Biso   1.000  C
  H43      1.0000 0.29190  0.15990  0.12400  Biso   1.000  H
  C64      1.0000 0.32440  0.05090  0.14700  Biso   1.000  C
  H44      1.0000 0.33870  0.08150  0.17190  Biso   1.000  H
  C65      1.0000 0.11700  0.02930  0.89730  Biso   1.000  C
  H45      1.0000 0.09680  0.06000  0.87790  Biso   1.000  H
  C66      1.0000 0.13860  0.07540  0.92980  Biso   1.000  C
  H46      1.0000 0.13350  0.13760  0.93310  Biso   1.000  H
  C67      1.0000 0.16780  0.03550  0.95830  Biso   1.000  C
  C68      1.0000 0.17420  0.94390  0.95240  Biso   1.000  C
  H47      1.0000 0.19410  0.91220  0.97170  Biso   1.000  H
  C69      1.0000 0.15040  0.90060  0.91750  Biso   1.000  C
  H48      1.0000 0.15480  0.83840  0.91310  Biso   1.000  H
  C70      1.0000 0.20560  0.21950  0.02960  Biso   1.000  C
  C71      1.0000 0.24170  0.09730  0.05310  Biso   1.000  C
  C72      1.0000 0.19180  0.08710  0.99550  Biso   1.000  C
  Zn7      1.0000 0.67700  0.85930  0.52590  Biso   1.000  Zn
  I13      1.0000 0.74020  0.77670  0.55200  Biso   1.000  I
  I14      1.0000 0.63280  0.83440  0.44910  Biso   1.000  I
  Zn8      1.0000 0.37270  0.09530  0.69470  Biso   1.000  Zn
  I15      1.0000 0.38400  0.24750  0.66080  Biso   1.000  I
  I16      1.0000 0.34930  0.07950  0.76470  Biso   1.000  I
  I17      1.0000 0.02890  0.16500  0.37610  Biso   1.000  I
  I18      1.0000 0.12670  0.23300  0.30529  Biso   1.000  I
  Zn9      1.0000 0.87450  0.40890  0.18900  Biso   1.000  Zn
  I19      1.0000 0.89460  0.26850  0.15270  Biso   1.000  I
  I20      1.0000 0.85024  0.38700  0.25642  Biso   1.000  I
  I21      1.0000 0.23340  0.72700  0.04970  Biso   1.000  I
  I22      1.0000 0.12440  0.67020  0.95180  Biso   1.000  I
  I23      1.0000 0.12080  0.77030  0.80320  Biso   1.000  I
  I24      1.0000 0.02500  0.84980  0.87860  Biso   1.000  I
  Zn10     1.0000 0.16945  0.36060  0.51781  Biso   1.000  Zn
  I25      1.0000 0.22951  0.26499  0.54022  Biso   1.000  I
  I26      1.0000 0.12295  0.34490  0.44411  Biso   1.000  I
  Zn11     1.0000 0.87539  0.59930  0.68722  Biso   1.000  Zn
  I27      1.0000 0.89534  0.73668  0.64821  Biso   1.000  I
  I28      1.0000 0.85685  0.60000  0.76158  Biso   1.000  I
  Zn12     1.0000 0.58444  0.62647  0.34226  Biso   1.000  Zn
  I29      1.0000 0.52536  0.64940  0.37835  Biso   1.000  I
  I30      1.0000 0.61819  0.74070  0.30478  Biso   1.000  I
  Zn13     1.0000 0.37500  0.89500  0.18530  Biso   1.000  Zn
  I31      1.0000 0.39659  0.75940  0.14607  Biso   1.000  I
  I32      1.0000 0.35241  0.90770  0.25960  Biso   1.000  I
  Zn14     1.0000 0.67040  0.13923  0.02075  Biso   1.000  Zn
  I33      1.0000 0.73061  0.23579  0.04307  Biso   1.000  I
  I34      1.0000 0.62364  0.15540  0.94639  Biso   1.000  I
  Zn15     1.0000 0.58210  0.37673  0.84176  Biso   1.000  Zn
  I35      1.0000 0.61534  0.25706  0.80376  Biso   1.000  I
  I36      1.0000 0.52356  0.35570  0.87689  Biso   1.000  I
  N25      1.0000 0.13850  0.34390  0.56740  Biso   1.000  N
  N26      1.0000 0.07060  0.98450  0.79790  Biso   1.000  N
  N27      1.0000 0.92099  0.51210  0.69040  Biso   1.000  N
  N28      1.0000 0.07569  0.22760  0.68720  Biso   1.000  N
  N29      1.0000 0.02442  0.27340  0.72110  Biso   1.000  N
  N30      1.0000 0.03937  0.35730  0.66140  Biso   1.000  N
  N31      1.0000 0.83178  0.53540  0.64370  Biso   1.000  N
  N32      1.0000 0.68390  0.99750  0.52530  Biso   1.000  N
  N33      1.0000 0.62400  0.55900  0.38970  Biso   1.000  N
  N34      1.0000 0.73400  0.31540  0.56130  Biso   1.000  N
  N35      1.0000 0.68160  0.32830  0.50020  Biso   1.000  N
  N36      1.0000 0.72092  0.45510  0.52300  Biso   1.000  N
  N37      1.0000 0.57020  0.52010  0.29840  Biso   1.000  N
  N38      1.0000 0.42001  0.99270  0.19160  Biso   1.000  N
  N39      1.0000 0.63910  0.15640  0.06900  Biso   1.000  N
  N40      1.0000 0.52349  0.22820  0.22247  Biso   1.000  N
  N41      1.0000 0.53711  0.14660  0.16210  Biso   1.000  N
  N42      1.0000 0.57445  0.27680  0.18780  Biso   1.000  N
  N43      1.0000 0.68360  0.00280  0.02660  Biso   1.000  N
  N44      1.0000 0.83282  0.46540  0.14120  Biso   1.000  N
  N45      1.0000 0.62220  0.44120  0.89040  Biso   1.000  N
  N46      1.0000 0.73540  0.68510  0.05890  Biso   1.000  N
  N47      1.0000 0.72200  0.54660  0.02110  Biso   1.000  N
  N48      1.0000 0.68252  0.67460  0.99840  Biso   1.000  N
  C73      1.0000 0.10570  0.38390  0.56410  Biso   1.000  C
  H49      1.0000 0.09740  0.42260  0.53970  Biso   1.000  H
  C74      1.0000 0.08230  0.37460  0.59330  Biso   1.000  C
  H50      1.0000 0.05880  0.40760  0.58950  Biso   1.000  H
  C75      1.0000 0.09260  0.31650  0.62880  Biso   1.000  C
  C76      1.0000 0.12830  0.27400  0.63210  Biso   1.000  C
  H51      1.0000 0.13750  0.23420  0.65590  Biso   1.000  H
  C77      1.0000 0.14940  0.28930  0.60200  Biso   1.000  C
  H52      1.0000 0.17370  0.25980  0.60520  Biso   1.000  H
  C78      1.0000 0.09770  0.01120  0.77630  Biso   1.000  C
  H53      1.0000 0.12100  0.97750  0.77950  Biso   1.000  H
  C79      1.0000 0.09320  0.08570  0.74960  Biso   1.000  C
  H54      1.0000 0.11310  0.10330  0.73480  Biso   1.000  H
  C80      1.0000 0.05890  0.13540  0.74450  Biso   1.000  C
  C81      1.0000 0.03130  0.10960  0.76750  Biso   1.000  C
  H55      1.0000 0.00820  0.14350  0.76560  Biso   1.000  H
  C82      1.0000 0.03780  0.03350  0.79350  Biso   1.000  C
  H56      1.0000 0.01840  0.01490  0.80890  Biso   1.000  H
  C83      1.0000 0.93550  0.49900  0.65580  Biso   1.000  C
  H57      1.0000 0.92300  0.52660  0.62920  Biso   1.000  H
  C84      1.0000 0.96780  0.44780  0.65500  Biso   1.000  C
  H58      1.0000 0.97880  0.44500  0.62950  Biso   1.000  H
  C85      1.0000 0.98380  0.40000  0.69300  Biso   1.000  C
  C86      1.0000 0.96770  0.40820  0.72890  Biso   1.000  C
  H59      1.0000 0.97820  0.37630  0.75510  Biso   1.000  H
  C87      1.0000 0.93670  0.46240  0.72690  Biso   1.000  C
  H60      1.0000 0.92520  0.46640  0.75200  Biso   1.000  H
  C88      1.0000 0.06770  0.30010  0.66090  Biso   1.000  C
  C89      1.0000 0.05300  0.21720  0.71600  Biso   1.000  C
  C90      1.0000 0.01840  0.34170  0.69190  Biso   1.000  C
  C91      1.0000 0.81020  0.57990  0.61040  Biso   1.000  C
  H61      1.0000 0.81540  0.64170  0.60610  Biso   1.000  H
  C92      1.0000 0.77990  0.53750  0.58170  Biso   1.000  C
  H62      1.0000 0.76430  0.57110  0.55880  Biso   1.000  H
  C93      1.0000 0.77280  0.44850  0.58630  Biso   1.000  C
  C94      1.0000 0.79550  0.40280  0.62130  Biso   1.000  C
  H63      1.0000 0.79110  0.34070  0.62590  Biso   1.000  H
  C95      1.0000 0.82430  0.44810  0.64900  Biso   1.000  C
  H64      1.0000 0.83950  0.41640  0.67290  Biso   1.000  H
  C96      1.0000 0.71530  0.02810  0.55100  Biso   1.000  C
  H65      1.0000 0.73380  0.98680  0.56640  Biso   1.000  H
  C97      1.0000 0.72200  0.12270  0.55640  Biso   1.000  C
  H66      1.0000 0.74330  0.14440  0.57760  Biso   1.000  H
  C98      1.0000 0.69750  0.18180  0.53080  Biso   1.000  C
  C99      1.0000 0.66540  0.14810  0.50500  Biso   1.000  C
  H67      1.0000 0.64680  0.18750  0.48840  Biso   1.000  H
  C100     1.0000 0.65930  0.05480  0.50270  Biso   1.000  C
  H68      1.0000 0.63660  0.03220  0.48400  Biso   1.000  H
  C101     1.0000 0.61750  0.47270  0.39660  Biso   1.000  C
  H69      1.0000 0.59730  0.44310  0.37670  Biso   1.000  H
  C102     1.0000 0.63900  0.42250  0.43160  Biso   1.000  C
  H70      1.0000 0.63320  0.36100  0.43590  Biso   1.000  H
  C103     1.0000 0.66880  0.46620  0.45960  Biso   1.000  C
  C104     1.0000 0.67450  0.55560  0.45320  Biso   1.000  C
  H71      1.0000 0.69380  0.58760  0.47310  Biso   1.000  H
  C105     1.0000 0.65210  0.59980  0.41780  Biso   1.000  C
  H72      1.0000 0.65710  0.66170  0.41340  Biso   1.000  H
  C106     1.0000 0.74010  0.40340  0.55500  Biso   1.000  C
  C107     1.0000 0.70490  0.28110  0.53170  Biso   1.000  C
  C108     1.0000 0.69210  0.41370  0.49640  Biso   1.000  C
  C109     1.0000 0.59410  0.49790  0.27230  Biso   1.000  C
  H73      1.0000 0.61580  0.53590  0.27190  Biso   1.000  H
  C110     1.0000 0.58930  0.42150  0.24520  Biso   1.000  C
  H74      1.0000 0.60740  0.40770  0.22720  Biso   1.000  H
  C111     1.0000 0.55790  0.36720  0.24530  Biso   1.000  C
  C112     1.0000 0.53230  0.39120  0.27120  Biso   1.000  C
  H75      1.0000 0.50980  0.35570  0.27100  Biso   1.000  H
  C113     1.0000 0.53900  0.46740  0.29780  Biso   1.000  C
  H76      1.0000 0.52130  0.48250  0.31590  Biso   1.000  H
  C114     1.0000 0.43740  0.02950  0.22870  Biso   1.000  C
  H77      1.0000 0.42850  0.01650  0.25490  Biso   1.000  H
  C115     1.0000 0.46910  0.08810  0.23050  Biso   1.000  C
  H78      1.0000 0.48040  0.11700  0.25730  Biso   1.000  H
  C116     1.0000 0.48360  0.10310  0.19280  Biso   1.000  C
  C117     1.0000 0.46380  0.06430  0.15390  Biso   1.000  C
  H79      1.0000 0.47160  0.07600  0.12690  Biso   1.000  H
  C118     1.0000 0.43290  0.00900  0.15500  Biso   1.000  C
  H80      1.0000 0.42010  0.98110  0.12850  Biso   1.000  H
  C119     1.0000 0.64910  0.21530  0.10160  Biso   1.000  C
  H81      1.0000 0.67290  0.24680  0.10430  Biso   1.000  H
  C120     1.0000 0.62550  0.23250  0.13260  Biso   1.000  C
  H82      1.0000 0.63320  0.27550  0.15530  Biso   1.000  H
  C121     1.0000 0.59210  0.18740  0.12940  Biso   1.000  C
  C122     1.0000 0.58270  0.12350  0.09780  Biso   1.000  C
  H83      1.0000 0.55960  0.08940  0.09560  Biso   1.000  H
  C123     1.0000 0.60700  0.10870  0.06930  Biso   1.000  C
  H84      1.0000 0.60060  0.06150  0.04840  Biso   1.000  H
  C124     1.0000 0.55160  0.28520  0.21720  Biso   1.000  C
  C125     1.0000 0.51680  0.16350  0.19300  Biso   1.000  C
  C126     1.0000 0.56650  0.20440  0.16210  Biso   1.000  C
  C127     1.0000 0.65820  0.94420  0.00420  Biso   1.000  C
  H85      1.0000 0.63490  0.96710  0.98700  Biso   1.000  H
  C128     1.0000 0.66400  0.85280  0.00470  Biso   1.000  C
  H86      1.0000 0.64570  0.81420  0.98720  Biso   1.000  H
  C129     1.0000 0.69730  0.81770  0.03130  Biso   1.000  C
  C130     1.0000 0.72450  0.87840  0.05460  Biso   1.000  C
  H87      1.0000 0.74820  0.85770  0.07180  Biso   1.000  H
  C131     1.0000 0.71570  0.96860  0.05160  Biso   1.000  C
  H88      1.0000 0.73350  0.00930  0.06850  Biso   1.000  H
  C132     1.0000 0.81210  0.42260  0.10620  Biso   1.000  C
  H89      1.0000 0.81800  0.36130  0.10160  Biso   1.000  H
  C133     1.0000 0.78310  0.46240  0.07700  Biso   1.000  C
  H90      1.0000 0.76940  0.42990  0.05240  Biso   1.000  H
  C134     1.0000 0.77380  0.55310  0.08390  Biso   1.000  C
  C135     1.0000 0.79610  0.59780  0.11920  Biso   1.000  C
  H91      1.0000 0.79190  0.65990  0.12400  Biso   1.000  H
  C136     1.0000 0.82440  0.55090  0.14700  Biso   1.000  C
  H92      1.0000 0.83870  0.58150  0.17190  Biso   1.000  H
  C137     1.0000 0.61700  0.52930  0.89730  Biso   1.000  C
  H93      1.0000 0.59680  0.56000  0.87790  Biso   1.000  H
  C138     1.0000 0.63860  0.57540  0.92980  Biso   1.000  C
  H94      1.0000 0.63350  0.63760  0.93310  Biso   1.000  H
  C139     1.0000 0.66780  0.53550  0.95830  Biso   1.000  C
  C140     1.0000 0.67420  0.44390  0.95240  Biso   1.000  C
  H95      1.0000 0.69410  0.41220  0.97170  Biso   1.000  H
  C141     1.0000 0.65040  0.40060  0.91750  Biso   1.000  C
  H96      1.0000 0.65480  0.33840  0.91310  Biso   1.000  H
  C142     1.0000 0.70560  0.71950  0.02960  Biso   1.000  C
  C143     1.0000 0.74170  0.59730  0.05310  Biso   1.000  C
  C144     1.0000 0.69180  0.58710  0.99550  Biso   1.000  C
  Zn16     1.0000 0.17700  0.35930  0.52590  Biso   1.000  Zn
  I37      1.0000 0.24020  0.27670  0.55200  Biso   1.000  I
  I38      1.0000 0.13280  0.33440  0.44910  Biso   1.000  I
  Zn17     1.0000 0.87270  0.59530  0.69470  Biso   1.000  Zn
  I39      1.0000 0.88400  0.74750  0.66080  Biso   1.000  I
  I40      1.0000 0.84930  0.57950  0.76470  Biso   1.000  I
  I41      1.0000 0.52890  0.66500  0.37610  Biso   1.000  I
  I42      1.0000 0.62670  0.73300  0.30529  Biso   1.000  I
  Zn18     1.0000 0.37450  0.90890  0.18900  Biso   1.000  Zn
  I43      1.0000 0.39460  0.76850  0.15270  Biso   1.000  I
  I44      1.0000 0.35024  0.88700  0.25642  Biso   1.000  I
  I45      1.0000 0.73340  0.22700  0.04970  Biso   1.000  I
  I46      1.0000 0.62440  0.17020  0.95180  Biso   1.000  I
  I47      1.0000 0.62080  0.27030  0.80320  Biso   1.000  I
  I48      1.0000 0.52500  0.34980  0.87860  Biso   1.000  I
  Zn19     1.0000 0.33055  0.86060  0.48219  Biso   1.000  Zn
  I49      1.0000 0.27049  0.76499  0.45978  Biso   1.000  I
  I50      1.0000 0.37705  0.84490  0.55589  Biso   1.000  I
  Zn20     1.0000 0.62461  0.09930  0.31278  Biso   1.000  Zn
  I51      1.0000 0.60466  0.23668  0.35179  Biso   1.000  I
  I52      1.0000 0.64315  0.10000  0.23842  Biso   1.000  I
  Zn21     1.0000 0.91556  0.12647  0.65774  Biso   1.000  Zn
  I53      1.0000 0.97464  0.14940  0.62165  Biso   1.000  I
  I54      1.0000 0.88181  0.24070  0.69522  Biso   1.000  I
  Zn22     1.0000 0.12500  0.39500  0.81470  Biso   1.000  Zn
  I55      1.0000 0.10341  0.25940  0.85393  Biso   1.000  I
  I56      1.0000 0.14759  0.40770  0.74040  Biso   1.000  I
  Zn23     1.0000 0.82960  0.63923  0.97925  Biso   1.000  Zn
  I57      1.0000 0.76939  0.73579  0.95693  Biso   1.000  I
  I58      1.0000 0.87636  0.65540  0.05361  Biso   1.000  I
  Zn24     1.0000 0.91790  0.87673  0.15824  Biso   1.000  Zn
  I59      1.0000 0.88466  0.75706  0.19624  Biso   1.000  I
  I60      1.0000 0.97644  0.85570  0.12311  Biso   1.000  I
  N49      1.0000 0.36150  0.84390  0.43260  Biso   1.000  N
  N50      1.0000 0.42940  0.48450  0.20210  Biso   1.000  N
  N51      1.0000 0.57901  0.01210  0.30960  Biso   1.000  N
  N52      1.0000 0.42431  0.72760  0.31280  Biso   1.000  N
  N53      1.0000 0.47558  0.77340  0.27890  Biso   1.000  N
  N54      1.0000 0.46063  0.85730  0.33860  Biso   1.000  N
  N55      1.0000 0.66822  0.03540  0.35630  Biso   1.000  N
  N56      1.0000 0.81610  0.49750  0.47470  Biso   1.000  N
  N57      1.0000 0.87600  0.05900  0.61030  Biso   1.000  N
  N58      1.0000 0.76600  0.81540  0.43870  Biso   1.000  N
  N59      1.0000 0.81840  0.82830  0.49980  Biso   1.000  N
  N60      1.0000 0.77908  0.95510  0.47700  Biso   1.000  N
  N61      1.0000 0.92980  0.02010  0.70160  Biso   1.000  N
  N62      1.0000 0.07999  0.49270  0.80840  Biso   1.000  N
  N63      1.0000 0.86090  0.65640  0.93100  Biso   1.000  N
  N64      1.0000 0.97651  0.72820  0.77753  Biso   1.000  N
  N65      1.0000 0.96289  0.64660  0.83790  Biso   1.000  N
  N66      1.0000 0.92555  0.77680  0.81220  Biso   1.000  N
  N67      1.0000 0.81640  0.50280  0.97340  Biso   1.000  N
  N68      1.0000 0.66718  0.96540  0.85880  Biso   1.000  N
  N69      1.0000 0.87780  0.94120  0.10960  Biso   1.000  N
  N70      1.0000 0.76460  0.18510  0.94110  Biso   1.000  N
  N71      1.0000 0.77800  0.04660  0.97890  Biso   1.000  N
  N72      1.0000 0.81748  0.17460  0.00160  Biso   1.000  N
  C145     1.0000 0.39430  0.88390  0.43590  Biso   1.000  C
  H97      1.0000 0.40260  0.92260  0.46030  Biso   1.000  H
  C146     1.0000 0.41770  0.87460  0.40670  Biso   1.000  C
  H98      1.0000 0.44120  0.90760  0.41050  Biso   1.000  H
  C147     1.0000 0.40740  0.81650  0.37120  Biso   1.000  C
  C148     1.0000 0.37170  0.77400  0.36790  Biso   1.000  C
  H99      1.0000 0.36250  0.73420  0.34410  Biso   1.000  H
  C149     1.0000 0.35060  0.78930  0.39800  Biso   1.000  C
  H100     1.0000 0.32630  0.75980  0.39480  Biso   1.000  H
  C150     1.0000 0.40230  0.51120  0.22370  Biso   1.000  C
  H101     1.0000 0.37900  0.47750  0.22050  Biso   1.000  H
  C151     1.0000 0.40680  0.58570  0.25040  Biso   1.000  C
  H102     1.0000 0.38690  0.60330  0.26520  Biso   1.000  H
  C152     1.0000 0.44110  0.63540  0.25550  Biso   1.000  C
  C153     1.0000 0.46870  0.60960  0.23250  Biso   1.000  C
  H103     1.0000 0.49180  0.64350  0.23440  Biso   1.000  H
  C154     1.0000 0.46220  0.53350  0.20650  Biso   1.000  C
  H104     1.0000 0.48160  0.51490  0.19110  Biso   1.000  H
  C155     1.0000 0.56450  0.99900  0.34420  Biso   1.000  C
  H105     1.0000 0.57700  0.02660  0.37080  Biso   1.000  H
  C156     1.0000 0.53220  0.94780  0.34500  Biso   1.000  C
  H106     1.0000 0.52120  0.94500  0.37050  Biso   1.000  H
  C157     1.0000 0.51620  0.90000  0.30700  Biso   1.000  C
  C158     1.0000 0.53230  0.90820  0.27110  Biso   1.000  C
  H107     1.0000 0.52180  0.87630  0.24490  Biso   1.000  H
  C159     1.0000 0.56330  0.96240  0.27310  Biso   1.000  C
  H108     1.0000 0.57480  0.96640  0.24800  Biso   1.000  H
  C160     1.0000 0.43230  0.80010  0.33910  Biso   1.000  C
  C161     1.0000 0.44700  0.71720  0.28400  Biso   1.000  C
  C162     1.0000 0.48160  0.84170  0.30810  Biso   1.000  C
  C163     1.0000 0.68980  0.07990  0.38960  Biso   1.000  C
  H109     1.0000 0.68460  0.14170  0.39390  Biso   1.000  H
  C164     1.0000 0.72010  0.03750  0.41830  Biso   1.000  C
  H110     1.0000 0.73570  0.07110  0.44120  Biso   1.000  H
  C165     1.0000 0.72720  0.94850  0.41370  Biso   1.000  C
  C166     1.0000 0.70450  0.90280  0.37870  Biso   1.000  C
  H111     1.0000 0.70890  0.84070  0.37410  Biso   1.000  H
  C167     1.0000 0.67570  0.94810  0.35100  Biso   1.000  C
  H112     1.0000 0.66050  0.91640  0.32710  Biso   1.000  H
  C168     1.0000 0.78470  0.52810  0.44900  Biso   1.000  C
  H113     1.0000 0.76620  0.48680  0.43360  Biso   1.000  H
  C169     1.0000 0.77800  0.62270  0.44360  Biso   1.000  C
  H114     1.0000 0.75670  0.64440  0.42240  Biso   1.000  H
  C170     1.0000 0.80250  0.68180  0.46920  Biso   1.000  C
  C171     1.0000 0.83460  0.64810  0.49500  Biso   1.000  C
  H115     1.0000 0.85320  0.68750  0.51160  Biso   1.000  H
  C172     1.0000 0.84070  0.55480  0.49730  Biso   1.000  C
  H116     1.0000 0.86340  0.53220  0.51600  Biso   1.000  H
  C173     1.0000 0.88250  0.97270  0.60340  Biso   1.000  C
  H117     1.0000 0.90270  0.94310  0.62330  Biso   1.000  H
  C174     1.0000 0.86100  0.92250  0.56840  Biso   1.000  C
  H118     1.0000 0.86680  0.86100  0.56410  Biso   1.000  H
  C175     1.0000 0.83120  0.96620  0.54040  Biso   1.000  C
  C176     1.0000 0.82550  0.05560  0.54680  Biso   1.000  C
  H119     1.0000 0.80620  0.08760  0.52690  Biso   1.000  H
  C177     1.0000 0.84790  0.09980  0.58220  Biso   1.000  C
  H120     1.0000 0.84290  0.16170  0.58660  Biso   1.000  H
  C178     1.0000 0.75990  0.90340  0.44500  Biso   1.000  C
  C179     1.0000 0.79510  0.78110  0.46830  Biso   1.000  C
  C180     1.0000 0.80790  0.91370  0.50360  Biso   1.000  C
  C181     1.0000 0.90590  0.99790  0.72770  Biso   1.000  C
  H121     1.0000 0.88420  0.03590  0.72810  Biso   1.000  H
  C182     1.0000 0.91070  0.92150  0.75480  Biso   1.000  C
  H122     1.0000 0.89260  0.90770  0.77280  Biso   1.000  H
  C183     1.0000 0.94210  0.86720  0.75470  Biso   1.000  C
  C184     1.0000 0.96770  0.89120  0.72880  Biso   1.000  C
  H123     1.0000 0.99020  0.85570  0.72900  Biso   1.000  H
  C185     1.0000 0.96100  0.96740  0.70220  Biso   1.000  C
  H124     1.0000 0.97870  0.98250  0.68410  Biso   1.000  H
  C186     1.0000 0.06260  0.52950  0.77130  Biso   1.000  C
  H125     1.0000 0.07150  0.51650  0.74510  Biso   1.000  H
  C187     1.0000 0.03090  0.58810  0.76950  Biso   1.000  C
  H126     1.0000 0.01960  0.61700  0.74270  Biso   1.000  H
  C188     1.0000 0.01640  0.60310  0.80720  Biso   1.000  C
  C189     1.0000 0.03620  0.56430  0.84610  Biso   1.000  C
  H127     1.0000 0.02840  0.57600  0.87310  Biso   1.000  H
  C190     1.0000 0.06710  0.50900  0.84500  Biso   1.000  C
  H128     1.0000 0.07990  0.48110  0.87150  Biso   1.000  H
  C191     1.0000 0.85090  0.71530  0.89840  Biso   1.000  C
  H129     1.0000 0.82710  0.74680  0.89570  Biso   1.000  H
  C192     1.0000 0.87450  0.73250  0.86740  Biso   1.000  C
  H130     1.0000 0.86680  0.77550  0.84470  Biso   1.000  H
  C193     1.0000 0.90790  0.68740  0.87060  Biso   1.000  C
  C194     1.0000 0.91730  0.62350  0.90220  Biso   1.000  C
  H131     1.0000 0.94040  0.58940  0.90440  Biso   1.000  H
  C195     1.0000 0.89300  0.60870  0.93070  Biso   1.000  C
  H132     1.0000 0.89940  0.56150  0.95160  Biso   1.000  H
  C196     1.0000 0.94840  0.78520  0.78280  Biso   1.000  C
  C197     1.0000 0.98320  0.66350  0.80700  Biso   1.000  C
  C198     1.0000 0.93350  0.70440  0.83790  Biso   1.000  C
  C199     1.0000 0.84180  0.44420  0.99580  Biso   1.000  C
  H133     1.0000 0.86510  0.46710  0.01300  Biso   1.000  H
  C200     1.0000 0.83600  0.35280  0.99530  Biso   1.000  C
  H134     1.0000 0.85430  0.31420  0.01280  Biso   1.000  H
  C201     1.0000 0.80270  0.31770  0.96870  Biso   1.000  C
  C202     1.0000 0.77550  0.37840  0.94540  Biso   1.000  C
  H135     1.0000 0.75180  0.35770  0.92820  Biso   1.000  H
  C203     1.0000 0.78430  0.46860  0.94840  Biso   1.000  C
  H136     1.0000 0.76650  0.50930  0.93150  Biso   1.000  H
  C204     1.0000 0.68790  0.92260  0.89380  Biso   1.000  C
  H137     1.0000 0.68200  0.86130  0.89840  Biso   1.000  H
  C205     1.0000 0.71690  0.96240  0.92300  Biso   1.000  C
  H138     1.0000 0.73060  0.92990  0.94760  Biso   1.000  H
  C206     1.0000 0.72620  0.05310  0.91610  Biso   1.000  C
  C207     1.0000 0.70390  0.09780  0.88080  Biso   1.000  C
  H139     1.0000 0.70810  0.15990  0.87600  Biso   1.000  H
  C208     1.0000 0.67560  0.05090  0.85300  Biso   1.000  C
  H140     1.0000 0.66130  0.08150  0.82810  Biso   1.000  H
  C209     1.0000 0.88300  0.02930  0.10270  Biso   1.000  C
  H141     1.0000 0.90320  0.06000  0.12210  Biso   1.000  H
  C210     1.0000 0.86140  0.07540  0.07020  Biso   1.000  C
  H142     1.0000 0.86650  0.13760  0.06690  Biso   1.000  H
  C211     1.0000 0.83220  0.03550  0.04170  Biso   1.000  C
  C212     1.0000 0.82580  0.94390  0.04760  Biso   1.000  C
  H143     1.0000 0.80590  0.91220  0.02830  Biso   1.000  H
  C213     1.0000 0.84960  0.90060  0.08250  Biso   1.000  C
  H144     1.0000 0.84520  0.83840  0.08690  Biso   1.000  H
  C214     1.0000 0.79440  0.21950  0.97040  Biso   1.000  C
  C215     1.0000 0.75830  0.09730  0.94690  Biso   1.000  C
  C216     1.0000 0.80820  0.08710  0.00450  Biso   1.000  C
  Zn25     1.0000 0.32300  0.85930  0.47410  Biso   1.000  Zn
  I61      1.0000 0.25980  0.77670  0.44800  Biso   1.000  I
  I62      1.0000 0.36720  0.83440  0.55090  Biso   1.000  I
  Zn26     1.0000 0.62730  0.09530  0.30530  Biso   1.000  Zn
  I63      1.0000 0.61600  0.24750  0.33920  Biso   1.000  I
  I64      1.0000 0.65070  0.07950  0.23530  Biso   1.000  I
  I65      1.0000 0.97110  0.16500  0.62390  Biso   1.000  I
  I66      1.0000 0.87330  0.23300  0.69471  Biso   1.000  I
  Zn27     1.0000 0.12550  0.40890  0.81100  Biso   1.000  Zn
  I67      1.0000 0.10540  0.26850  0.84730  Biso   1.000  I
  I68      1.0000 0.14976  0.38700  0.74358  Biso   1.000  I
  I69      1.0000 0.76660  0.72700  0.95030  Biso   1.000  I
  I70      1.0000 0.87560  0.67020  0.04820  Biso   1.000  I
  I71      1.0000 0.87920  0.77030  0.19680  Biso   1.000  I
  I72      1.0000 0.97500  0.84980  0.12140  Biso   1.000  I
  Zn28     1.0000 0.83055  0.36060  0.48219  Biso   1.000  Zn
  I73      1.0000 0.77049  0.26499  0.45978  Biso   1.000  I
  I74      1.0000 0.87705  0.34490  0.55589  Biso   1.000  I
  Zn29     1.0000 0.12461  0.59930  0.31278  Biso   1.000  Zn
  I75      1.0000 0.10466  0.73668  0.35179  Biso   1.000  I
  I76      1.0000 0.14315  0.60000  0.23842  Biso   1.000  I
  Zn30     1.0000 0.41556  0.62647  0.65774  Biso   1.000  Zn
  I77      1.0000 0.47464  0.64940  0.62165  Biso   1.000  I
  I78      1.0000 0.38181  0.74070  0.69522  Biso   1.000  I
  Zn31     1.0000 0.62500  0.89500  0.81470  Biso   1.000  Zn
  I79      1.0000 0.60341  0.75940  0.85393  Biso   1.000  I
  I80      1.0000 0.64759  0.90770  0.74040  Biso   1.000  I
  Zn32     1.0000 0.32960  0.13923  0.97925  Biso   1.000  Zn
  I81      1.0000 0.26939  0.23579  0.95693  Biso   1.000  I
  I82      1.0000 0.37636  0.15540  0.05361  Biso   1.000  I
  Zn33     1.0000 0.41790  0.37673  0.15824  Biso   1.000  Zn
  I83      1.0000 0.38466  0.25706  0.19624  Biso   1.000  I
  I84      1.0000 0.47644  0.35570  0.12311  Biso   1.000  I
  N73      1.0000 0.86150  0.34390  0.43260  Biso   1.000  N
  N74      1.0000 0.92940  0.98450  0.20210  Biso   1.000  N
  N75      1.0000 0.07901  0.51210  0.30960  Biso   1.000  N
  N76      1.0000 0.92431  0.22760  0.31280  Biso   1.000  N
  N77      1.0000 0.97558  0.27340  0.27890  Biso   1.000  N
  N78      1.0000 0.96063  0.35730  0.33860  Biso   1.000  N
  N79      1.0000 0.16822  0.53540  0.35630  Biso   1.000  N
  N80      1.0000 0.31610  0.99750  0.47470  Biso   1.000  N
  N81      1.0000 0.37600  0.55900  0.61030  Biso   1.000  N
  N82      1.0000 0.26600  0.31540  0.43870  Biso   1.000  N
  N83      1.0000 0.31840  0.32830  0.49980  Biso   1.000  N
  N84      1.0000 0.27908  0.45510  0.47700  Biso   1.000  N
  N85      1.0000 0.42980  0.52010  0.70160  Biso   1.000  N
  N86      1.0000 0.57999  0.99270  0.80840  Biso   1.000  N
  N87      1.0000 0.36090  0.15640  0.93100  Biso   1.000  N
  N88      1.0000 0.47651  0.22820  0.77753  Biso   1.000  N
  N89      1.0000 0.46289  0.14660  0.83790  Biso   1.000  N
  N90      1.0000 0.42555  0.27680  0.81220  Biso   1.000  N
  N91      1.0000 0.31640  0.00280  0.97340  Biso   1.000  N
  N92      1.0000 0.16718  0.46540  0.85880  Biso   1.000  N
  N93      1.0000 0.37780  0.44120  0.10960  Biso   1.000  N
  N94      1.0000 0.26460  0.68510  0.94110  Biso   1.000  N
  N95      1.0000 0.27800  0.54660  0.97890  Biso   1.000  N
  N96      1.0000 0.31748  0.67460  0.00160  Biso   1.000  N
  C217     1.0000 0.89430  0.38390  0.43590  Biso   1.000  C
  H145     1.0000 0.90260  0.42260  0.46030  Biso   1.000  H
  C218     1.0000 0.91770  0.37460  0.40670  Biso   1.000  C
  H146     1.0000 0.94120  0.40760  0.41050  Biso   1.000  H
  C219     1.0000 0.90740  0.31650  0.37120  Biso   1.000  C
  C220     1.0000 0.87170  0.27400  0.36790  Biso   1.000  C
  H147     1.0000 0.86250  0.23420  0.34410  Biso   1.000  H
  C221     1.0000 0.85060  0.28930  0.39800  Biso   1.000  C
  H148     1.0000 0.82630  0.25980  0.39480  Biso   1.000  H
  C222     1.0000 0.90230  0.01120  0.22370  Biso   1.000  C
  H149     1.0000 0.87900  0.97750  0.22050  Biso   1.000  H
  C223     1.0000 0.90680  0.08570  0.25040  Biso   1.000  C
  H150     1.0000 0.88690  0.10330  0.26520  Biso   1.000  H
  C224     1.0000 0.94110  0.13540  0.25550  Biso   1.000  C
  C225     1.0000 0.96870  0.10960  0.23250  Biso   1.000  C
  H151     1.0000 0.99180  0.14350  0.23440  Biso   1.000  H
  C226     1.0000 0.96220  0.03350  0.20650  Biso   1.000  C
  H152     1.0000 0.98160  0.01490  0.19110  Biso   1.000  H
  C227     1.0000 0.06450  0.49900  0.34420  Biso   1.000  C
  H153     1.0000 0.07700  0.52660  0.37080  Biso   1.000  H
  C228     1.0000 0.03220  0.44780  0.34500  Biso   1.000  C
  H154     1.0000 0.02120  0.44500  0.37050  Biso   1.000  H
  C229     1.0000 0.01620  0.40000  0.30700  Biso   1.000  C
  C230     1.0000 0.03230  0.40820  0.27110  Biso   1.000  C
  H155     1.0000 0.02180  0.37630  0.24490  Biso   1.000  H
  C231     1.0000 0.06330  0.46240  0.27310  Biso   1.000  C
  H156     1.0000 0.07480  0.46640  0.24800  Biso   1.000  H
  C232     1.0000 0.93230  0.30010  0.33910  Biso   1.000  C
  C233     1.0000 0.94700  0.21720  0.28400  Biso   1.000  C
  C234     1.0000 0.98160  0.34170  0.30810  Biso   1.000  C
  C235     1.0000 0.18980  0.57990  0.38960  Biso   1.000  C
  H157     1.0000 0.18460  0.64170  0.39390  Biso   1.000  H
  C236     1.0000 0.22010  0.53750  0.41830  Biso   1.000  C
  H158     1.0000 0.23570  0.57110  0.44120  Biso   1.000  H
  C237     1.0000 0.22720  0.44850  0.41370  Biso   1.000  C
  C238     1.0000 0.20450  0.40280  0.37870  Biso   1.000  C
  H159     1.0000 0.20890  0.34070  0.37410  Biso   1.000  H
  C239     1.0000 0.17570  0.44810  0.35100  Biso   1.000  C
  H160     1.0000 0.16050  0.41640  0.32710  Biso   1.000  H
  C240     1.0000 0.28470  0.02810  0.44900  Biso   1.000  C
  H161     1.0000 0.26620  0.98680  0.43360  Biso   1.000  H
  C241     1.0000 0.27800  0.12270  0.44360  Biso   1.000  C
  H162     1.0000 0.25670  0.14440  0.42240  Biso   1.000  H
  C242     1.0000 0.30250  0.18180  0.46920  Biso   1.000  C
  C243     1.0000 0.33460  0.14810  0.49500  Biso   1.000  C
  H163     1.0000 0.35320  0.18750  0.51160  Biso   1.000  H
  C244     1.0000 0.34070  0.05480  0.49730  Biso   1.000  C
  H164     1.0000 0.36340  0.03220  0.51600  Biso   1.000  H
  C245     1.0000 0.38250  0.47270  0.60340  Biso   1.000  C
  H165     1.0000 0.40270  0.44310  0.62330  Biso   1.000  H
  C246     1.0000 0.36100  0.42250  0.56840  Biso   1.000  C
  H166     1.0000 0.36680  0.36100  0.56410  Biso   1.000  H
  C247     1.0000 0.33120  0.46620  0.54040  Biso   1.000  C
  C248     1.0000 0.32550  0.55560  0.54680  Biso   1.000  C
  H167     1.0000 0.30620  0.58760  0.52690  Biso   1.000  H
  C249     1.0000 0.34790  0.59980  0.58220  Biso   1.000  C
  H168     1.0000 0.34290  0.66170  0.58660  Biso   1.000  H
  C250     1.0000 0.25990  0.40340  0.44500  Biso   1.000  C
  C251     1.0000 0.29510  0.28110  0.46830  Biso   1.000  C
  C252     1.0000 0.30790  0.41370  0.50360  Biso   1.000  C
  C253     1.0000 0.40590  0.49790  0.72770  Biso   1.000  C
  H169     1.0000 0.38420  0.53590  0.72810  Biso   1.000  H
  C254     1.0000 0.41070  0.42150  0.75480  Biso   1.000  C
  H170     1.0000 0.39260  0.40770  0.77280  Biso   1.000  H
  C255     1.0000 0.44210  0.36720  0.75470  Biso   1.000  C
  C256     1.0000 0.46770  0.39120  0.72880  Biso   1.000  C
  H171     1.0000 0.49020  0.35570  0.72900  Biso   1.000  H
  C257     1.0000 0.46100  0.46740  0.70220  Biso   1.000  C
  H172     1.0000 0.47870  0.48250  0.68410  Biso   1.000  H
  C258     1.0000 0.56260  0.02950  0.77130  Biso   1.000  C
  H173     1.0000 0.57150  0.01650  0.74510  Biso   1.000  H
  C259     1.0000 0.53090  0.08810  0.76950  Biso   1.000  C
  H174     1.0000 0.51960  0.11700  0.74270  Biso   1.000  H
  C260     1.0000 0.51640  0.10310  0.80720  Biso   1.000  C
  C261     1.0000 0.53620  0.06430  0.84610  Biso   1.000  C
  H175     1.0000 0.52840  0.07600  0.87310  Biso   1.000  H
  C262     1.0000 0.56710  0.00900  0.84500  Biso   1.000  C
  H176     1.0000 0.57990  0.98110  0.87150  Biso   1.000  H
  C263     1.0000 0.35090  0.21530  0.89840  Biso   1.000  C
  H177     1.0000 0.32710  0.24680  0.89570  Biso   1.000  H
  C264     1.0000 0.37450  0.23250  0.86740  Biso   1.000  C
  H178     1.0000 0.36680  0.27550  0.84470  Biso   1.000  H
  C265     1.0000 0.40790  0.18740  0.87060  Biso   1.000  C
  C266     1.0000 0.41730  0.12350  0.90220  Biso   1.000  C
  H179     1.0000 0.44040  0.08940  0.90440  Biso   1.000  H
  C267     1.0000 0.39300  0.10870  0.93070  Biso   1.000  C
  H180     1.0000 0.39940  0.06150  0.95160  Biso   1.000  H
  C268     1.0000 0.44840  0.28520  0.78280  Biso   1.000  C
  C269     1.0000 0.48320  0.16350  0.80700  Biso   1.000  C
  C270     1.0000 0.43350  0.20440  0.83790  Biso   1.000  C
  C271     1.0000 0.34180  0.94420  0.99580  Biso   1.000  C
  H181     1.0000 0.36510  0.96710  0.01300  Biso   1.000  H
  C272     1.0000 0.33600  0.85280  0.99530  Biso   1.000  C
  H182     1.0000 0.35430  0.81420  0.01280  Biso   1.000  H
  C273     1.0000 0.30270  0.81770  0.96870  Biso   1.000  C
  C274     1.0000 0.27550  0.87840  0.94540  Biso   1.000  C
  H183     1.0000 0.25180  0.85770  0.92820  Biso   1.000  H
  C275     1.0000 0.28430  0.96860  0.94840  Biso   1.000  C
  H184     1.0000 0.26650  0.00930  0.93150  Biso   1.000  H
  C276     1.0000 0.18790  0.42260  0.89380  Biso   1.000  C
  H185     1.0000 0.18200  0.36130  0.89840  Biso   1.000  H
  C277     1.0000 0.21690  0.46240  0.92300  Biso   1.000  C
  H186     1.0000 0.23060  0.42990  0.94760  Biso   1.000  H
  C278     1.0000 0.22620  0.55310  0.91610  Biso   1.000  C
  C279     1.0000 0.20390  0.59780  0.88080  Biso   1.000  C
  H187     1.0000 0.20810  0.65990  0.87600  Biso   1.000  H
  C280     1.0000 0.17560  0.55090  0.85300  Biso   1.000  C
  H188     1.0000 0.16130  0.58150  0.82810  Biso   1.000  H
  C281     1.0000 0.38300  0.52930  0.10270  Biso   1.000  C
  H189     1.0000 0.40320  0.56000  0.12210  Biso   1.000  H
  C282     1.0000 0.36140  0.57540  0.07020  Biso   1.000  C
  H190     1.0000 0.36650  0.63760  0.06690  Biso   1.000  H
  C283     1.0000 0.33220  0.53550  0.04170  Biso   1.000  C
  C284     1.0000 0.32580  0.44390  0.04760  Biso   1.000  C
  H191     1.0000 0.30590  0.41220  0.02830  Biso   1.000  H
  C285     1.0000 0.34960  0.40060  0.08250  Biso   1.000  C
  H192     1.0000 0.34520  0.33840  0.08690  Biso   1.000  H
  C286     1.0000 0.29440  0.71950  0.97040  Biso   1.000  C
  C287     1.0000 0.25830  0.59730  0.94690  Biso   1.000  C
  C288     1.0000 0.30820  0.58710  0.00450  Biso   1.000  C
  Zn34     1.0000 0.82300  0.35930  0.47410  Biso   1.000  Zn
  I85      1.0000 0.75980  0.27670  0.44800  Biso   1.000  I
  I86      1.0000 0.86720  0.33440  0.55090  Biso   1.000  I
  Zn35     1.0000 0.12730  0.59530  0.30530  Biso   1.000  Zn
  I87      1.0000 0.11600  0.74750  0.33920  Biso   1.000  I
  I88      1.0000 0.15070  0.57950  0.23530  Biso   1.000  I
  I89      1.0000 0.47110  0.66500  0.62390  Biso   1.000  I
  I90      1.0000 0.37330  0.73300  0.69471  Biso   1.000  I
  Zn36     1.0000 0.62550  0.90890  0.81100  Biso   1.000  Zn
  I91      1.0000 0.60540  0.76850  0.84730  Biso   1.000  I
  I92      1.0000 0.64976  0.88700  0.74358  Biso   1.000  I
  I93      1.0000 0.26660  0.22700  0.95030  Biso   1.000  I
  I94      1.0000 0.37560  0.17020  0.04820  Biso   1.000  I
  I95      1.0000 0.37920  0.27030  0.19680  Biso   1.000  I
  I96      1.0000 0.47500  0.34980  0.12140  Biso   1.000  I
