data_image0
_cell_length_a       35.1845
_cell_length_b       14.8561
_cell_length_c       31.0855
_cell_angle_alpha    90
_cell_angle_beta     101.739
_cell_angle_gamma    90

_symmetry_space_group_name_H-M    "P 1"
_symmetry_int_tables_number       1

loop_
  _symmetry_equiv_pos_as_xyz
  'x, y, z'

loop_
  _atom_site_label
  _atom_site_occupancy
  _atom_site_fract_x
  _atom_site_fract_y
  _atom_site_fract_z
  _atom_site_thermal_displace_type
  _atom_site_B_iso_or_equiv
  _atom_site_type_symbol
  Zn1      1.0000 0.62600  0.40290  0.31140  Biso   1.000  Zn
  I1       1.0000 0.64790  0.41580  0.23900  Biso   1.000  I
  I2       1.0000 0.60390  0.26310  0.35230  Biso   1.000  I
  Zn2      1.0000 0.32630  0.64000  0.47620  Biso   1.000  Zn
  I3       1.0000 0.26440  0.72250  0.44810  Biso   1.000  I
  I4       1.0000 0.37644  0.65720  0.55327  Biso   1.000  I
  Zn3      1.0000 0.42030  0.87220  0.65610  Biso   1.000  Zn
  I5       1.0000 0.47880  0.85500  0.62060  Biso   1.000  I
  I6       1.0000 0.38090  0.76210  0.69330  Biso   1.000  I
  Zn4      1.0000 0.32730  0.35730  0.97490  Biso   1.000  Zn
  I7       1.0000 0.27042  0.26080  0.95749  Biso   1.000  I
  I8       1.0000 0.37120  0.33200  0.05060  Biso   1.000  I
  Zn5      1.0000 0.41610  0.11410  0.15770  Biso   1.000  Zn
  I9       1.0000 0.47582  0.14900  0.12021  Biso   1.000  I
  I10      1.0000 0.38422  0.23920  0.19310  Biso   1.000  I
  Zn6      1.0000 0.12580  0.08620  0.80790  Biso   1.000  Zn
  I11      1.0000 0.14390  0.10040  0.74280  Biso   1.000  I
  I12      1.0000 0.10500  0.23820  0.85640  Biso   1.000  I
  N1       1.0000 0.58000  0.48690  0.30880  Biso   1.000  N
  N2       1.0000 0.43100  0.01160  0.20150  Biso   1.000  N
  N3       1.0000 0.36080  0.65550  0.42890  Biso   1.000  N
  N4       1.0000 0.47640  0.72580  0.27810  Biso   1.000  N
  N5       1.0000 0.42470  0.77240  0.31110  Biso   1.000  N
  N6       1.0000 0.46150  0.64300  0.33740  Biso   1.000  N
  N7       1.0000 0.31510  0.50230  0.47370  Biso   1.000  N
  N8       1.0000 0.16730  0.96330  0.35850  Biso   1.000  N
  N9       1.0000 0.38010  0.94030  0.60820  Biso   1.000  N
  N10      1.0000 0.26520  0.18490  0.44130  Biso   1.000  N
  N11      1.0000 0.27860  0.04560  0.47880  Biso   1.000  N
  N12      1.0000 0.31790  0.17240  0.50140  Biso   1.000  N
  N13      1.0000 0.43230  0.97830  0.70130  Biso   1.000  N
  N14      1.0000 0.57900  0.50710  0.80930  Biso   1.000  N
  N15      1.0000 0.36030  0.34030  0.93070  Biso   1.000  N
  N16      1.0000 0.47620  0.27110  0.77750  Biso   1.000  N
  N17      1.0000 0.46090  0.35500  0.83640  Biso   1.000  N
  N18      1.0000 0.42510  0.22330  0.81110  Biso   1.000  N
  N19      1.0000 0.31640  0.49270  0.97270  Biso   1.000  N
  N20      1.0000 0.37760  0.05250  0.10950  Biso   1.000  N
  N21      1.0000 0.16840  0.02760  0.85770  Biso   1.000  N
  N22      1.0000 0.31840  0.82010  0.00120  Biso   1.000  N
  N23      1.0000 0.27950  0.94950  0.97830  Biso   1.000  N
  N24      1.0000 0.26480  0.81030  0.94040  Biso   1.000  N
  C1       1.0000 0.56370  0.49640  0.34290  Biso   1.000  C
  H1       1.0000 0.57230  0.45840  0.36670  Biso   1.000  H
  C2       1.0000 0.53490  0.55790  0.34670  Biso   1.000  C
  H2       1.0000 0.52840  0.57160  0.37350  Biso   1.000  H
  C3       1.0000 0.51590  0.59860  0.30660  Biso   1.000  C
  C4       1.0000 0.53220  0.58660  0.27000  Biso   1.000  C
  H3       1.0000 0.52240  0.61640  0.24380  Biso   1.000  H
  C5       1.0000 0.56310  0.52940  0.27390  Biso   1.000  C
  H4       1.0000 0.57300  0.52010  0.24870  Biso   1.000  H
  C6       1.0000 0.46070  0.96080  0.20280  Biso   1.000  C
  H5       1.0000 0.47770  0.97380  0.18430  Biso   1.000  H
  C7       1.0000 0.46820  0.88740  0.23060  Biso   1.000  C
  H6       1.0000 0.49140  0.85600  0.23310  Biso   1.000  H
  C8       1.0000 0.44220  0.86170  0.25360  Biso   1.000  C
  C9       1.0000 0.41130  0.92110  0.25160  Biso   1.000  C
  H7       1.0000 0.39310  0.90990  0.26890  Biso   1.000  H
  C10      1.0000 0.40690  0.99340  0.22580  Biso   1.000  C
  H8       1.0000 0.38580  0.03140  0.22550  Biso   1.000  H
  C11      1.0000 0.39300  0.60700  0.42740  Biso   1.000  C
  H9       1.0000 0.39770  0.55690  0.44540  Biso   1.000  H
  C12      1.0000 0.41740  0.62400  0.40360  Biso   1.000  C
  H10      1.0000 0.44160  0.59640  0.40890  Biso   1.000  H
  C13      1.0000 0.40760  0.68460  0.36980  Biso   1.000  C
  C14      1.0000 0.37490  0.73410  0.36610  Biso   1.000  C
  H11      1.0000 0.36680  0.77550  0.34370  Biso   1.000  H
  C15      1.0000 0.35380  0.71630  0.40060  Biso   1.000  C
  H12      1.0000 0.33290  0.75390  0.40180  Biso   1.000  H
  C16      1.0000 0.48160  0.65830  0.30710  Biso   1.000  C
  C17      1.0000 0.44770  0.78240  0.28280  Biso   1.000  C
  C18      1.0000 0.43160  0.70180  0.33740  Biso   1.000  C
  C19      1.0000 0.34090  0.44470  0.49570  Biso   1.000  C
  H13      1.0000 0.36400  0.46790  0.51180  Biso   1.000  H
  C20      1.0000 0.33570  0.35450  0.49620  Biso   1.000  C
  H14      1.0000 0.35390  0.31710  0.51340  Biso   1.000  H
  C21      1.0000 0.30150  0.31920  0.46940  Biso   1.000  C
  C22      1.0000 0.27740  0.37590  0.44550  Biso   1.000  C
  H15      1.0000 0.25480  0.35520  0.42720  Biso   1.000  H
  C23      1.0000 0.28630  0.46830  0.44800  Biso   1.000  C
  H16      1.0000 0.26970  0.50710  0.42950  Biso   1.000  H
  C24      1.0000 0.17350  0.04840  0.35410  Biso   1.000  C
  H17      1.0000 0.15750  0.07960  0.33150  Biso   1.000  H
  C25      1.0000 0.20450  0.09760  0.38320  Biso   1.000  C
  H18      1.0000 0.20870  0.15850  0.37910  Biso   1.000  H
  C26      1.0000 0.22650  0.05120  0.41590  Biso   1.000  C
  C27      1.0000 0.21900  0.96130  0.42260  Biso   1.000  C
  H19      1.0000 0.23420  0.92940  0.44550  Biso   1.000  H
  C28      1.0000 0.18790  0.91930  0.39380  Biso   1.000  C
  H20      1.0000 0.18150  0.86020  0.39910  Biso   1.000  H
  C29      1.0000 0.35180  0.90050  0.58280  Biso   1.000  C
  H21      1.0000 0.34770  0.83980  0.58740  Biso   1.000  H
  C30      1.0000 0.32680  0.94430  0.54820  Biso   1.000  C
  H22      1.0000 0.30660  0.91340  0.53020  Biso   1.000  H
  C31      1.0000 0.33300  0.03460  0.54170  Biso   1.000  C
  C32      1.0000 0.36410  0.07430  0.56760  Biso   1.000  C
  H23      1.0000 0.37130  0.13290  0.56230  Biso   1.000  H
  C33      1.0000 0.38440  0.02590  0.60170  Biso   1.000  C
  H24      1.0000 0.40290  0.05650  0.62210  Biso   1.000  H
  C34      1.0000 0.29510  0.21900  0.47140  Biso   1.000  C
  C35      1.0000 0.25980  0.09600  0.44770  Biso   1.000  C
  C36      1.0000 0.30820  0.08690  0.50580  Biso   1.000  C
  C37      1.0000 0.40430  0.00530  0.72510  Biso   1.000  C
  H25      1.0000 0.38160  0.97190  0.72220  Biso   1.000  H
  C38      1.0000 0.40900  0.08100  0.75350  Biso   1.000  C
  H26      1.0000 0.39080  0.09630  0.77010  Biso   1.000  H
  C39      1.0000 0.44240  0.13070  0.75480  Biso   1.000  C
  C40      1.0000 0.47020  0.10910  0.72850  Biso   1.000  C
  H27      1.0000 0.49140  0.14620  0.72790  Biso   1.000  H
  C41      1.0000 0.46410  0.03140  0.70410  Biso   1.000  C
  H28      1.0000 0.48300  0.01420  0.68860  Biso   1.000  H
  C42      1.0000 0.56420  0.46100  0.77120  Biso   1.000  C
  H29      1.0000 0.57510  0.46590  0.74640  Biso   1.000  H
  C43      1.0000 0.53140  0.40550  0.77170  Biso   1.000  C
  H30      1.0000 0.52050  0.37380  0.74640  Biso   1.000  H
  C44      1.0000 0.51550  0.39700  0.80710  Biso   1.000  C
  C45      1.0000 0.53160  0.44310  0.84440  Biso   1.000  C
  H31      1.0000 0.51970  0.44280  0.86850  Biso   1.000  H
  C46      1.0000 0.56490  0.48910  0.84560  Biso   1.000  C
  H32      1.0000 0.57870  0.50930  0.87260  Biso   1.000  H
  C47      1.0000 0.34810  0.28310  0.89450  Biso   1.000  C
  H33      1.0000 0.32400  0.25510  0.89010  Biso   1.000  H
  C48      1.0000 0.37170  0.26990  0.86680  Biso   1.000  C
  H34      1.0000 0.36370  0.22810  0.84460  Biso   1.000  H
  C49      1.0000 0.40680  0.31180  0.86760  Biso   1.000  C
  C50      1.0000 0.41390  0.37860  0.89870  Biso   1.000  C
  H35      1.0000 0.43420  0.41870  0.89880  Biso   1.000  H
  C51      1.0000 0.38970  0.38740  0.93200  Biso   1.000  C
  H36      1.0000 0.39660  0.42930  0.95440  Biso   1.000  H
  C52      1.0000 0.44820  0.21470  0.78240  Biso   1.000  C
  C53      1.0000 0.48290  0.33850  0.80690  Biso   1.000  C
  C54      1.0000 0.43290  0.29790  0.83670  Biso   1.000  C
  C55      1.0000 0.34050  0.54920  0.99780  Biso   1.000  C
  H37      1.0000 0.36240  0.52690  0.01670  Biso   1.000  H
  C56      1.0000 0.33320  0.64310  0.99630  Biso   1.000  C
  H38      1.0000 0.35030  0.68140  0.01440  Biso   1.000  H
  C57      1.0000 0.30240  0.67730  0.96960  Biso   1.000  C
  C58      1.0000 0.27610  0.61750  0.94370  Biso   1.000  C
  H39      1.0000 0.25420  0.63890  0.92430  Biso   1.000  H
  C59      1.0000 0.28380  0.52450  0.94800  Biso   1.000  C
  H40      1.0000 0.26550  0.48410  0.93320  Biso   1.000  H
  C60      1.0000 0.38540  0.96670  0.10270  Biso   1.000  C
  H41      1.0000 0.40730  0.93990  0.11960  Biso   1.000  H
  C61      1.0000 0.36100  0.91640  0.07050  Biso   1.000  C
  H42      1.0000 0.36360  0.85420  0.06980  Biso   1.000  H
  C62      1.0000 0.33280  0.95980  0.03940  Biso   1.000  C
  C63      1.0000 0.32600  0.04810  0.04740  Biso   1.000  C
  H43      1.0000 0.30600  0.07830  0.02880  Biso   1.000  H
  C64      1.0000 0.34820  0.09350  0.08250  Biso   1.000  C
  H44      1.0000 0.34260  0.15340  0.08750  Biso   1.000  H
  C65      1.0000 0.17710  0.94050  0.85220  Biso   1.000  C
  H45      1.0000 0.16360  0.91020  0.82760  Biso   1.000  H
  C66      1.0000 0.20360  0.89690  0.87950  Biso   1.000  C
  H46      1.0000 0.20690  0.83560  0.87540  Biso   1.000  H
  C67      1.0000 0.22750  0.94140  0.91570  Biso   1.000  C
  C68      1.0000 0.21910  0.03220  0.91920  Biso   1.000  C
  H47      1.0000 0.23260  0.06550  0.94280  Biso   1.000  H
  C69      1.0000 0.19210  0.07160  0.88940  Biso   1.000  C
  H48      1.0000 0.18950  0.13380  0.89080  Biso   1.000  H
  C70      1.0000 0.29400  0.77550  0.96800  Biso   1.000  C
  C71      1.0000 0.30900  0.90690  0.00280  Biso   1.000  C
  C72      1.0000 0.25800  0.89700  0.94570  Biso   1.000  C
  Zn7      1.0000 0.62700  0.39780  0.31490  Biso   1.000  Zn
  I13      1.0000 0.64830  0.38600  0.24340  Biso   1.000  I
  I14      1.0000 0.61630  0.25220  0.34000  Biso   1.000  I
  Zn8      1.0000 0.33340  0.63510  0.48030  Biso   1.000  Zn
  I15      1.0000 0.27100  0.73780  0.46040  Biso   1.000  I
  I16      1.0000 0.36590  0.67410  0.54220  Biso   1.000  I
  Zn9      1.0000 0.41690  0.87620  0.65820  Biso   1.000  Zn
  I17      1.0000 0.47430  0.84180  0.62460  Biso   1.000  I
  I18      1.0000 0.38710  0.75220  0.69460  Biso   1.000  I
  Zn10     1.0000 0.33020  0.35430  0.98110  Biso   1.000  Zn
  I19      1.0000 0.25910  0.27250  0.94390  Biso   1.000  I
  I20      1.0000 0.38090  0.33820  0.05320  Biso   1.000  I
  Zn11     1.0000 0.42080  0.13200  0.15610  Biso   1.000  Zn
  I21      1.0000 0.47630  0.14410  0.12860  Biso   1.000  I
  I22      1.0000 0.37400  0.22230  0.19420  Biso   1.000  I
  Zn12     1.0000 0.12470  0.10040  0.81720  Biso   1.000  Zn
  I23      1.0000 0.15060  0.07810  0.73720  Biso   1.000  I
  I24      1.0000 0.11070  0.23140  0.84170  Biso   1.000  I
  Zn13     1.0000 0.12600  0.90290  0.31140  Biso   1.000  Zn
  I25      1.0000 0.14790  0.91580  0.23900  Biso   1.000  I
  I26      1.0000 0.10390  0.76310  0.35230  Biso   1.000  I
  Zn14     1.0000 0.82630  0.14000  0.47620  Biso   1.000  Zn
  I27      1.0000 0.76440  0.22250  0.44810  Biso   1.000  I
  I28      1.0000 0.87644  0.15720  0.55327  Biso   1.000  I
  Zn15     1.0000 0.92030  0.37220  0.65610  Biso   1.000  Zn
  I29      1.0000 0.97880  0.35500  0.62060  Biso   1.000  I
  I30      1.0000 0.88090  0.26210  0.69330  Biso   1.000  I
  Zn16     1.0000 0.82730  0.85730  0.97490  Biso   1.000  Zn
  I31      1.0000 0.77042  0.76080  0.95749  Biso   1.000  I
  I32      1.0000 0.87120  0.83200  0.05060  Biso   1.000  I
  Zn17     1.0000 0.91610  0.61410  0.15770  Biso   1.000  Zn
  I33      1.0000 0.97582  0.64900  0.12021  Biso   1.000  I
  I34      1.0000 0.88422  0.73920  0.19310  Biso   1.000  I
  Zn18     1.0000 0.62580  0.58620  0.80790  Biso   1.000  Zn
  I35      1.0000 0.64390  0.60040  0.74280  Biso   1.000  I
  I36      1.0000 0.60500  0.73820  0.85640  Biso   1.000  I
  N25      1.0000 0.08000  0.98690  0.30880  Biso   1.000  N
  N26      1.0000 0.93100  0.51160  0.20150  Biso   1.000  N
  N27      1.0000 0.86080  0.15550  0.42890  Biso   1.000  N
  N28      1.0000 0.97640  0.22580  0.27810  Biso   1.000  N
  N29      1.0000 0.92470  0.27240  0.31110  Biso   1.000  N
  N30      1.0000 0.96150  0.14300  0.33740  Biso   1.000  N
  N31      1.0000 0.81510  0.00230  0.47370  Biso   1.000  N
  N32      1.0000 0.66730  0.46330  0.35850  Biso   1.000  N
  N33      1.0000 0.88010  0.44030  0.60820  Biso   1.000  N
  N34      1.0000 0.76520  0.68490  0.44130  Biso   1.000  N
  N35      1.0000 0.77860  0.54560  0.47880  Biso   1.000  N
  N36      1.0000 0.81790  0.67240  0.50140  Biso   1.000  N
  N37      1.0000 0.93230  0.47830  0.70130  Biso   1.000  N
  N38      1.0000 0.07900  0.00710  0.80930  Biso   1.000  N
  N39      1.0000 0.86030  0.84030  0.93070  Biso   1.000  N
  N40      1.0000 0.97620  0.77110  0.77750  Biso   1.000  N
  N41      1.0000 0.96090  0.85500  0.83640  Biso   1.000  N
  N42      1.0000 0.92510  0.72330  0.81110  Biso   1.000  N
  N43      1.0000 0.81640  0.99270  0.97270  Biso   1.000  N
  N44      1.0000 0.87760  0.55250  0.10950  Biso   1.000  N
  N45      1.0000 0.66840  0.52760  0.85770  Biso   1.000  N
  N46      1.0000 0.81840  0.32010  0.00120  Biso   1.000  N
  N47      1.0000 0.77950  0.44950  0.97830  Biso   1.000  N
  N48      1.0000 0.76480  0.31030  0.94040  Biso   1.000  N
  C73      1.0000 0.06370  0.99640  0.34290  Biso   1.000  C
  H49      1.0000 0.07230  0.95840  0.36670  Biso   1.000  H
  C74      1.0000 0.03490  0.05790  0.34670  Biso   1.000  C
  H50      1.0000 0.02840  0.07160  0.37350  Biso   1.000  H
  C75      1.0000 0.01590  0.09860  0.30660  Biso   1.000  C
  C76      1.0000 0.03220  0.08660  0.27000  Biso   1.000  C
  H51      1.0000 0.02240  0.11640  0.24380  Biso   1.000  H
  C77      1.0000 0.06310  0.02940  0.27390  Biso   1.000  C
  H52      1.0000 0.07300  0.02010  0.24870  Biso   1.000  H
  C78      1.0000 0.96070  0.46080  0.20280  Biso   1.000  C
  H53      1.0000 0.97770  0.47380  0.18430  Biso   1.000  H
  C79      1.0000 0.96820  0.38740  0.23060  Biso   1.000  C
  H54      1.0000 0.99140  0.35600  0.23310  Biso   1.000  H
  C80      1.0000 0.94220  0.36170  0.25360  Biso   1.000  C
  C81      1.0000 0.91130  0.42110  0.25160  Biso   1.000  C
  H55      1.0000 0.89310  0.40990  0.26890  Biso   1.000  H
  C82      1.0000 0.90690  0.49340  0.22580  Biso   1.000  C
  H56      1.0000 0.88580  0.53140  0.22550  Biso   1.000  H
  C83      1.0000 0.89300  0.10700  0.42740  Biso   1.000  C
  H57      1.0000 0.89770  0.05690  0.44540  Biso   1.000  H
  C84      1.0000 0.91740  0.12400  0.40360  Biso   1.000  C
  H58      1.0000 0.94160  0.09640  0.40890  Biso   1.000  H
  C85      1.0000 0.90760  0.18460  0.36980  Biso   1.000  C
  C86      1.0000 0.87490  0.23410  0.36610  Biso   1.000  C
  H59      1.0000 0.86680  0.27550  0.34370  Biso   1.000  H
  C87      1.0000 0.85380  0.21630  0.40060  Biso   1.000  C
  H60      1.0000 0.83290  0.25390  0.40180  Biso   1.000  H
  C88      1.0000 0.98160  0.15830  0.30710  Biso   1.000  C
  C89      1.0000 0.94770  0.28240  0.28280  Biso   1.000  C
  C90      1.0000 0.93160  0.20180  0.33740  Biso   1.000  C
  C91      1.0000 0.84090  0.94470  0.49570  Biso   1.000  C
  H61      1.0000 0.86400  0.96790  0.51180  Biso   1.000  H
  C92      1.0000 0.83570  0.85450  0.49620  Biso   1.000  C
  H62      1.0000 0.85390  0.81710  0.51340  Biso   1.000  H
  C93      1.0000 0.80150  0.81920  0.46940  Biso   1.000  C
  C94      1.0000 0.77740  0.87590  0.44550  Biso   1.000  C
  H63      1.0000 0.75480  0.85520  0.42720  Biso   1.000  H
  C95      1.0000 0.78630  0.96830  0.44800  Biso   1.000  C
  H64      1.0000 0.76970  0.00710  0.42950  Biso   1.000  H
  C96      1.0000 0.67350  0.54840  0.35410  Biso   1.000  C
  H65      1.0000 0.65750  0.57960  0.33150  Biso   1.000  H
  C97      1.0000 0.70450  0.59760  0.38320  Biso   1.000  C
  H66      1.0000 0.70870  0.65850  0.37910  Biso   1.000  H
  C98      1.0000 0.72650  0.55120  0.41590  Biso   1.000  C
  C99      1.0000 0.71900  0.46130  0.42260  Biso   1.000  C
  H67      1.0000 0.73420  0.42940  0.44550  Biso   1.000  H
  C100     1.0000 0.68790  0.41930  0.39380  Biso   1.000  C
  H68      1.0000 0.68150  0.36020  0.39910  Biso   1.000  H
  C101     1.0000 0.85180  0.40050  0.58280  Biso   1.000  C
  H69      1.0000 0.84770  0.33980  0.58740  Biso   1.000  H
  C102     1.0000 0.82680  0.44430  0.54820  Biso   1.000  C
  H70      1.0000 0.80660  0.41340  0.53020  Biso   1.000  H
  C103     1.0000 0.83300  0.53460  0.54170  Biso   1.000  C
  C104     1.0000 0.86410  0.57430  0.56760  Biso   1.000  C
  H71      1.0000 0.87130  0.63290  0.56230  Biso   1.000  H
  C105     1.0000 0.88440  0.52590  0.60170  Biso   1.000  C
  H72      1.0000 0.90290  0.55650  0.62210  Biso   1.000  H
  C106     1.0000 0.79510  0.71900  0.47140  Biso   1.000  C
  C107     1.0000 0.75980  0.59600  0.44770  Biso   1.000  C
  C108     1.0000 0.80820  0.58690  0.50580  Biso   1.000  C
  C109     1.0000 0.90430  0.50530  0.72510  Biso   1.000  C
  H73      1.0000 0.88160  0.47190  0.72220  Biso   1.000  H
  C110     1.0000 0.90900  0.58100  0.75350  Biso   1.000  C
  H74      1.0000 0.89080  0.59630  0.77010  Biso   1.000  H
  C111     1.0000 0.94240  0.63070  0.75480  Biso   1.000  C
  C112     1.0000 0.97020  0.60910  0.72850  Biso   1.000  C
  H75      1.0000 0.99140  0.64620  0.72790  Biso   1.000  H
  C113     1.0000 0.96410  0.53140  0.70410  Biso   1.000  C
  H76      1.0000 0.98300  0.51420  0.68860  Biso   1.000  H
  C114     1.0000 0.06420  0.96100  0.77120  Biso   1.000  C
  H77      1.0000 0.07510  0.96590  0.74640  Biso   1.000  H
  C115     1.0000 0.03140  0.90550  0.77170  Biso   1.000  C
  H78      1.0000 0.02050  0.87380  0.74640  Biso   1.000  H
  C116     1.0000 0.01550  0.89700  0.80710  Biso   1.000  C
  C117     1.0000 0.03160  0.94310  0.84440  Biso   1.000  C
  H79      1.0000 0.01970  0.94280  0.86850  Biso   1.000  H
  C118     1.0000 0.06490  0.98910  0.84560  Biso   1.000  C
  H80      1.0000 0.07870  0.00930  0.87260  Biso   1.000  H
  C119     1.0000 0.84810  0.78310  0.89450  Biso   1.000  C
  H81      1.0000 0.82400  0.75510  0.89010  Biso   1.000  H
  C120     1.0000 0.87170  0.76990  0.86680  Biso   1.000  C
  H82      1.0000 0.86370  0.72810  0.84460  Biso   1.000  H
  C121     1.0000 0.90680  0.81180  0.86760  Biso   1.000  C
  C122     1.0000 0.91390  0.87860  0.89870  Biso   1.000  C
  H83      1.0000 0.93420  0.91870  0.89880  Biso   1.000  H
  C123     1.0000 0.88970  0.88740  0.93200  Biso   1.000  C
  H84      1.0000 0.89660  0.92930  0.95440  Biso   1.000  H
  C124     1.0000 0.94820  0.71470  0.78240  Biso   1.000  C
  C125     1.0000 0.98290  0.83850  0.80690  Biso   1.000  C
  C126     1.0000 0.93290  0.79790  0.83670  Biso   1.000  C
  C127     1.0000 0.84050  0.04920  0.99780  Biso   1.000  C
  H85      1.0000 0.86240  0.02690  0.01670  Biso   1.000  H
  C128     1.0000 0.83320  0.14310  0.99630  Biso   1.000  C
  H86      1.0000 0.85030  0.18140  0.01440  Biso   1.000  H
  C129     1.0000 0.80240  0.17730  0.96960  Biso   1.000  C
  C130     1.0000 0.77610  0.11750  0.94370  Biso   1.000  C
  H87      1.0000 0.75420  0.13890  0.92430  Biso   1.000  H
  C131     1.0000 0.78380  0.02450  0.94800  Biso   1.000  C
  H88      1.0000 0.76550  0.98410  0.93320  Biso   1.000  H
  C132     1.0000 0.88540  0.46670  0.10270  Biso   1.000  C
  H89      1.0000 0.90730  0.43990  0.11960  Biso   1.000  H
  C133     1.0000 0.86100  0.41640  0.07050  Biso   1.000  C
  H90      1.0000 0.86360  0.35420  0.06980  Biso   1.000  H
  C134     1.0000 0.83280  0.45980  0.03940  Biso   1.000  C
  C135     1.0000 0.82600  0.54810  0.04740  Biso   1.000  C
  H91      1.0000 0.80600  0.57830  0.02880  Biso   1.000  H
  C136     1.0000 0.84820  0.59350  0.08250  Biso   1.000  C
  H92      1.0000 0.84260  0.65340  0.08750  Biso   1.000  H
  C137     1.0000 0.67710  0.44050  0.85220  Biso   1.000  C
  H93      1.0000 0.66360  0.41020  0.82760  Biso   1.000  H
  C138     1.0000 0.70360  0.39690  0.87950  Biso   1.000  C
  H94      1.0000 0.70690  0.33560  0.87540  Biso   1.000  H
  C139     1.0000 0.72750  0.44140  0.91570  Biso   1.000  C
  C140     1.0000 0.71910  0.53220  0.91920  Biso   1.000  C
  H95      1.0000 0.73260  0.56550  0.94280  Biso   1.000  H
  C141     1.0000 0.69210  0.57160  0.88940  Biso   1.000  C
  H96      1.0000 0.68950  0.63380  0.89080  Biso   1.000  H
  C142     1.0000 0.79400  0.27550  0.96800  Biso   1.000  C
  C143     1.0000 0.80900  0.40690  0.00280  Biso   1.000  C
  C144     1.0000 0.75800  0.39700  0.94570  Biso   1.000  C
  Zn19     1.0000 0.12700  0.89780  0.31490  Biso   1.000  Zn
  I37      1.0000 0.14830  0.88600  0.24340  Biso   1.000  I
  I38      1.0000 0.11630  0.75220  0.34000  Biso   1.000  I
  Zn20     1.0000 0.83340  0.13510  0.48030  Biso   1.000  Zn
  I39      1.0000 0.77100  0.23780  0.46040  Biso   1.000  I
  I40      1.0000 0.86590  0.17410  0.54220  Biso   1.000  I
  Zn21     1.0000 0.91690  0.37620  0.65820  Biso   1.000  Zn
  I41      1.0000 0.97430  0.34180  0.62460  Biso   1.000  I
  I42      1.0000 0.88710  0.25220  0.69460  Biso   1.000  I
  Zn22     1.0000 0.83020  0.85430  0.98110  Biso   1.000  Zn
  I43      1.0000 0.75910  0.77250  0.94390  Biso   1.000  I
  I44      1.0000 0.88090  0.83820  0.05320  Biso   1.000  I
  Zn23     1.0000 0.92080  0.63200  0.15610  Biso   1.000  Zn
  I45      1.0000 0.97630  0.64410  0.12860  Biso   1.000  I
  I46      1.0000 0.87400  0.72230  0.19420  Biso   1.000  I
  Zn24     1.0000 0.62470  0.60040  0.81720  Biso   1.000  Zn
  I47      1.0000 0.65060  0.57810  0.73720  Biso   1.000  I
  I48      1.0000 0.61070  0.73140  0.84170  Biso   1.000  I
  Zn25     1.0000 0.37400  0.40290  0.68860  Biso   1.000  Zn
  I49      1.0000 0.35210  0.41580  0.76100  Biso   1.000  I
  I50      1.0000 0.39610  0.26310  0.64770  Biso   1.000  I
  Zn26     1.0000 0.67370  0.64000  0.52380  Biso   1.000  Zn
  I51      1.0000 0.73560  0.72250  0.55190  Biso   1.000  I
  I52      1.0000 0.62356  0.65720  0.44673  Biso   1.000  I
  Zn27     1.0000 0.57970  0.87220  0.34390  Biso   1.000  Zn
  I53      1.0000 0.52120  0.85500  0.37940  Biso   1.000  I
  I54      1.0000 0.61910  0.76210  0.30670  Biso   1.000  I
  Zn28     1.0000 0.67270  0.35730  0.02510  Biso   1.000  Zn
  I55      1.0000 0.72958  0.26080  0.04251  Biso   1.000  I
  I56      1.0000 0.62880  0.33200  0.94940  Biso   1.000  I
  Zn29     1.0000 0.58390  0.11410  0.84230  Biso   1.000  Zn
  I57      1.0000 0.52418  0.14900  0.87979  Biso   1.000  I
  I58      1.0000 0.61578  0.23920  0.80690  Biso   1.000  I
  Zn30     1.0000 0.87420  0.08620  0.19210  Biso   1.000  Zn
  I59      1.0000 0.85610  0.10040  0.25720  Biso   1.000  I
  I60      1.0000 0.89500  0.23820  0.14360  Biso   1.000  I
  N49      1.0000 0.42000  0.48690  0.69120  Biso   1.000  N
  N50      1.0000 0.56900  0.01160  0.79850  Biso   1.000  N
  N51      1.0000 0.63920  0.65550  0.57110  Biso   1.000  N
  N52      1.0000 0.52360  0.72580  0.72190  Biso   1.000  N
  N53      1.0000 0.57530  0.77240  0.68890  Biso   1.000  N
  N54      1.0000 0.53850  0.64300  0.66260  Biso   1.000  N
  N55      1.0000 0.68490  0.50230  0.52630  Biso   1.000  N
  N56      1.0000 0.83270  0.96330  0.64150  Biso   1.000  N
  N57      1.0000 0.61990  0.94030  0.39180  Biso   1.000  N
  N58      1.0000 0.73480  0.18490  0.55870  Biso   1.000  N
  N59      1.0000 0.72140  0.04560  0.52120  Biso   1.000  N
  N60      1.0000 0.68210  0.17240  0.49860  Biso   1.000  N
  N61      1.0000 0.56770  0.97830  0.29870  Biso   1.000  N
  N62      1.0000 0.42100  0.50710  0.19070  Biso   1.000  N
  N63      1.0000 0.63970  0.34030  0.06930  Biso   1.000  N
  N64      1.0000 0.52380  0.27110  0.22250  Biso   1.000  N
  N65      1.0000 0.53910  0.35500  0.16360  Biso   1.000  N
  N66      1.0000 0.57490  0.22330  0.18890  Biso   1.000  N
  N67      1.0000 0.68360  0.49270  0.02730  Biso   1.000  N
  N68      1.0000 0.62240  0.05250  0.89050  Biso   1.000  N
  N69      1.0000 0.83160  0.02760  0.14230  Biso   1.000  N
  N70      1.0000 0.68160  0.82010  0.99880  Biso   1.000  N
  N71      1.0000 0.72050  0.94950  0.02170  Biso   1.000  N
  N72      1.0000 0.73520  0.81030  0.05960  Biso   1.000  N
  C145     1.0000 0.43630  0.49640  0.65710  Biso   1.000  C
  H97      1.0000 0.42770  0.45840  0.63330  Biso   1.000  H
  C146     1.0000 0.46510  0.55790  0.65330  Biso   1.000  C
  H98      1.0000 0.47160  0.57160  0.62650  Biso   1.000  H
  C147     1.0000 0.48410  0.59860  0.69340  Biso   1.000  C
  C148     1.0000 0.46780  0.58660  0.73000  Biso   1.000  C
  H99      1.0000 0.47760  0.61640  0.75620  Biso   1.000  H
  C149     1.0000 0.43690  0.52940  0.72610  Biso   1.000  C
  H100     1.0000 0.42700  0.52010  0.75130  Biso   1.000  H
  C150     1.0000 0.53930  0.96080  0.79720  Biso   1.000  C
  H101     1.0000 0.52230  0.97380  0.81570  Biso   1.000  H
  C151     1.0000 0.53180  0.88740  0.76940  Biso   1.000  C
  H102     1.0000 0.50860  0.85600  0.76690  Biso   1.000  H
  C152     1.0000 0.55780  0.86170  0.74640  Biso   1.000  C
  C153     1.0000 0.58870  0.92110  0.74840  Biso   1.000  C
  H103     1.0000 0.60690  0.90990  0.73110  Biso   1.000  H
  C154     1.0000 0.59310  0.99340  0.77420  Biso   1.000  C
  H104     1.0000 0.61420  0.03140  0.77450  Biso   1.000  H
  C155     1.0000 0.60700  0.60700  0.57260  Biso   1.000  C
  H105     1.0000 0.60230  0.55690  0.55460  Biso   1.000  H
  C156     1.0000 0.58260  0.62400  0.59640  Biso   1.000  C
  H106     1.0000 0.55840  0.59640  0.59110  Biso   1.000  H
  C157     1.0000 0.59240  0.68460  0.63020  Biso   1.000  C
  C158     1.0000 0.62510  0.73410  0.63390  Biso   1.000  C
  H107     1.0000 0.63320  0.77550  0.65630  Biso   1.000  H
  C159     1.0000 0.64620  0.71630  0.59940  Biso   1.000  C
  H108     1.0000 0.66710  0.75390  0.59820  Biso   1.000  H
  C160     1.0000 0.51840  0.65830  0.69290  Biso   1.000  C
  C161     1.0000 0.55230  0.78240  0.71720  Biso   1.000  C
  C162     1.0000 0.56840  0.70180  0.66260  Biso   1.000  C
  C163     1.0000 0.65910  0.44470  0.50430  Biso   1.000  C
  H109     1.0000 0.63600  0.46790  0.48820  Biso   1.000  H
  C164     1.0000 0.66430  0.35450  0.50380  Biso   1.000  C
  H110     1.0000 0.64610  0.31710  0.48660  Biso   1.000  H
  C165     1.0000 0.69850  0.31920  0.53060  Biso   1.000  C
  C166     1.0000 0.72260  0.37590  0.55450  Biso   1.000  C
  H111     1.0000 0.74520  0.35520  0.57280  Biso   1.000  H
  C167     1.0000 0.71370  0.46830  0.55200  Biso   1.000  C
  H112     1.0000 0.73030  0.50710  0.57050  Biso   1.000  H
  C168     1.0000 0.82650  0.04840  0.64590  Biso   1.000  C
  H113     1.0000 0.84250  0.07960  0.66850  Biso   1.000  H
  C169     1.0000 0.79550  0.09760  0.61680  Biso   1.000  C
  H114     1.0000 0.79130  0.15850  0.62090  Biso   1.000  H
  C170     1.0000 0.77350  0.05120  0.58410  Biso   1.000  C
  C171     1.0000 0.78100  0.96130  0.57740  Biso   1.000  C
  H115     1.0000 0.76580  0.92940  0.55450  Biso   1.000  H
  C172     1.0000 0.81210  0.91930  0.60620  Biso   1.000  C
  H116     1.0000 0.81850  0.86020  0.60090  Biso   1.000  H
  C173     1.0000 0.64820  0.90050  0.41720  Biso   1.000  C
  H117     1.0000 0.65230  0.83980  0.41260  Biso   1.000  H
  C174     1.0000 0.67320  0.94430  0.45180  Biso   1.000  C
  H118     1.0000 0.69340  0.91340  0.46980  Biso   1.000  H
  C175     1.0000 0.66700  0.03460  0.45830  Biso   1.000  C
  C176     1.0000 0.63590  0.07430  0.43240  Biso   1.000  C
  H119     1.0000 0.62870  0.13290  0.43770  Biso   1.000  H
  C177     1.0000 0.61560  0.02590  0.39830  Biso   1.000  C
  H120     1.0000 0.59710  0.05650  0.37790  Biso   1.000  H
  C178     1.0000 0.70490  0.21900  0.52860  Biso   1.000  C
  C179     1.0000 0.74020  0.09600  0.55230  Biso   1.000  C
  C180     1.0000 0.69180  0.08690  0.49420  Biso   1.000  C
  C181     1.0000 0.59570  0.00530  0.27490  Biso   1.000  C
  H121     1.0000 0.61840  0.97190  0.27780  Biso   1.000  H
  C182     1.0000 0.59100  0.08100  0.24650  Biso   1.000  C
  H122     1.0000 0.60920  0.09630  0.22990  Biso   1.000  H
  C183     1.0000 0.55760  0.13070  0.24520  Biso   1.000  C
  C184     1.0000 0.52980  0.10910  0.27150  Biso   1.000  C
  H123     1.0000 0.50860  0.14620  0.27210  Biso   1.000  H
  C185     1.0000 0.53590  0.03140  0.29590  Biso   1.000  C
  H124     1.0000 0.51700  0.01420  0.31140  Biso   1.000  H
  C186     1.0000 0.43580  0.46100  0.22880  Biso   1.000  C
  H125     1.0000 0.42490  0.46590  0.25360  Biso   1.000  H
  C187     1.0000 0.46860  0.40550  0.22830  Biso   1.000  C
  H126     1.0000 0.47950  0.37380  0.25360  Biso   1.000  H
  C188     1.0000 0.48450  0.39700  0.19290  Biso   1.000  C
  C189     1.0000 0.46840  0.44310  0.15560  Biso   1.000  C
  H127     1.0000 0.48030  0.44280  0.13150  Biso   1.000  H
  C190     1.0000 0.43510  0.48910  0.15440  Biso   1.000  C
  H128     1.0000 0.42130  0.50930  0.12740  Biso   1.000  H
  C191     1.0000 0.65190  0.28310  0.10550  Biso   1.000  C
  H129     1.0000 0.67600  0.25510  0.10990  Biso   1.000  H
  C192     1.0000 0.62830  0.26990  0.13320  Biso   1.000  C
  H130     1.0000 0.63630  0.22810  0.15540  Biso   1.000  H
  C193     1.0000 0.59320  0.31180  0.13240  Biso   1.000  C
  C194     1.0000 0.58610  0.37860  0.10130  Biso   1.000  C
  H131     1.0000 0.56580  0.41870  0.10120  Biso   1.000  H
  C195     1.0000 0.61030  0.38740  0.06800  Biso   1.000  C
  H132     1.0000 0.60340  0.42930  0.04560  Biso   1.000  H
  C196     1.0000 0.55180  0.21470  0.21760  Biso   1.000  C
  C197     1.0000 0.51710  0.33850  0.19310  Biso   1.000  C
  C198     1.0000 0.56710  0.29790  0.16330  Biso   1.000  C
  C199     1.0000 0.65950  0.54920  0.00220  Biso   1.000  C
  H133     1.0000 0.63760  0.52690  0.98330  Biso   1.000  H
  C200     1.0000 0.66680  0.64310  0.00370  Biso   1.000  C
  H134     1.0000 0.64970  0.68140  0.98560  Biso   1.000  H
  C201     1.0000 0.69760  0.67730  0.03040  Biso   1.000  C
  C202     1.0000 0.72390  0.61750  0.05630  Biso   1.000  C
  H135     1.0000 0.74580  0.63890  0.07570  Biso   1.000  H
  C203     1.0000 0.71620  0.52450  0.05200  Biso   1.000  C
  H136     1.0000 0.73450  0.48410  0.06680  Biso   1.000  H
  C204     1.0000 0.61460  0.96670  0.89730  Biso   1.000  C
  H137     1.0000 0.59270  0.93990  0.88040  Biso   1.000  H
  C205     1.0000 0.63900  0.91640  0.92950  Biso   1.000  C
  H138     1.0000 0.63640  0.85420  0.93020  Biso   1.000  H
  C206     1.0000 0.66720  0.95980  0.96060  Biso   1.000  C
  C207     1.0000 0.67400  0.04810  0.95260  Biso   1.000  C
  H139     1.0000 0.69400  0.07830  0.97120  Biso   1.000  H
  C208     1.0000 0.65180  0.09350  0.91750  Biso   1.000  C
  H140     1.0000 0.65740  0.15340  0.91250  Biso   1.000  H
  C209     1.0000 0.82290  0.94050  0.14780  Biso   1.000  C
  H141     1.0000 0.83640  0.91020  0.17240  Biso   1.000  H
  C210     1.0000 0.79640  0.89690  0.12050  Biso   1.000  C
  H142     1.0000 0.79310  0.83560  0.12460  Biso   1.000  H
  C211     1.0000 0.77250  0.94140  0.08430  Biso   1.000  C
  C212     1.0000 0.78090  0.03220  0.08080  Biso   1.000  C
  H143     1.0000 0.76740  0.06550  0.05720  Biso   1.000  H
  C213     1.0000 0.80790  0.07160  0.11060  Biso   1.000  C
  H144     1.0000 0.81050  0.13380  0.10920  Biso   1.000  H
  C214     1.0000 0.70600  0.77550  0.03200  Biso   1.000  C
  C215     1.0000 0.69100  0.90690  0.99720  Biso   1.000  C
  C216     1.0000 0.74200  0.89700  0.05430  Biso   1.000  C
  Zn31     1.0000 0.37300  0.39780  0.68510  Biso   1.000  Zn
  I61      1.0000 0.35170  0.38600  0.75660  Biso   1.000  I
  I62      1.0000 0.38370  0.25220  0.66000  Biso   1.000  I
  Zn32     1.0000 0.66660  0.63510  0.51970  Biso   1.000  Zn
  I63      1.0000 0.72900  0.73780  0.53960  Biso   1.000  I
  I64      1.0000 0.63410  0.67410  0.45780  Biso   1.000  I
  Zn33     1.0000 0.58310  0.87620  0.34180  Biso   1.000  Zn
  I65      1.0000 0.52570  0.84180  0.37540  Biso   1.000  I
  I66      1.0000 0.61290  0.75220  0.30540  Biso   1.000  I
  Zn34     1.0000 0.66980  0.35430  0.01890  Biso   1.000  Zn
  I67      1.0000 0.74090  0.27250  0.05610  Biso   1.000  I
  I68      1.0000 0.61910  0.33820  0.94680  Biso   1.000  I
  Zn35     1.0000 0.57920  0.13200  0.84390  Biso   1.000  Zn
  I69      1.0000 0.52370  0.14410  0.87140  Biso   1.000  I
  I70      1.0000 0.62600  0.22230  0.80580  Biso   1.000  I
  Zn36     1.0000 0.87530  0.10040  0.18280  Biso   1.000  Zn
  I71      1.0000 0.84940  0.07810  0.26280  Biso   1.000  I
  I72      1.0000 0.88930  0.23140  0.15830  Biso   1.000  I
  Zn37     1.0000 0.87400  0.90290  0.68860  Biso   1.000  Zn
  I73      1.0000 0.85210  0.91580  0.76100  Biso   1.000  I
  I74      1.0000 0.89610  0.76310  0.64770  Biso   1.000  I
  Zn38     1.0000 0.17370  0.14000  0.52380  Biso   1.000  Zn
  I75      1.0000 0.23560  0.22250  0.55190  Biso   1.000  I
  I76      1.0000 0.12356  0.15720  0.44673  Biso   1.000  I
  Zn39     1.0000 0.07970  0.37220  0.34390  Biso   1.000  Zn
  I77      1.0000 0.02120  0.35500  0.37940  Biso   1.000  I
  I78      1.0000 0.11910  0.26210  0.30670  Biso   1.000  I
  Zn40     1.0000 0.17270  0.85730  0.02510  Biso   1.000  Zn
  I79      1.0000 0.22958  0.76080  0.04251  Biso   1.000  I
  I80      1.0000 0.12880  0.83200  0.94940  Biso   1.000  I
  Zn41     1.0000 0.08390  0.61410  0.84230  Biso   1.000  Zn
  I81      1.0000 0.02418  0.64900  0.87979  Biso   1.000  I
  I82      1.0000 0.11578  0.73920  0.80690  Biso   1.000  I
  Zn42     1.0000 0.37420  0.58620  0.19210  Biso   1.000  Zn
  I83      1.0000 0.35610  0.60040  0.25720  Biso   1.000  I
  I84      1.0000 0.39500  0.73820  0.14360  Biso   1.000  I
  N73      1.0000 0.92000  0.98690  0.69120  Biso   1.000  N
  N74      1.0000 0.06900  0.51160  0.79850  Biso   1.000  N
  N75      1.0000 0.13920  0.15550  0.57110  Biso   1.000  N
  N76      1.0000 0.02360  0.22580  0.72190  Biso   1.000  N
  N77      1.0000 0.07530  0.27240  0.68890  Biso   1.000  N
  N78      1.0000 0.03850  0.14300  0.66260  Biso   1.000  N
  N79      1.0000 0.18490  0.00230  0.52630  Biso   1.000  N
  N80      1.0000 0.33270  0.46330  0.64150  Biso   1.000  N
  N81      1.0000 0.11990  0.44030  0.39180  Biso   1.000  N
  N82      1.0000 0.23480  0.68490  0.55870  Biso   1.000  N
  N83      1.0000 0.22140  0.54560  0.52120  Biso   1.000  N
  N84      1.0000 0.18210  0.67240  0.49860  Biso   1.000  N
  N85      1.0000 0.06770  0.47830  0.29870  Biso   1.000  N
  N86      1.0000 0.92100  0.00710  0.19070  Biso   1.000  N
  N87      1.0000 0.13970  0.84030  0.06930  Biso   1.000  N
  N88      1.0000 0.02380  0.77110  0.22250  Biso   1.000  N
  N89      1.0000 0.03910  0.85500  0.16360  Biso   1.000  N
  N90      1.0000 0.07490  0.72330  0.18890  Biso   1.000  N
  N91      1.0000 0.18360  0.99270  0.02730  Biso   1.000  N
  N92      1.0000 0.12240  0.55250  0.89050  Biso   1.000  N
  N93      1.0000 0.33160  0.52760  0.14230  Biso   1.000  N
  N94      1.0000 0.18160  0.32010  0.99880  Biso   1.000  N
  N95      1.0000 0.22050  0.44950  0.02170  Biso   1.000  N
  N96      1.0000 0.23520  0.31030  0.05960  Biso   1.000  N
  C217     1.0000 0.93630  0.99640  0.65710  Biso   1.000  C
  H145     1.0000 0.92770  0.95840  0.63330  Biso   1.000  H
  C218     1.0000 0.96510  0.05790  0.65330  Biso   1.000  C
  H146     1.0000 0.97160  0.07160  0.62650  Biso   1.000  H
  C219     1.0000 0.98410  0.09860  0.69340  Biso   1.000  C
  C220     1.0000 0.96780  0.08660  0.73000  Biso   1.000  C
  H147     1.0000 0.97760  0.11640  0.75620  Biso   1.000  H
  C221     1.0000 0.93690  0.02940  0.72610  Biso   1.000  C
  H148     1.0000 0.92700  0.02010  0.75130  Biso   1.000  H
  C222     1.0000 0.03930  0.46080  0.79720  Biso   1.000  C
  H149     1.0000 0.02230  0.47380  0.81570  Biso   1.000  H
  C223     1.0000 0.03180  0.38740  0.76940  Biso   1.000  C
  H150     1.0000 0.00860  0.35600  0.76690  Biso   1.000  H
  C224     1.0000 0.05780  0.36170  0.74640  Biso   1.000  C
  C225     1.0000 0.08870  0.42110  0.74840  Biso   1.000  C
  H151     1.0000 0.10690  0.40990  0.73110  Biso   1.000  H
  C226     1.0000 0.09310  0.49340  0.77420  Biso   1.000  C
  H152     1.0000 0.11420  0.53140  0.77450  Biso   1.000  H
  C227     1.0000 0.10700  0.10700  0.57260  Biso   1.000  C
  H153     1.0000 0.10230  0.05690  0.55460  Biso   1.000  H
  C228     1.0000 0.08260  0.12400  0.59640  Biso   1.000  C
  H154     1.0000 0.05840  0.09640  0.59110  Biso   1.000  H
  C229     1.0000 0.09240  0.18460  0.63020  Biso   1.000  C
  C230     1.0000 0.12510  0.23410  0.63390  Biso   1.000  C
  H155     1.0000 0.13320  0.27550  0.65630  Biso   1.000  H
  C231     1.0000 0.14620  0.21630  0.59940  Biso   1.000  C
  H156     1.0000 0.16710  0.25390  0.59820  Biso   1.000  H
  C232     1.0000 0.01840  0.15830  0.69290  Biso   1.000  C
  C233     1.0000 0.05230  0.28240  0.71720  Biso   1.000  C
  C234     1.0000 0.06840  0.20180  0.66260  Biso   1.000  C
  C235     1.0000 0.15910  0.94470  0.50430  Biso   1.000  C
  H157     1.0000 0.13600  0.96790  0.48820  Biso   1.000  H
  C236     1.0000 0.16430  0.85450  0.50380  Biso   1.000  C
  H158     1.0000 0.14610  0.81710  0.48660  Biso   1.000  H
  C237     1.0000 0.19850  0.81920  0.53060  Biso   1.000  C
  C238     1.0000 0.22260  0.87590  0.55450  Biso   1.000  C
  H159     1.0000 0.24520  0.85520  0.57280  Biso   1.000  H
  C239     1.0000 0.21370  0.96830  0.55200  Biso   1.000  C
  H160     1.0000 0.23030  0.00710  0.57050  Biso   1.000  H
  C240     1.0000 0.32650  0.54840  0.64590  Biso   1.000  C
  H161     1.0000 0.34250  0.57960  0.66850  Biso   1.000  H
  C241     1.0000 0.29550  0.59760  0.61680  Biso   1.000  C
  H162     1.0000 0.29130  0.65850  0.62090  Biso   1.000  H
  C242     1.0000 0.27350  0.55120  0.58410  Biso   1.000  C
  C243     1.0000 0.28100  0.46130  0.57740  Biso   1.000  C
  H163     1.0000 0.26580  0.42940  0.55450  Biso   1.000  H
  C244     1.0000 0.31210  0.41930  0.60620  Biso   1.000  C
  H164     1.0000 0.31850  0.36020  0.60090  Biso   1.000  H
  C245     1.0000 0.14820  0.40050  0.41720  Biso   1.000  C
  H165     1.0000 0.15230  0.33980  0.41260  Biso   1.000  H
  C246     1.0000 0.17320  0.44430  0.45180  Biso   1.000  C
  H166     1.0000 0.19340  0.41340  0.46980  Biso   1.000  H
  C247     1.0000 0.16700  0.53460  0.45830  Biso   1.000  C
  C248     1.0000 0.13590  0.57430  0.43240  Biso   1.000  C
  H167     1.0000 0.12870  0.63290  0.43770  Biso   1.000  H
  C249     1.0000 0.11560  0.52590  0.39830  Biso   1.000  C
  H168     1.0000 0.09710  0.55650  0.37790  Biso   1.000  H
  C250     1.0000 0.20490  0.71900  0.52860  Biso   1.000  C
  C251     1.0000 0.24020  0.59600  0.55230  Biso   1.000  C
  C252     1.0000 0.19180  0.58690  0.49420  Biso   1.000  C
  C253     1.0000 0.09570  0.50530  0.27490  Biso   1.000  C
  H169     1.0000 0.11840  0.47190  0.27780  Biso   1.000  H
  C254     1.0000 0.09100  0.58100  0.24650  Biso   1.000  C
  H170     1.0000 0.10920  0.59630  0.22990  Biso   1.000  H
  C255     1.0000 0.05760  0.63070  0.24520  Biso   1.000  C
  C256     1.0000 0.02980  0.60910  0.27150  Biso   1.000  C
  H171     1.0000 0.00860  0.64620  0.27210  Biso   1.000  H
  C257     1.0000 0.03590  0.53140  0.29590  Biso   1.000  C
  H172     1.0000 0.01700  0.51420  0.31140  Biso   1.000  H
  C258     1.0000 0.93580  0.96100  0.22880  Biso   1.000  C
  H173     1.0000 0.92490  0.96590  0.25360  Biso   1.000  H
  C259     1.0000 0.96860  0.90550  0.22830  Biso   1.000  C
  H174     1.0000 0.97950  0.87380  0.25360  Biso   1.000  H
  C260     1.0000 0.98450  0.89700  0.19290  Biso   1.000  C
  C261     1.0000 0.96840  0.94310  0.15560  Biso   1.000  C
  H175     1.0000 0.98030  0.94280  0.13150  Biso   1.000  H
  C262     1.0000 0.93510  0.98910  0.15440  Biso   1.000  C
  H176     1.0000 0.92130  0.00930  0.12740  Biso   1.000  H
  C263     1.0000 0.15190  0.78310  0.10550  Biso   1.000  C
  H177     1.0000 0.17600  0.75510  0.10990  Biso   1.000  H
  C264     1.0000 0.12830  0.76990  0.13320  Biso   1.000  C
  H178     1.0000 0.13630  0.72810  0.15540  Biso   1.000  H
  C265     1.0000 0.09320  0.81180  0.13240  Biso   1.000  C
  C266     1.0000 0.08610  0.87860  0.10130  Biso   1.000  C
  H179     1.0000 0.06580  0.91870  0.10120  Biso   1.000  H
  C267     1.0000 0.11030  0.88740  0.06800  Biso   1.000  C
  H180     1.0000 0.10340  0.92930  0.04560  Biso   1.000  H
  C268     1.0000 0.05180  0.71470  0.21760  Biso   1.000  C
  C269     1.0000 0.01710  0.83850  0.19310  Biso   1.000  C
  C270     1.0000 0.06710  0.79790  0.16330  Biso   1.000  C
  C271     1.0000 0.15950  0.04920  0.00220  Biso   1.000  C
  H181     1.0000 0.13760  0.02690  0.98330  Biso   1.000  H
  C272     1.0000 0.16680  0.14310  0.00370  Biso   1.000  C
  H182     1.0000 0.14970  0.18140  0.98560  Biso   1.000  H
  C273     1.0000 0.19760  0.17730  0.03040  Biso   1.000  C
  C274     1.0000 0.22390  0.11750  0.05630  Biso   1.000  C
  H183     1.0000 0.24580  0.13890  0.07570  Biso   1.000  H
  C275     1.0000 0.21620  0.02450  0.05200  Biso   1.000  C
  H184     1.0000 0.23450  0.98410  0.06680  Biso   1.000  H
  C276     1.0000 0.11460  0.46670  0.89730  Biso   1.000  C
  H185     1.0000 0.09270  0.43990  0.88040  Biso   1.000  H
  C277     1.0000 0.13900  0.41640  0.92950  Biso   1.000  C
  H186     1.0000 0.13640  0.35420  0.93020  Biso   1.000  H
  C278     1.0000 0.16720  0.45980  0.96060  Biso   1.000  C
  C279     1.0000 0.17400  0.54810  0.95260  Biso   1.000  C
  H187     1.0000 0.19400  0.57830  0.97120  Biso   1.000  H
  C280     1.0000 0.15180  0.59350  0.91750  Biso   1.000  C
  H188     1.0000 0.15740  0.65340  0.91250  Biso   1.000  H
  C281     1.0000 0.32290  0.44050  0.14780  Biso   1.000  C
  H189     1.0000 0.33640  0.41020  0.17240  Biso   1.000  H
  C282     1.0000 0.29640  0.39690  0.12050  Biso   1.000  C
  H190     1.0000 0.29310  0.33560  0.12460  Biso   1.000  H
  C283     1.0000 0.27250  0.44140  0.08430  Biso   1.000  C
  C284     1.0000 0.28090  0.53220  0.08080  Biso   1.000  C
  H191     1.0000 0.26740  0.56550  0.05720  Biso   1.000  H
  C285     1.0000 0.30790  0.57160  0.11060  Biso   1.000  C
  H192     1.0000 0.31050  0.63380  0.10920  Biso   1.000  H
  C286     1.0000 0.20600  0.27550  0.03200  Biso   1.000  C
  C287     1.0000 0.19100  0.40690  0.99720  Biso   1.000  C
  C288     1.0000 0.24200  0.39700  0.05430  Biso   1.000  C
  Zn43     1.0000 0.87300  0.89780  0.68510  Biso   1.000  Zn
  I85      1.0000 0.85170  0.88600  0.75660  Biso   1.000  I
  I86      1.0000 0.88370  0.75220  0.66000  Biso   1.000  I
  Zn44     1.0000 0.16660  0.13510  0.51970  Biso   1.000  Zn
  I87      1.0000 0.22900  0.23780  0.53960  Biso   1.000  I
  I88      1.0000 0.13410  0.17410  0.45780  Biso   1.000  I
  Zn45     1.0000 0.08310  0.37620  0.34180  Biso   1.000  Zn
  I89      1.0000 0.02570  0.34180  0.37540  Biso   1.000  I
  I90      1.0000 0.11290  0.25220  0.30540  Biso   1.000  I
  Zn46     1.0000 0.16980  0.85430  0.01890  Biso   1.000  Zn
  I91      1.0000 0.24090  0.77250  0.05610  Biso   1.000  I
  I92      1.0000 0.11910  0.83820  0.94680  Biso   1.000  I
  Zn47     1.0000 0.07920  0.63200  0.84390  Biso   1.000  Zn
  I93      1.0000 0.02370  0.64410  0.87140  Biso   1.000  I
  I94      1.0000 0.12600  0.72230  0.80580  Biso   1.000  I
  Zn48     1.0000 0.37530  0.60040  0.18280  Biso   1.000  Zn
  I95      1.0000 0.34940  0.57810  0.26280  Biso   1.000  I
  I96      1.0000 0.38930  0.73140  0.15830  Biso   1.000  I
  C289     1.0000 0.43100  0.20800  0.33300  Biso   1.000  C
  H193     1.0000 0.45350  0.22140  0.35640  Biso   1.000  H
  H194     1.0000 0.43110  0.25100  0.30960  Biso   1.000  H
  C290     1.0000 0.43650  0.11200  0.31530  Biso   1.000  C
  H195     1.0000 0.41750  0.10270  0.28840  Biso   1.000  H
  H196     1.0000 0.46210  0.10690  0.30850  Biso   1.000  H
  C291     1.0000 0.43200  0.03900  0.34800  Biso   1.000  C
  H197     1.0000 0.45520  0.03590  0.37080  Biso   1.000  H
  H198     1.0000 0.42830  0.98150  0.33330  Biso   1.000  H
  C292     1.0000 0.39700  0.05600  0.37000  Biso   1.000  C
  H199     1.0000 0.39710  0.01100  0.39260  Biso   1.000  H
  H200     1.0000 0.37330  0.04980  0.34830  Biso   1.000  H
  C293     1.0000 0.39900  0.15100  0.39100  Biso   1.000  C
  H201     1.0000 0.42320  0.16070  0.41100  Biso   1.000  H
  H202     1.0000 0.37770  0.15860  0.40670  Biso   1.000  H
  C294     1.0000 0.39400  0.21700  0.35100  Biso   1.000  C
  H203     1.0000 0.37140  0.20040  0.32840  Biso   1.000  H
  H204     1.0000 0.39050  0.27830  0.36000  Biso   1.000  H
  C295     1.0000 0.24700  0.72100  0.18400  Biso   1.000  C
  H205     1.0000 0.24110  0.69630  0.15460  Biso   1.000  H
  H206     1.0000 0.23710  0.68100  0.20380  Biso   1.000  H
  C296     1.0000 0.29170  0.73500  0.20000  Biso   1.000  C
  H207     1.0000 0.29730  0.76120  0.22880  Biso   1.000  H
  H208     1.0000 0.30500  0.67730  0.20080  Biso   1.000  H
  C297     1.0000 0.30520  0.79700  0.16700  Biso   1.000  C
  H209     1.0000 0.33320  0.80340  0.17480  Biso   1.000  H
  H210     1.0000 0.29910  0.76940  0.13790  Biso   1.000  H
  C298     1.0000 0.28700  0.89100  0.16400  Biso   1.000  C
  H211     1.0000 0.29620  0.92690  0.14190  Biso   1.000  H
  H212     1.0000 0.29350  0.92130  0.19180  Biso   1.000  H
  C299     1.0000 0.24220  0.87600  0.15000  Biso   1.000  C
  H213     1.0000 0.22870  0.93340  0.14810  Biso   1.000  H
  H214     1.0000 0.23570  0.84690  0.12150  Biso   1.000  H
  C300     1.0000 0.23000  0.81700  0.18500  Biso   1.000  C
  H215     1.0000 0.20190  0.81310  0.17990  Biso   1.000  H
  H216     1.0000 0.23910  0.84320  0.21390  Biso   1.000  H
  Cl1      1.0000 0.54370  0.40000  0.64840  Biso   1.000  Cl
  C301     1.0000 0.50400  0.37200  0.60600  Biso   1.000  C
  H217     1.0000 0.50470  0.30730  0.60210  Biso   1.000  H
  H218     1.0000 0.48060  0.38480  0.61720  Biso   1.000  H
  Cl2      1.0000 0.46100  0.48600  0.53560  Biso   1.000  Cl
  C302     1.0000 0.49800  0.41400  0.56000  Biso   1.000  C
  H219     1.0000 0.49750  0.36430  0.54000  Biso   1.000  H
  H220     1.0000 0.52200  0.44680  0.55960  Biso   1.000  H
  H221     1.0000 0.45630  0.89190  0.47890  Biso   1.000  H
  C303     1.0000 0.39870  0.89500  0.48560  Biso   1.000  C
  H222     1.0000 0.40800  0.93650  0.50980  Biso   1.000  H
  H223     1.0000 0.38840  0.84210  0.49710  Biso   1.000  H
  C304     1.0000 0.36710  0.94200  0.45000  Biso   1.000  C
  H224     1.0000 0.36450  0.91110  0.42190  Biso   1.000  H
  H225     1.0000 0.34210  0.94140  0.45860  Biso   1.000  H
  C305     1.0000 0.38200  0.03900  0.44700  Biso   1.000  C
  H226     1.0000 0.36330  0.07640  0.42800  Biso   1.000  H
  H227     1.0000 0.38900  0.06680  0.47590  Biso   1.000  H
  C306     1.0000 0.41800  0.02100  0.42700  Biso   1.000  C
  H228     1.0000 0.44140  0.03970  0.44790  Biso   1.000  H
  H229     1.0000 0.41650  0.05540  0.40050  Biso   1.000  H
  C307     1.0000 0.42000  0.91900  0.41800  Biso   1.000  C
  H230     1.0000 0.43900  0.90770  0.39990  Biso   1.000  H
  H231     1.0000 0.39480  0.89820  0.40200  Biso   1.000  H
  C308     1.0000 0.46100  0.11500  0.37980  Biso   1.000  C
  H232     1.0000 0.45140  0.16890  0.39170  Biso   1.000  H
  H233     1.0000 0.44940  0.06300  0.39080  Biso   1.000  H
  C309     1.0000 0.50590  0.11100  0.39400  Biso   1.000  C
  H234     1.0000 0.51510  0.04900  0.39420  Biso   1.000  H
  H235     1.0000 0.51480  0.13700  0.42270  Biso   1.000  H
  C310     1.0000 0.51970  0.16700  0.35800  Biso   1.000  C
  H236     1.0000 0.51860  0.13030  0.33180  Biso   1.000  H
  H237     1.0000 0.54640  0.18560  0.36830  Biso   1.000  H
  C311     1.0000 0.49300  0.25100  0.34700  Biso   1.000  C
  H238     1.0000 0.48610  0.27500  0.37280  Biso   1.000  H
  H239     1.0000 0.50630  0.29730  0.33320  Biso   1.000  H
  C312     1.0000 0.45700  0.21700  0.31400  Biso   1.000  C
  H240     1.0000 0.46100  0.21780  0.28400  Biso   1.000  H
  H241     1.0000 0.43440  0.25350  0.31540  Biso   1.000  H
  C313     1.0000 0.45050  0.11700  0.32850  Biso   1.000  C
  H242     1.0000 0.42370  0.09910  0.31810  Biso   1.000  H
  H243     1.0000 0.46700  0.07600  0.31640  Biso   1.000  H
  C314     1.0000 0.26940  0.96400  0.31200  Biso   1.000  C
  H244     1.0000 0.26560  0.02820  0.31620  Biso   1.000  H
  H245     1.0000 0.24490  0.93850  0.29720  Biso   1.000  H
  C315     1.0000 0.28500  0.91700  0.35600  Biso   1.000  C
  H246     1.0000 0.26420  0.91640  0.37300  Biso   1.000  H
  H247     1.0000 0.29120  0.85540  0.35090  Biso   1.000  H
  C316     1.0000 0.32000  0.96500  0.38290  Biso   1.000  C
  H248     1.0000 0.33220  0.92890  0.40800  Biso   1.000  H
  H249     1.0000 0.31310  0.02290  0.39350  Biso   1.000  H
  C317     1.0000 0.34900  0.97800  0.35200  Biso   1.000  C
  H250     1.0000 0.37000  0.01690  0.36620  Biso   1.000  H
  H251     1.0000 0.36020  0.92040  0.34710  Biso   1.000  H
  C318     1.0000 0.33200  0.01900  0.30600  Biso   1.000  C
  H252     1.0000 0.35170  0.02830  0.28940  Biso   1.000  H
  H253     1.0000 0.31950  0.07690  0.30950  Biso   1.000  H
  C319     1.0000 0.30100  0.95000  0.28300  Biso   1.000  C
  H254     1.0000 0.31120  0.88880  0.28600  Biso   1.000  H
  H255     1.0000 0.29140  0.96410  0.25270  Biso   1.000  H
  C320     1.0000 0.26300  0.82600  0.19300  Biso   1.000  C
  H256     1.0000 0.27020  0.78320  0.17240  Biso   1.000  H
  H257     1.0000 0.25100  0.79370  0.21350  Biso   1.000  H
  C321     1.0000 0.23480  0.89600  0.16800  Biso   1.000  C
  H258     1.0000 0.21260  0.90150  0.18190  Biso   1.000  H
  H259     1.0000 0.22560  0.87590  0.13800  Biso   1.000  H
  C322     1.0000 0.25450  0.99000  0.16800  Biso   1.000  C
  H260     1.0000 0.23780  0.02790  0.14650  Biso   1.000  H
  H261     1.0000 0.25680  0.01700  0.19630  Biso   1.000  H
  C323     1.0000 0.29460  0.98600  0.15610  Biso   1.000  C
  H262     1.0000 0.29200  0.97930  0.12460  Biso   1.000  H
  H263     1.0000 0.30830  0.04230  0.16470  Biso   1.000  H
  C324     1.0000 0.31780  0.90800  0.18000  Biso   1.000  C
  H264     1.0000 0.34440  0.92720  0.19040  Biso   1.000  H
  H265     1.0000 0.31800  0.85930  0.15900  Biso   1.000  H
  C325     1.0000 0.30100  0.87400  0.21800  Biso   1.000  C
  H266     1.0000 0.29440  0.92360  0.23620  Biso   1.000  H
  H267     1.0000 0.31790  0.83260  0.23680  Biso   1.000  H
  C326     1.0000 0.42700  0.38900  0.51200  Biso   1.000  C
  H268     1.0000 0.43790  0.44880  0.51300  Biso   1.000  H
  H269     1.0000 0.39940  0.39560  0.51250  Biso   1.000  H
  C327     1.0000 0.44600  0.33800  0.55200  Biso   1.000  C
  H270     1.0000 0.43150  0.34550  0.57520  Biso   1.000  H
  H271     1.0000 0.47200  0.36270  0.56310  Biso   1.000  H
  C328     1.0000 0.45000  0.23700  0.54400  Biso   1.000  C
  H272     1.0000 0.47470  0.22550  0.53500  Biso   1.000  H
  H273     1.0000 0.45060  0.20360  0.57100  Biso   1.000  H
  C329     1.0000 0.41700  0.20400  0.50800  Biso   1.000  C
  H274     1.0000 0.39230  0.21760  0.51680  Biso   1.000  H
  H275     1.0000 0.41840  0.13880  0.50560  Biso   1.000  H
  C330     1.0000 0.41700  0.24700  0.46400  Biso   1.000  C
  H276     1.0000 0.39150  0.24320  0.44540  Biso   1.000  H
  H277     1.0000 0.43490  0.21390  0.44950  Biso   1.000  H
  C331     1.0000 0.43000  0.34600  0.46800  Biso   1.000  C
  H278     1.0000 0.45640  0.35050  0.46400  Biso   1.000  H
  H279     1.0000 0.41370  0.38000  0.44410  Biso   1.000  H
  C332     1.0000 0.52000  0.72600  0.49400  Biso   1.000  C
  H280     1.0000 0.54500  0.69780  0.49820  Biso   1.000  H
  H281     1.0000 0.50990  0.73310  0.46270  Biso   1.000  H
  C333     1.0000 0.49200  0.66500  0.51300  Biso   1.000  C
  H282     1.0000 0.50500  0.64130  0.54160  Biso   1.000  H
  H283     1.0000 0.48310  0.61560  0.49380  Biso   1.000  H
  C334     1.0000 0.45800  0.72600  0.51900  Biso   1.000  C
  H284     1.0000 0.43390  0.69080  0.51400  Biso   1.000  H
  H285     1.0000 0.46210  0.74980  0.54850  Biso   1.000  H
  C335     1.0000 0.45300  0.80400  0.48600  Biso   1.000  C
  H286     1.0000 0.45500  0.78190  0.45680  Biso   1.000  H
  H287     1.0000 0.42800  0.83260  0.48340  Biso   1.000  H
  C336     1.0000 0.48600  0.87300  0.50100  Biso   1.000  C
  H288     1.0000 0.48000  0.90790  0.52600  Biso   1.000  H
  H289     1.0000 0.48780  0.91470  0.47790  Biso   1.000  H
  C337     1.0000 0.52400  0.81900  0.51600  Biso   1.000  C
  H290     1.0000 0.54510  0.85150  0.50770  Biso   1.000  H
  H291     1.0000 0.52950  0.81220  0.54770  Biso   1.000  H
  C338     1.0000 0.43150  0.87100  0.46300  Biso   1.000  C
  H292     1.0000 0.43280  0.80600  0.45870  Biso   1.000  H
  C339     1.0000 0.56900  0.20800  0.66700  Biso   1.000  C
  H293     1.0000 0.54650  0.22140  0.64360  Biso   1.000  H
  H294     1.0000 0.56890  0.25100  0.69040  Biso   1.000  H
  C340     1.0000 0.56350  0.11200  0.68470  Biso   1.000  C
  H295     1.0000 0.58250  0.10270  0.71160  Biso   1.000  H
  H296     1.0000 0.53790  0.10690  0.69150  Biso   1.000  H
  C341     1.0000 0.56800  0.03900  0.65200  Biso   1.000  C
  H297     1.0000 0.54480  0.03590  0.62920  Biso   1.000  H
  H298     1.0000 0.57170  0.98150  0.66670  Biso   1.000  H
  C342     1.0000 0.60300  0.05600  0.63000  Biso   1.000  C
  H299     1.0000 0.60290  0.01100  0.60740  Biso   1.000  H
  H300     1.0000 0.62670  0.04980  0.65170  Biso   1.000  H
  C343     1.0000 0.60100  0.15100  0.60900  Biso   1.000  C
  H301     1.0000 0.57680  0.16070  0.58900  Biso   1.000  H
  H302     1.0000 0.62230  0.15860  0.59330  Biso   1.000  H
  C344     1.0000 0.60600  0.21700  0.64900  Biso   1.000  C
  H303     1.0000 0.62860  0.20040  0.67160  Biso   1.000  H
  H304     1.0000 0.60950  0.27830  0.64000  Biso   1.000  H
  C345     1.0000 0.75300  0.72100  0.81600  Biso   1.000  C
  H305     1.0000 0.75890  0.69630  0.84540  Biso   1.000  H
  H306     1.0000 0.76290  0.68100  0.79620  Biso   1.000  H
  C346     1.0000 0.70830  0.73500  0.80000  Biso   1.000  C
  H307     1.0000 0.70270  0.76120  0.77120  Biso   1.000  H
  H308     1.0000 0.69500  0.67730  0.79920  Biso   1.000  H
  C347     1.0000 0.69480  0.79700  0.83300  Biso   1.000  C
  H309     1.0000 0.66680  0.80340  0.82520  Biso   1.000  H
  H310     1.0000 0.70090  0.76940  0.86210  Biso   1.000  H
  C348     1.0000 0.71300  0.89100  0.83600  Biso   1.000  C
  H311     1.0000 0.70380  0.92690  0.85810  Biso   1.000  H
  H312     1.0000 0.70650  0.92130  0.80820  Biso   1.000  H
  C349     1.0000 0.75780  0.87600  0.85000  Biso   1.000  C
  H313     1.0000 0.77130  0.93340  0.85190  Biso   1.000  H
  H314     1.0000 0.76430  0.84690  0.87850  Biso   1.000  H
  C350     1.0000 0.77000  0.81700  0.81500  Biso   1.000  C
  H315     1.0000 0.79810  0.81310  0.82010  Biso   1.000  H
  H316     1.0000 0.76090  0.84320  0.78610  Biso   1.000  H
  Cl3      1.0000 0.45630  0.40000  0.35160  Biso   1.000  Cl
  C351     1.0000 0.49600  0.37200  0.39400  Biso   1.000  C
  H317     1.0000 0.49530  0.30730  0.39790  Biso   1.000  H
  H318     1.0000 0.51940  0.38480  0.38280  Biso   1.000  H
  Cl4      1.0000 0.53900  0.48600  0.46440  Biso   1.000  Cl
  C352     1.0000 0.50200  0.41400  0.44000  Biso   1.000  C
  H319     1.0000 0.50250  0.36430  0.46000  Biso   1.000  H
  H320     1.0000 0.47800  0.44680  0.44040  Biso   1.000  H
  H321     1.0000 0.54370  0.89190  0.52110  Biso   1.000  H
  C353     1.0000 0.60130  0.89500  0.51440  Biso   1.000  C
  H322     1.0000 0.59200  0.93650  0.49020  Biso   1.000  H
  H323     1.0000 0.61160  0.84210  0.50290  Biso   1.000  H
  C354     1.0000 0.63290  0.94200  0.55000  Biso   1.000  C
  H324     1.0000 0.63550  0.91110  0.57810  Biso   1.000  H
  H325     1.0000 0.65790  0.94140  0.54140  Biso   1.000  H
  C355     1.0000 0.61800  0.03900  0.55300  Biso   1.000  C
  H326     1.0000 0.63670  0.07640  0.57200  Biso   1.000  H
  H327     1.0000 0.61100  0.06680  0.52410  Biso   1.000  H
  C356     1.0000 0.58200  0.02100  0.57300  Biso   1.000  C
  H328     1.0000 0.55860  0.03970  0.55210  Biso   1.000  H
  H329     1.0000 0.58350  0.05540  0.59950  Biso   1.000  H
  C357     1.0000 0.58000  0.91900  0.58200  Biso   1.000  C
  H330     1.0000 0.56100  0.90770  0.60010  Biso   1.000  H
  H331     1.0000 0.60520  0.89820  0.59800  Biso   1.000  H
  C358     1.0000 0.53900  0.11500  0.62020  Biso   1.000  C
  H332     1.0000 0.54860  0.16890  0.60830  Biso   1.000  H
  H333     1.0000 0.55060  0.06300  0.60920  Biso   1.000  H
  C359     1.0000 0.49410  0.11100  0.60600  Biso   1.000  C
  H334     1.0000 0.48490  0.04900  0.60580  Biso   1.000  H
  H335     1.0000 0.48520  0.13700  0.57730  Biso   1.000  H
  C360     1.0000 0.48030  0.16700  0.64200  Biso   1.000  C
  H336     1.0000 0.48140  0.13030  0.66820  Biso   1.000  H
  H337     1.0000 0.45360  0.18560  0.63170  Biso   1.000  H
  C361     1.0000 0.50700  0.25100  0.65300  Biso   1.000  C
  H338     1.0000 0.51390  0.27500  0.62720  Biso   1.000  H
  H339     1.0000 0.49370  0.29730  0.66680  Biso   1.000  H
  C362     1.0000 0.54300  0.21700  0.68600  Biso   1.000  C
  H340     1.0000 0.53900  0.21780  0.71600  Biso   1.000  H
  H341     1.0000 0.56560  0.25350  0.68460  Biso   1.000  H
  C363     1.0000 0.54950  0.11700  0.67150  Biso   1.000  C
  H342     1.0000 0.57630  0.09910  0.68190  Biso   1.000  H
  H343     1.0000 0.53300  0.07600  0.68360  Biso   1.000  H
  C364     1.0000 0.73060  0.96400  0.68800  Biso   1.000  C
  H344     1.0000 0.73440  0.02820  0.68380  Biso   1.000  H
  H345     1.0000 0.75510  0.93850  0.70280  Biso   1.000  H
  C365     1.0000 0.71500  0.91700  0.64400  Biso   1.000  C
  H346     1.0000 0.73580  0.91640  0.62700  Biso   1.000  H
  H347     1.0000 0.70880  0.85540  0.64910  Biso   1.000  H
  C366     1.0000 0.68000  0.96500  0.61710  Biso   1.000  C
  H348     1.0000 0.66780  0.92890  0.59200  Biso   1.000  H
  H349     1.0000 0.68690  0.02290  0.60650  Biso   1.000  H
  C367     1.0000 0.65100  0.97800  0.64800  Biso   1.000  C
  H350     1.0000 0.63000  0.01690  0.63380  Biso   1.000  H
  H351     1.0000 0.63980  0.92040  0.65290  Biso   1.000  H
  C368     1.0000 0.66800  0.01900  0.69400  Biso   1.000  C
  H352     1.0000 0.64830  0.02830  0.71060  Biso   1.000  H
  H353     1.0000 0.68050  0.07690  0.69050  Biso   1.000  H
  C369     1.0000 0.69900  0.95000  0.71700  Biso   1.000  C
  H354     1.0000 0.68880  0.88880  0.71400  Biso   1.000  H
  H355     1.0000 0.70860  0.96410  0.74730  Biso   1.000  H
  C370     1.0000 0.73700  0.82600  0.80700  Biso   1.000  C
  H356     1.0000 0.72980  0.78320  0.82760  Biso   1.000  H
  H357     1.0000 0.74900  0.79370  0.78650  Biso   1.000  H
  C371     1.0000 0.76520  0.89600  0.83200  Biso   1.000  C
  H358     1.0000 0.78740  0.90150  0.81810  Biso   1.000  H
  H359     1.0000 0.77440  0.87590  0.86200  Biso   1.000  H
  C372     1.0000 0.74550  0.99000  0.83200  Biso   1.000  C
  H360     1.0000 0.76220  0.02790  0.85350  Biso   1.000  H
  H361     1.0000 0.74320  0.01700  0.80370  Biso   1.000  H
  C373     1.0000 0.70540  0.98600  0.84390  Biso   1.000  C
  H362     1.0000 0.70800  0.97930  0.87540  Biso   1.000  H
  H363     1.0000 0.69170  0.04230  0.83530  Biso   1.000  H
  C374     1.0000 0.68220  0.90800  0.82000  Biso   1.000  C
  H364     1.0000 0.65560  0.92720  0.80960  Biso   1.000  H
  H365     1.0000 0.68200  0.85930  0.84100  Biso   1.000  H
  C375     1.0000 0.69900  0.87400  0.78200  Biso   1.000  C
  H366     1.0000 0.70560  0.92360  0.76380  Biso   1.000  H
  H367     1.0000 0.68210  0.83260  0.76320  Biso   1.000  H
  C376     1.0000 0.57300  0.38900  0.48800  Biso   1.000  C
  H368     1.0000 0.56210  0.44880  0.48700  Biso   1.000  H
  H369     1.0000 0.60060  0.39560  0.48750  Biso   1.000  H
  C377     1.0000 0.55400  0.33800  0.44800  Biso   1.000  C
  H370     1.0000 0.56850  0.34550  0.42480  Biso   1.000  H
  H371     1.0000 0.52800  0.36270  0.43690  Biso   1.000  H
  C378     1.0000 0.55000  0.23700  0.45600  Biso   1.000  C
  H372     1.0000 0.52530  0.22550  0.46500  Biso   1.000  H
  H373     1.0000 0.54940  0.20360  0.42900  Biso   1.000  H
  C379     1.0000 0.58300  0.20400  0.49200  Biso   1.000  C
  H374     1.0000 0.60770  0.21760  0.48320  Biso   1.000  H
  H375     1.0000 0.58160  0.13880  0.49440  Biso   1.000  H
  C380     1.0000 0.58300  0.24700  0.53600  Biso   1.000  C
  H376     1.0000 0.60850  0.24320  0.55460  Biso   1.000  H
  H377     1.0000 0.56510  0.21390  0.55050  Biso   1.000  H
  C381     1.0000 0.57000  0.34600  0.53200  Biso   1.000  C
  H378     1.0000 0.54360  0.35050  0.53600  Biso   1.000  H
  H379     1.0000 0.58630  0.38000  0.55590  Biso   1.000  H
  C382     1.0000 0.48000  0.72600  0.50600  Biso   1.000  C
  H380     1.0000 0.45500  0.69780  0.50180  Biso   1.000  H
  H381     1.0000 0.49010  0.73310  0.53730  Biso   1.000  H
  C383     1.0000 0.50800  0.66500  0.48700  Biso   1.000  C
  H382     1.0000 0.49500  0.64130  0.45840  Biso   1.000  H
  H383     1.0000 0.51690  0.61560  0.50620  Biso   1.000  H
  C384     1.0000 0.54200  0.72600  0.48100  Biso   1.000  C
  H384     1.0000 0.56610  0.69080  0.48600  Biso   1.000  H
  H385     1.0000 0.53790  0.74980  0.45150  Biso   1.000  H
  C385     1.0000 0.54700  0.80400  0.51400  Biso   1.000  C
  H386     1.0000 0.54500  0.78190  0.54320  Biso   1.000  H
  H387     1.0000 0.57200  0.83260  0.51660  Biso   1.000  H
  C386     1.0000 0.51400  0.87300  0.49900  Biso   1.000  C
  H388     1.0000 0.52000  0.90790  0.47400  Biso   1.000  H
  H389     1.0000 0.51220  0.91470  0.52210  Biso   1.000  H
  C387     1.0000 0.47600  0.81900  0.48400  Biso   1.000  C
  H390     1.0000 0.45490  0.85150  0.49230  Biso   1.000  H
  H391     1.0000 0.47050  0.81220  0.45230  Biso   1.000  H
  C388     1.0000 0.56850  0.87100  0.53700  Biso   1.000  C
  H392     1.0000 0.56720  0.80600  0.54130  Biso   1.000  H
  C389     1.0000 0.93100  0.70800  0.33300  Biso   1.000  C
  H393     1.0000 0.95350  0.72140  0.35640  Biso   1.000  H
  H394     1.0000 0.93110  0.75100  0.30960  Biso   1.000  H
  C390     1.0000 0.93650  0.61200  0.31530  Biso   1.000  C
  H395     1.0000 0.91750  0.60270  0.28840  Biso   1.000  H
  H396     1.0000 0.96210  0.60690  0.30850  Biso   1.000  H
  C391     1.0000 0.93200  0.53900  0.34800  Biso   1.000  C
  H397     1.0000 0.95520  0.53590  0.37080  Biso   1.000  H
  H398     1.0000 0.92830  0.48150  0.33330  Biso   1.000  H
  C392     1.0000 0.89700  0.55600  0.37000  Biso   1.000  C
  H399     1.0000 0.89710  0.51100  0.39260  Biso   1.000  H
  H400     1.0000 0.87330  0.54980  0.34830  Biso   1.000  H
  C393     1.0000 0.89900  0.65100  0.39100  Biso   1.000  C
  H401     1.0000 0.92320  0.66070  0.41100  Biso   1.000  H
  H402     1.0000 0.87770  0.65860  0.40670  Biso   1.000  H
  C394     1.0000 0.89400  0.71700  0.35100  Biso   1.000  C
  H403     1.0000 0.87140  0.70040  0.32840  Biso   1.000  H
  H404     1.0000 0.89050  0.77830  0.36000  Biso   1.000  H
  C395     1.0000 0.74700  0.22100  0.18400  Biso   1.000  C
  H405     1.0000 0.74110  0.19630  0.15460  Biso   1.000  H
  H406     1.0000 0.73710  0.18100  0.20380  Biso   1.000  H
  C396     1.0000 0.79170  0.23500  0.20000  Biso   1.000  C
  H407     1.0000 0.79730  0.26120  0.22880  Biso   1.000  H
  H408     1.0000 0.80500  0.17730  0.20080  Biso   1.000  H
  C397     1.0000 0.80520  0.29700  0.16700  Biso   1.000  C
  H409     1.0000 0.83320  0.30340  0.17480  Biso   1.000  H
  H410     1.0000 0.79910  0.26940  0.13790  Biso   1.000  H
  C398     1.0000 0.78700  0.39100  0.16400  Biso   1.000  C
  H411     1.0000 0.79620  0.42690  0.14190  Biso   1.000  H
  H412     1.0000 0.79350  0.42130  0.19180  Biso   1.000  H
  C399     1.0000 0.74220  0.37600  0.15000  Biso   1.000  C
  H413     1.0000 0.72870  0.43340  0.14810  Biso   1.000  H
  H414     1.0000 0.73570  0.34690  0.12150  Biso   1.000  H
  C400     1.0000 0.73000  0.31700  0.18500  Biso   1.000  C
  H415     1.0000 0.70190  0.31310  0.17990  Biso   1.000  H
  H416     1.0000 0.73910  0.34320  0.21390  Biso   1.000  H
  Cl5      1.0000 0.04370  0.90000  0.64840  Biso   1.000  Cl
  C401     1.0000 0.00400  0.87200  0.60600  Biso   1.000  C
  H417     1.0000 0.00470  0.80730  0.60210  Biso   1.000  H
  H418     1.0000 0.98060  0.88480  0.61720  Biso   1.000  H
  Cl6      1.0000 0.96100  0.98600  0.53560  Biso   1.000  Cl
  C402     1.0000 0.99800  0.91400  0.56000  Biso   1.000  C
  H419     1.0000 0.99750  0.86430  0.54000  Biso   1.000  H
  H420     1.0000 0.02200  0.94680  0.55960  Biso   1.000  H
  H421     1.0000 0.95630  0.39190  0.47890  Biso   1.000  H
  C403     1.0000 0.89870  0.39500  0.48560  Biso   1.000  C
  H422     1.0000 0.90800  0.43650  0.50980  Biso   1.000  H
  H423     1.0000 0.88840  0.34210  0.49710  Biso   1.000  H
  C404     1.0000 0.86710  0.44200  0.45000  Biso   1.000  C
  H424     1.0000 0.86450  0.41110  0.42190  Biso   1.000  H
  H425     1.0000 0.84210  0.44140  0.45860  Biso   1.000  H
  C405     1.0000 0.88200  0.53900  0.44700  Biso   1.000  C
  H426     1.0000 0.86330  0.57640  0.42800  Biso   1.000  H
  H427     1.0000 0.88900  0.56680  0.47590  Biso   1.000  H
  C406     1.0000 0.91800  0.52100  0.42700  Biso   1.000  C
  H428     1.0000 0.94140  0.53970  0.44790  Biso   1.000  H
  H429     1.0000 0.91650  0.55540  0.40050  Biso   1.000  H
  C407     1.0000 0.92000  0.41900  0.41800  Biso   1.000  C
  H430     1.0000 0.93900  0.40770  0.39990  Biso   1.000  H
  H431     1.0000 0.89480  0.39820  0.40200  Biso   1.000  H
  C408     1.0000 0.96100  0.61500  0.37980  Biso   1.000  C
  H432     1.0000 0.95140  0.66890  0.39170  Biso   1.000  H
  H433     1.0000 0.94940  0.56300  0.39080  Biso   1.000  H
  C409     1.0000 0.00590  0.61100  0.39400  Biso   1.000  C
  H434     1.0000 0.01510  0.54900  0.39420  Biso   1.000  H
  H435     1.0000 0.01480  0.63700  0.42270  Biso   1.000  H
  C410     1.0000 0.01970  0.66700  0.35800  Biso   1.000  C
  H436     1.0000 0.01860  0.63030  0.33180  Biso   1.000  H
  H437     1.0000 0.04640  0.68560  0.36830  Biso   1.000  H
  C411     1.0000 0.99300  0.75100  0.34700  Biso   1.000  C
  H438     1.0000 0.98610  0.77500  0.37280  Biso   1.000  H
  H439     1.0000 0.00630  0.79730  0.33320  Biso   1.000  H
  C412     1.0000 0.95700  0.71700  0.31400  Biso   1.000  C
  H440     1.0000 0.96100  0.71780  0.28400  Biso   1.000  H
  H441     1.0000 0.93440  0.75350  0.31540  Biso   1.000  H
  C413     1.0000 0.95050  0.61700  0.32850  Biso   1.000  C
  H442     1.0000 0.92370  0.59910  0.31810  Biso   1.000  H
  H443     1.0000 0.96700  0.57600  0.31640  Biso   1.000  H
  C414     1.0000 0.76940  0.46400  0.31200  Biso   1.000  C
  H444     1.0000 0.76560  0.52820  0.31620  Biso   1.000  H
  H445     1.0000 0.74490  0.43850  0.29720  Biso   1.000  H
  C415     1.0000 0.78500  0.41700  0.35600  Biso   1.000  C
  H446     1.0000 0.76420  0.41640  0.37300  Biso   1.000  H
  H447     1.0000 0.79120  0.35540  0.35090  Biso   1.000  H
  C416     1.0000 0.82000  0.46500  0.38290  Biso   1.000  C
  H448     1.0000 0.83220  0.42890  0.40800  Biso   1.000  H
  H449     1.0000 0.81310  0.52290  0.39350  Biso   1.000  H
  C417     1.0000 0.84900  0.47800  0.35200  Biso   1.000  C
  H450     1.0000 0.87000  0.51690  0.36620  Biso   1.000  H
  H451     1.0000 0.86020  0.42040  0.34710  Biso   1.000  H
  C418     1.0000 0.83200  0.51900  0.30600  Biso   1.000  C
  H452     1.0000 0.85170  0.52830  0.28940  Biso   1.000  H
  H453     1.0000 0.81950  0.57690  0.30950  Biso   1.000  H
  C419     1.0000 0.80100  0.45000  0.28300  Biso   1.000  C
  H454     1.0000 0.81120  0.38880  0.28600  Biso   1.000  H
  H455     1.0000 0.79140  0.46410  0.25270  Biso   1.000  H
  C420     1.0000 0.76300  0.32600  0.19300  Biso   1.000  C
  H456     1.0000 0.77020  0.28320  0.17240  Biso   1.000  H
  H457     1.0000 0.75100  0.29370  0.21350  Biso   1.000  H
  C421     1.0000 0.73480  0.39600  0.16800  Biso   1.000  C
  H458     1.0000 0.71260  0.40150  0.18190  Biso   1.000  H
  H459     1.0000 0.72560  0.37590  0.13800  Biso   1.000  H
  C422     1.0000 0.75450  0.49000  0.16800  Biso   1.000  C
  H460     1.0000 0.73780  0.52790  0.14650  Biso   1.000  H
  H461     1.0000 0.75680  0.51700  0.19630  Biso   1.000  H
  C423     1.0000 0.79460  0.48600  0.15610  Biso   1.000  C
  H462     1.0000 0.79200  0.47930  0.12460  Biso   1.000  H
  H463     1.0000 0.80830  0.54230  0.16470  Biso   1.000  H
  C424     1.0000 0.81780  0.40800  0.18000  Biso   1.000  C
  H464     1.0000 0.84440  0.42720  0.19040  Biso   1.000  H
  H465     1.0000 0.81800  0.35930  0.15900  Biso   1.000  H
  C425     1.0000 0.80100  0.37400  0.21800  Biso   1.000  C
  H466     1.0000 0.79440  0.42360  0.23620  Biso   1.000  H
  H467     1.0000 0.81790  0.33260  0.23680  Biso   1.000  H
  C426     1.0000 0.92700  0.88900  0.51200  Biso   1.000  C
  H468     1.0000 0.93790  0.94880  0.51300  Biso   1.000  H
  H469     1.0000 0.89940  0.89560  0.51250  Biso   1.000  H
  C427     1.0000 0.94600  0.83800  0.55200  Biso   1.000  C
  H470     1.0000 0.93150  0.84550  0.57520  Biso   1.000  H
  H471     1.0000 0.97200  0.86270  0.56310  Biso   1.000  H
  C428     1.0000 0.95000  0.73700  0.54400  Biso   1.000  C
  H472     1.0000 0.97470  0.72550  0.53500  Biso   1.000  H
  H473     1.0000 0.95060  0.70360  0.57100  Biso   1.000  H
  C429     1.0000 0.91700  0.70400  0.50800  Biso   1.000  C
  H474     1.0000 0.89230  0.71760  0.51680  Biso   1.000  H
  H475     1.0000 0.91840  0.63880  0.50560  Biso   1.000  H
  C430     1.0000 0.91700  0.74700  0.46400  Biso   1.000  C
  H476     1.0000 0.89150  0.74320  0.44540  Biso   1.000  H
  H477     1.0000 0.93490  0.71390  0.44950  Biso   1.000  H
  C431     1.0000 0.93000  0.84600  0.46800  Biso   1.000  C
  H478     1.0000 0.95640  0.85050  0.46400  Biso   1.000  H
  H479     1.0000 0.91370  0.88000  0.44410  Biso   1.000  H
  C432     1.0000 0.02000  0.22600  0.49400  Biso   1.000  C
  H480     1.0000 0.04500  0.19780  0.49820  Biso   1.000  H
  H481     1.0000 0.00990  0.23310  0.46270  Biso   1.000  H
  C433     1.0000 0.99200  0.16500  0.51300  Biso   1.000  C
  H482     1.0000 0.00500  0.14130  0.54160  Biso   1.000  H
  H483     1.0000 0.98310  0.11560  0.49380  Biso   1.000  H
  C434     1.0000 0.95800  0.22600  0.51900  Biso   1.000  C
  H484     1.0000 0.93390  0.19080  0.51400  Biso   1.000  H
  H485     1.0000 0.96210  0.24980  0.54850  Biso   1.000  H
  C435     1.0000 0.95300  0.30400  0.48600  Biso   1.000  C
  H486     1.0000 0.95500  0.28190  0.45680  Biso   1.000  H
  H487     1.0000 0.92800  0.33260  0.48340  Biso   1.000  H
  C436     1.0000 0.98600  0.37300  0.50100  Biso   1.000  C
  H488     1.0000 0.98000  0.40790  0.52600  Biso   1.000  H
  H489     1.0000 0.98780  0.41470  0.47790  Biso   1.000  H
  C437     1.0000 0.02400  0.31900  0.51600  Biso   1.000  C
  H490     1.0000 0.04510  0.35150  0.50770  Biso   1.000  H
  H491     1.0000 0.02950  0.31220  0.54770  Biso   1.000  H
  C438     1.0000 0.93150  0.37100  0.46300  Biso   1.000  C
  H492     1.0000 0.93280  0.30600  0.45870  Biso   1.000  H
  C439     1.0000 0.06900  0.70800  0.66700  Biso   1.000  C
  H493     1.0000 0.04650  0.72140  0.64360  Biso   1.000  H
  H494     1.0000 0.06890  0.75100  0.69040  Biso   1.000  H
  C440     1.0000 0.06350  0.61200  0.68470  Biso   1.000  C
  H495     1.0000 0.08250  0.60270  0.71160  Biso   1.000  H
  H496     1.0000 0.03790  0.60690  0.69150  Biso   1.000  H
  C441     1.0000 0.06800  0.53900  0.65200  Biso   1.000  C
  H497     1.0000 0.04480  0.53590  0.62920  Biso   1.000  H
  H498     1.0000 0.07170  0.48150  0.66670  Biso   1.000  H
  C442     1.0000 0.10300  0.55600  0.63000  Biso   1.000  C
  H499     1.0000 0.10290  0.51100  0.60740  Biso   1.000  H
  H500     1.0000 0.12670  0.54980  0.65170  Biso   1.000  H
  C443     1.0000 0.10100  0.65100  0.60900  Biso   1.000  C
  H501     1.0000 0.07680  0.66070  0.58900  Biso   1.000  H
  H502     1.0000 0.12230  0.65860  0.59330  Biso   1.000  H
  C444     1.0000 0.10600  0.71700  0.64900  Biso   1.000  C
  H503     1.0000 0.12860  0.70040  0.67160  Biso   1.000  H
  H504     1.0000 0.10950  0.77830  0.64000  Biso   1.000  H
  C445     1.0000 0.25300  0.22100  0.81600  Biso   1.000  C
  H505     1.0000 0.25890  0.19630  0.84540  Biso   1.000  H
  H506     1.0000 0.26290  0.18100  0.79620  Biso   1.000  H
  C446     1.0000 0.20830  0.23500  0.80000  Biso   1.000  C
  H507     1.0000 0.20270  0.26120  0.77120  Biso   1.000  H
  H508     1.0000 0.19500  0.17730  0.79920  Biso   1.000  H
  C447     1.0000 0.19480  0.29700  0.83300  Biso   1.000  C
  H509     1.0000 0.16680  0.30340  0.82520  Biso   1.000  H
  H510     1.0000 0.20090  0.26940  0.86210  Biso   1.000  H
  C448     1.0000 0.21300  0.39100  0.83600  Biso   1.000  C
  H511     1.0000 0.20380  0.42690  0.85810  Biso   1.000  H
  H512     1.0000 0.20650  0.42130  0.80820  Biso   1.000  H
  C449     1.0000 0.25780  0.37600  0.85000  Biso   1.000  C
  H513     1.0000 0.27130  0.43340  0.85190  Biso   1.000  H
  H514     1.0000 0.26430  0.34690  0.87850  Biso   1.000  H
  C450     1.0000 0.27000  0.31700  0.81500  Biso   1.000  C
  H515     1.0000 0.29810  0.31310  0.82010  Biso   1.000  H
  H516     1.0000 0.26090  0.34320  0.78610  Biso   1.000  H
  Cl7      1.0000 0.95630  0.90000  0.35160  Biso   1.000  Cl
  C451     1.0000 0.99600  0.87200  0.39400  Biso   1.000  C
  H517     1.0000 0.99530  0.80730  0.39790  Biso   1.000  H
  H518     1.0000 0.01940  0.88480  0.38280  Biso   1.000  H
  Cl8      1.0000 0.03900  0.98600  0.46440  Biso   1.000  Cl
  C452     1.0000 0.00200  0.91400  0.44000  Biso   1.000  C
  H519     1.0000 0.00250  0.86430  0.46000  Biso   1.000  H
  H520     1.0000 0.97800  0.94680  0.44040  Biso   1.000  H
  H521     1.0000 0.04370  0.39190  0.52110  Biso   1.000  H
  C453     1.0000 0.10130  0.39500  0.51440  Biso   1.000  C
  H522     1.0000 0.09200  0.43650  0.49020  Biso   1.000  H
  H523     1.0000 0.11160  0.34210  0.50290  Biso   1.000  H
  C454     1.0000 0.13290  0.44200  0.55000  Biso   1.000  C
  H524     1.0000 0.13550  0.41110  0.57810  Biso   1.000  H
  H525     1.0000 0.15790  0.44140  0.54140  Biso   1.000  H
  C455     1.0000 0.11800  0.53900  0.55300  Biso   1.000  C
  H526     1.0000 0.13670  0.57640  0.57200  Biso   1.000  H
  H527     1.0000 0.11100  0.56680  0.52410  Biso   1.000  H
  C456     1.0000 0.08200  0.52100  0.57300  Biso   1.000  C
  H528     1.0000 0.05860  0.53970  0.55210  Biso   1.000  H
  H529     1.0000 0.08350  0.55540  0.59950  Biso   1.000  H
  C457     1.0000 0.08000  0.41900  0.58200  Biso   1.000  C
  H530     1.0000 0.06100  0.40770  0.60010  Biso   1.000  H
  H531     1.0000 0.10520  0.39820  0.59800  Biso   1.000  H
  C458     1.0000 0.03900  0.61500  0.62020  Biso   1.000  C
  H532     1.0000 0.04860  0.66890  0.60830  Biso   1.000  H
  H533     1.0000 0.05060  0.56300  0.60920  Biso   1.000  H
  C459     1.0000 0.99410  0.61100  0.60600  Biso   1.000  C
  H534     1.0000 0.98490  0.54900  0.60580  Biso   1.000  H
  H535     1.0000 0.98520  0.63700  0.57730  Biso   1.000  H
  C460     1.0000 0.98030  0.66700  0.64200  Biso   1.000  C
  H536     1.0000 0.98140  0.63030  0.66820  Biso   1.000  H
  H537     1.0000 0.95360  0.68560  0.63170  Biso   1.000  H
  C461     1.0000 0.00700  0.75100  0.65300  Biso   1.000  C
  H538     1.0000 0.01390  0.77500  0.62720  Biso   1.000  H
  H539     1.0000 0.99370  0.79730  0.66680  Biso   1.000  H
  C462     1.0000 0.04300  0.71700  0.68600  Biso   1.000  C
  H540     1.0000 0.03900  0.71780  0.71600  Biso   1.000  H
  H541     1.0000 0.06560  0.75350  0.68460  Biso   1.000  H
  C463     1.0000 0.04950  0.61700  0.67150  Biso   1.000  C
  H542     1.0000 0.07630  0.59910  0.68190  Biso   1.000  H
  H543     1.0000 0.03300  0.57600  0.68360  Biso   1.000  H
  C464     1.0000 0.23060  0.46400  0.68800  Biso   1.000  C
  H544     1.0000 0.23440  0.52820  0.68380  Biso   1.000  H
  H545     1.0000 0.25510  0.43850  0.70280  Biso   1.000  H
  C465     1.0000 0.21500  0.41700  0.64400  Biso   1.000  C
  H546     1.0000 0.23580  0.41640  0.62700  Biso   1.000  H
  H547     1.0000 0.20880  0.35540  0.64910  Biso   1.000  H
  C466     1.0000 0.18000  0.46500  0.61710  Biso   1.000  C
  H548     1.0000 0.16780  0.42890  0.59200  Biso   1.000  H
  H549     1.0000 0.18690  0.52290  0.60650  Biso   1.000  H
  C467     1.0000 0.15100  0.47800  0.64800  Biso   1.000  C
  H550     1.0000 0.13000  0.51690  0.63380  Biso   1.000  H
  H551     1.0000 0.13980  0.42040  0.65290  Biso   1.000  H
  C468     1.0000 0.16800  0.51900  0.69400  Biso   1.000  C
  H552     1.0000 0.14830  0.52830  0.71060  Biso   1.000  H
  H553     1.0000 0.18050  0.57690  0.69050  Biso   1.000  H
  C469     1.0000 0.19900  0.45000  0.71700  Biso   1.000  C
  H554     1.0000 0.18880  0.38880  0.71400  Biso   1.000  H
  H555     1.0000 0.20860  0.46410  0.74730  Biso   1.000  H
  C470     1.0000 0.23700  0.32600  0.80700  Biso   1.000  C
  H556     1.0000 0.22980  0.28320  0.82760  Biso   1.000  H
  H557     1.0000 0.24900  0.29370  0.78650  Biso   1.000  H
  C471     1.0000 0.26520  0.39600  0.83200  Biso   1.000  C
  H558     1.0000 0.28740  0.40150  0.81810  Biso   1.000  H
  H559     1.0000 0.27440  0.37590  0.86200  Biso   1.000  H
  C472     1.0000 0.24550  0.49000  0.83200  Biso   1.000  C
  H560     1.0000 0.26220  0.52790  0.85350  Biso   1.000  H
  H561     1.0000 0.24320  0.51700  0.80370  Biso   1.000  H
  C473     1.0000 0.20540  0.48600  0.84390  Biso   1.000  C
  H562     1.0000 0.20800  0.47930  0.87540  Biso   1.000  H
  H563     1.0000 0.19170  0.54230  0.83530  Biso   1.000  H
  C474     1.0000 0.18220  0.40800  0.82000  Biso   1.000  C
  H564     1.0000 0.15560  0.42720  0.80960  Biso   1.000  H
  H565     1.0000 0.18200  0.35930  0.84100  Biso   1.000  H
  C475     1.0000 0.19900  0.37400  0.78200  Biso   1.000  C
  H566     1.0000 0.20560  0.42360  0.76380  Biso   1.000  H
  H567     1.0000 0.18210  0.33260  0.76320  Biso   1.000  H
  C476     1.0000 0.07300  0.88900  0.48800  Biso   1.000  C
  H568     1.0000 0.06210  0.94880  0.48700  Biso   1.000  H
  H569     1.0000 0.10060  0.89560  0.48750  Biso   1.000  H
  C477     1.0000 0.05400  0.83800  0.44800  Biso   1.000  C
  H570     1.0000 0.06850  0.84550  0.42480  Biso   1.000  H
  H571     1.0000 0.02800  0.86270  0.43690  Biso   1.000  H
  C478     1.0000 0.05000  0.73700  0.45600  Biso   1.000  C
  H572     1.0000 0.02530  0.72550  0.46500  Biso   1.000  H
  H573     1.0000 0.04940  0.70360  0.42900  Biso   1.000  H
  C479     1.0000 0.08300  0.70400  0.49200  Biso   1.000  C
  H574     1.0000 0.10770  0.71760  0.48320  Biso   1.000  H
  H575     1.0000 0.08160  0.63880  0.49440  Biso   1.000  H
  C480     1.0000 0.08300  0.74700  0.53600  Biso   1.000  C
  H576     1.0000 0.10850  0.74320  0.55460  Biso   1.000  H
  H577     1.0000 0.06510  0.71390  0.55050  Biso   1.000  H
  C481     1.0000 0.07000  0.84600  0.53200  Biso   1.000  C
  H578     1.0000 0.04360  0.85050  0.53600  Biso   1.000  H
  H579     1.0000 0.08630  0.88000  0.55590  Biso   1.000  H
  C482     1.0000 0.98000  0.22600  0.50600  Biso   1.000  C
  H580     1.0000 0.95500  0.19780  0.50180  Biso   1.000  H
  H581     1.0000 0.99010  0.23310  0.53730  Biso   1.000  H
  C483     1.0000 0.00800  0.16500  0.48700  Biso   1.000  C
  H582     1.0000 0.99500  0.14130  0.45840  Biso   1.000  H
  H583     1.0000 0.01690  0.11560  0.50620  Biso   1.000  H
  C484     1.0000 0.04200  0.22600  0.48100  Biso   1.000  C
  H584     1.0000 0.06610  0.19080  0.48600  Biso   1.000  H
  H585     1.0000 0.03790  0.24980  0.45150  Biso   1.000  H
  C485     1.0000 0.04700  0.30400  0.51400  Biso   1.000  C
  H586     1.0000 0.04500  0.28190  0.54320  Biso   1.000  H
  H587     1.0000 0.07200  0.33260  0.51660  Biso   1.000  H
  C486     1.0000 0.01400  0.37300  0.49900  Biso   1.000  C
  H588     1.0000 0.02000  0.40790  0.47400  Biso   1.000  H
  H589     1.0000 0.01220  0.41470  0.52210  Biso   1.000  H
  C487     1.0000 0.97600  0.31900  0.48400  Biso   1.000  C
  H590     1.0000 0.95490  0.35150  0.49230  Biso   1.000  H
  H591     1.0000 0.97050  0.31220  0.45230  Biso   1.000  H
  C488     1.0000 0.06850  0.37100  0.53700  Biso   1.000  C
  H592     1.0000 0.06720  0.30600  0.54130  Biso   1.000  H
