data_image0
_cell_length_a       33.0028
_cell_length_b       33.0028
_cell_length_c       33.4823
_cell_angle_alpha    90
_cell_angle_beta     90
_cell_angle_gamma    90

_symmetry_space_group_name_H-M    "P 1"
_symmetry_int_tables_number       1

loop_
  _symmetry_equiv_pos_as_xyz
  'x, y, z'

loop_
  _atom_site_label
  _atom_site_occupancy
  _atom_site_fract_x
  _atom_site_fract_y
  _atom_site_fract_z
  _atom_site_thermal_displace_type
  _atom_site_B_iso_or_equiv
  _atom_site_type_symbol
  O1       1.0000 0.32349  0.04138  0.45857  Biso   1.000  O
  O2       1.0000 0.25557  0.04112  0.45896  Biso   1.000  O
  C1       1.0000 0.28943  0.05262  0.44593  Biso   1.000  C
  C2       1.0000 0.28918  0.08122  0.41180  Biso   1.000  C
  C3       1.0000 0.32484  0.09521  0.39524  Biso   1.000  C
  H1       1.0000 0.35000  0.08650  0.40600  Biso   1.000  H
  C4       1.0000 0.32429  0.12162  0.36329  Biso   1.000  C
  H2       1.0000 0.34910  0.13070  0.35200  Biso   1.000  H
  C5       1.0000 0.28782  0.13510  0.34744  Biso   1.000  C
  C6       1.0000 0.25215  0.12105  0.36444  Biso   1.000  C
  H3       1.0000 0.22690  0.13010  0.35400  Biso   1.000  H
  C7       1.0000 0.25243  0.09440  0.39600  Biso   1.000  C
  H4       1.0000 0.22760  0.08500  0.40700  Biso   1.000  H
  C8       1.0000 0.28656  0.16388  0.31366  Biso   1.000  C
  C9       1.0000 0.31346  0.16185  0.28239  Biso   1.000  C
  H5       1.0000 0.33410  0.14180  0.28260  Biso   1.000  H
  C10      1.0000 0.25312  0.22170  0.28245  Biso   1.000  C
  C11      1.0000 0.25707  0.19403  0.31330  Biso   1.000  C
  H6       1.0000 0.23880  0.19570  0.33520  Biso   1.000  H
  C12      1.0000 0.41330  0.98990  0.46760  Biso   1.000  C
  H7       1.0000 0.39920  0.98330  0.44450  Biso   1.000  H
  C13      1.0000 0.45522  0.98940  0.46680  Biso   1.000  C
  H8       1.0000 0.46870  0.98180  0.44370  Biso   1.000  H
  C14      1.0000 0.41470  0.02970  0.48490  Biso   1.000  C
  H9       1.0000 0.40080  0.04860  0.47010  Biso   1.000  H
  C15      1.0000 0.45610  0.03190  0.48570  Biso   1.000  C
  H10      1.0000 0.46960  0.05300  0.47370  Biso   1.000  H
  O3       1.0000 0.82349  0.54138  0.95857  Biso   1.000  O
  O4       1.0000 0.75557  0.54112  0.95896  Biso   1.000  O
  C16      1.0000 0.78943  0.55262  0.94593  Biso   1.000  C
  C17      1.0000 0.78918  0.58122  0.91180  Biso   1.000  C
  C18      1.0000 0.82484  0.59521  0.89524  Biso   1.000  C
  H11      1.0000 0.85000  0.58650  0.90600  Biso   1.000  H
  C19      1.0000 0.82429  0.62162  0.86329  Biso   1.000  C
  H12      1.0000 0.84910  0.63070  0.85200  Biso   1.000  H
  C20      1.0000 0.78782  0.63510  0.84744  Biso   1.000  C
  C21      1.0000 0.75215  0.62105  0.86444  Biso   1.000  C
  H13      1.0000 0.72690  0.63010  0.85400  Biso   1.000  H
  C22      1.0000 0.75243  0.59440  0.89600  Biso   1.000  C
  H14      1.0000 0.72760  0.58500  0.90700  Biso   1.000  H
  C23      1.0000 0.78656  0.66388  0.81366  Biso   1.000  C
  C24      1.0000 0.81346  0.66185  0.78239  Biso   1.000  C
  H15      1.0000 0.83410  0.64180  0.78260  Biso   1.000  H
  C25      1.0000 0.75312  0.72170  0.78245  Biso   1.000  C
  C26      1.0000 0.75707  0.69403  0.81330  Biso   1.000  C
  H16      1.0000 0.73880  0.69570  0.83520  Biso   1.000  H
  C27      1.0000 0.91330  0.48990  0.96760  Biso   1.000  C
  H17      1.0000 0.89920  0.48330  0.94450  Biso   1.000  H
  C28      1.0000 0.95522  0.48940  0.96680  Biso   1.000  C
  H18      1.0000 0.96870  0.48180  0.94370  Biso   1.000  H
  C29      1.0000 0.91470  0.52970  0.98490  Biso   1.000  C
  H19      1.0000 0.90080  0.54860  0.97010  Biso   1.000  H
  C30      1.0000 0.95610  0.53190  0.98570  Biso   1.000  C
  H20      1.0000 0.96960  0.55300  0.97370  Biso   1.000  H
  O5       1.0000 0.67651  0.95862  0.45857  Biso   1.000  O
  O6       1.0000 0.74443  0.95888  0.45896  Biso   1.000  O
  C31      1.0000 0.71057  0.94738  0.44593  Biso   1.000  C
  C32      1.0000 0.71082  0.91878  0.41180  Biso   1.000  C
  C33      1.0000 0.67516  0.90479  0.39524  Biso   1.000  C
  H21      1.0000 0.65000  0.91350  0.40600  Biso   1.000  H
  C34      1.0000 0.67571  0.87838  0.36329  Biso   1.000  C
  H22      1.0000 0.65090  0.86930  0.35200  Biso   1.000  H
  C35      1.0000 0.71218  0.86490  0.34744  Biso   1.000  C
  C36      1.0000 0.74785  0.87895  0.36444  Biso   1.000  C
  H23      1.0000 0.77310  0.86990  0.35400  Biso   1.000  H
  C37      1.0000 0.74757  0.90560  0.39600  Biso   1.000  C
  H24      1.0000 0.77240  0.91500  0.40700  Biso   1.000  H
  C38      1.0000 0.71344  0.83612  0.31366  Biso   1.000  C
  C39      1.0000 0.68654  0.83815  0.28239  Biso   1.000  C
  H25      1.0000 0.66590  0.85820  0.28260  Biso   1.000  H
  C40      1.0000 0.74688  0.77830  0.28245  Biso   1.000  C
  C41      1.0000 0.74293  0.80597  0.31330  Biso   1.000  C
  H26      1.0000 0.76120  0.80430  0.33520  Biso   1.000  H
  C42      1.0000 0.58670  0.01010  0.46760  Biso   1.000  C
  H27      1.0000 0.60080  0.01670  0.44450  Biso   1.000  H
  C43      1.0000 0.54478  0.01060  0.46680  Biso   1.000  C
  H28      1.0000 0.53130  0.01820  0.44370  Biso   1.000  H
  C44      1.0000 0.58530  0.97030  0.48490  Biso   1.000  C
  H29      1.0000 0.59920  0.95140  0.47010  Biso   1.000  H
  C45      1.0000 0.54390  0.96810  0.48570  Biso   1.000  C
  H30      1.0000 0.53040  0.94700  0.47370  Biso   1.000  H
  O7       1.0000 0.17651  0.45862  0.95857  Biso   1.000  O
  O8       1.0000 0.24443  0.45888  0.95896  Biso   1.000  O
  C46      1.0000 0.21057  0.44738  0.94593  Biso   1.000  C
  C47      1.0000 0.21082  0.41878  0.91180  Biso   1.000  C
  C48      1.0000 0.17516  0.40479  0.89524  Biso   1.000  C
  H31      1.0000 0.15000  0.41350  0.90600  Biso   1.000  H
  C49      1.0000 0.17571  0.37838  0.86329  Biso   1.000  C
  H32      1.0000 0.15090  0.36930  0.85200  Biso   1.000  H
  C50      1.0000 0.21218  0.36490  0.84744  Biso   1.000  C
  C51      1.0000 0.24785  0.37895  0.86444  Biso   1.000  C
  H33      1.0000 0.27310  0.36990  0.85400  Biso   1.000  H
  C52      1.0000 0.24757  0.40560  0.89600  Biso   1.000  C
  H34      1.0000 0.27240  0.41500  0.90700  Biso   1.000  H
  C53      1.0000 0.21344  0.33612  0.81366  Biso   1.000  C
  C54      1.0000 0.18654  0.33815  0.78239  Biso   1.000  C
  H35      1.0000 0.16590  0.35820  0.78260  Biso   1.000  H
  C55      1.0000 0.24688  0.27830  0.78245  Biso   1.000  C
  C56      1.0000 0.24293  0.30597  0.81330  Biso   1.000  C
  H36      1.0000 0.26120  0.30430  0.83520  Biso   1.000  H
  C57      1.0000 0.08670  0.51010  0.96760  Biso   1.000  C
  H37      1.0000 0.10080  0.51670  0.94450  Biso   1.000  H
  C58      1.0000 0.04478  0.51060  0.96680  Biso   1.000  C
  H38      1.0000 0.03130  0.51820  0.94370  Biso   1.000  H
  C59      1.0000 0.08530  0.47030  0.98490  Biso   1.000  C
  H39      1.0000 0.09920  0.45140  0.97010  Biso   1.000  H
  C60      1.0000 0.04390  0.46810  0.98570  Biso   1.000  C
  H40      1.0000 0.03040  0.44700  0.97370  Biso   1.000  H
  O9       1.0000 0.95862  0.32349  0.45857  Biso   1.000  O
  O10      1.0000 0.95888  0.25557  0.45896  Biso   1.000  O
  C61      1.0000 0.94738  0.28943  0.44593  Biso   1.000  C
  C62      1.0000 0.91878  0.28918  0.41180  Biso   1.000  C
  C63      1.0000 0.90479  0.32484  0.39524  Biso   1.000  C
  H41      1.0000 0.91350  0.35000  0.40600  Biso   1.000  H
  C64      1.0000 0.87838  0.32429  0.36329  Biso   1.000  C
  H42      1.0000 0.86930  0.34910  0.35200  Biso   1.000  H
  C65      1.0000 0.86490  0.28782  0.34744  Biso   1.000  C
  C66      1.0000 0.87895  0.25215  0.36444  Biso   1.000  C
  H43      1.0000 0.86990  0.22690  0.35400  Biso   1.000  H
  C67      1.0000 0.90560  0.25243  0.39600  Biso   1.000  C
  H44      1.0000 0.91500  0.22760  0.40700  Biso   1.000  H
  C68      1.0000 0.83612  0.28656  0.31366  Biso   1.000  C
  C69      1.0000 0.83815  0.31346  0.28239  Biso   1.000  C
  H45      1.0000 0.85820  0.33410  0.28260  Biso   1.000  H
  C70      1.0000 0.77830  0.25312  0.28245  Biso   1.000  C
  C71      1.0000 0.80597  0.25707  0.31330  Biso   1.000  C
  H46      1.0000 0.80430  0.23880  0.33520  Biso   1.000  H
  C72      1.0000 0.01010  0.41330  0.46760  Biso   1.000  C
  H47      1.0000 0.01670  0.39920  0.44450  Biso   1.000  H
  C73      1.0000 0.01060  0.45522  0.46680  Biso   1.000  C
  H48      1.0000 0.01820  0.46870  0.44370  Biso   1.000  H
  C74      1.0000 0.97030  0.41470  0.48490  Biso   1.000  C
  H49      1.0000 0.95140  0.40080  0.47010  Biso   1.000  H
  C75      1.0000 0.96810  0.45610  0.48570  Biso   1.000  C
  H50      1.0000 0.94700  0.46960  0.47370  Biso   1.000  H
  O11      1.0000 0.45862  0.82349  0.95857  Biso   1.000  O
  O12      1.0000 0.45888  0.75557  0.95896  Biso   1.000  O
  C76      1.0000 0.44738  0.78943  0.94593  Biso   1.000  C
  C77      1.0000 0.41878  0.78918  0.91180  Biso   1.000  C
  C78      1.0000 0.40479  0.82484  0.89524  Biso   1.000  C
  H51      1.0000 0.41350  0.85000  0.90600  Biso   1.000  H
  C79      1.0000 0.37838  0.82429  0.86329  Biso   1.000  C
  H52      1.0000 0.36930  0.84910  0.85200  Biso   1.000  H
  C80      1.0000 0.36490  0.78782  0.84744  Biso   1.000  C
  C81      1.0000 0.37895  0.75215  0.86444  Biso   1.000  C
  H53      1.0000 0.36990  0.72690  0.85400  Biso   1.000  H
  C82      1.0000 0.40560  0.75243  0.89600  Biso   1.000  C
  H54      1.0000 0.41500  0.72760  0.90700  Biso   1.000  H
  C83      1.0000 0.33612  0.78656  0.81366  Biso   1.000  C
  C84      1.0000 0.33815  0.81346  0.78239  Biso   1.000  C
  H55      1.0000 0.35820  0.83410  0.78260  Biso   1.000  H
  C85      1.0000 0.27830  0.75312  0.78245  Biso   1.000  C
  C86      1.0000 0.30597  0.75707  0.81330  Biso   1.000  C
  H56      1.0000 0.30430  0.73880  0.83520  Biso   1.000  H
  C87      1.0000 0.51010  0.91330  0.96760  Biso   1.000  C
  H57      1.0000 0.51670  0.89920  0.94450  Biso   1.000  H
  C88      1.0000 0.51060  0.95522  0.96680  Biso   1.000  C
  H58      1.0000 0.51820  0.96870  0.94370  Biso   1.000  H
  C89      1.0000 0.47030  0.91470  0.98490  Biso   1.000  C
  H59      1.0000 0.45140  0.90080  0.97010  Biso   1.000  H
  C90      1.0000 0.46810  0.95610  0.98570  Biso   1.000  C
  H60      1.0000 0.44700  0.96960  0.97370  Biso   1.000  H
  O13      1.0000 0.04138  0.67651  0.45857  Biso   1.000  O
  O14      1.0000 0.04112  0.74443  0.45896  Biso   1.000  O
  C91      1.0000 0.05262  0.71057  0.44593  Biso   1.000  C
  C92      1.0000 0.08122  0.71082  0.41180  Biso   1.000  C
  C93      1.0000 0.09521  0.67516  0.39524  Biso   1.000  C
  H61      1.0000 0.08650  0.65000  0.40600  Biso   1.000  H
  C94      1.0000 0.12162  0.67571  0.36329  Biso   1.000  C
  H62      1.0000 0.13070  0.65090  0.35200  Biso   1.000  H
  C95      1.0000 0.13510  0.71218  0.34744  Biso   1.000  C
  C96      1.0000 0.12105  0.74785  0.36444  Biso   1.000  C
  H63      1.0000 0.13010  0.77310  0.35400  Biso   1.000  H
  C97      1.0000 0.09440  0.74757  0.39600  Biso   1.000  C
  H64      1.0000 0.08500  0.77240  0.40700  Biso   1.000  H
  C98      1.0000 0.16388  0.71344  0.31366  Biso   1.000  C
  C99      1.0000 0.16185  0.68654  0.28239  Biso   1.000  C
  H65      1.0000 0.14180  0.66590  0.28260  Biso   1.000  H
  C100     1.0000 0.22170  0.74688  0.28245  Biso   1.000  C
  C101     1.0000 0.19403  0.74293  0.31330  Biso   1.000  C
  H66      1.0000 0.19570  0.76120  0.33520  Biso   1.000  H
  C102     1.0000 0.98990  0.58670  0.46760  Biso   1.000  C
  H67      1.0000 0.98330  0.60080  0.44450  Biso   1.000  H
  C103     1.0000 0.98940  0.54478  0.46680  Biso   1.000  C
  H68      1.0000 0.98180  0.53130  0.44370  Biso   1.000  H
  C104     1.0000 0.02970  0.58530  0.48490  Biso   1.000  C
  H69      1.0000 0.04860  0.59920  0.47010  Biso   1.000  H
  C105     1.0000 0.03190  0.54390  0.48570  Biso   1.000  C
  H70      1.0000 0.05300  0.53040  0.47370  Biso   1.000  H
  O15      1.0000 0.54138  0.17651  0.95857  Biso   1.000  O
  O16      1.0000 0.54112  0.24443  0.95896  Biso   1.000  O
  C106     1.0000 0.55262  0.21057  0.94593  Biso   1.000  C
  C107     1.0000 0.58122  0.21082  0.91180  Biso   1.000  C
  C108     1.0000 0.59521  0.17516  0.89524  Biso   1.000  C
  H71      1.0000 0.58650  0.15000  0.90600  Biso   1.000  H
  C109     1.0000 0.62162  0.17571  0.86329  Biso   1.000  C
  H72      1.0000 0.63070  0.15090  0.85200  Biso   1.000  H
  C110     1.0000 0.63510  0.21218  0.84744  Biso   1.000  C
  C111     1.0000 0.62105  0.24785  0.86444  Biso   1.000  C
  H73      1.0000 0.63010  0.27310  0.85400  Biso   1.000  H
  C112     1.0000 0.59440  0.24757  0.89600  Biso   1.000  C
  H74      1.0000 0.58500  0.27240  0.90700  Biso   1.000  H
  C113     1.0000 0.66388  0.21344  0.81366  Biso   1.000  C
  C114     1.0000 0.66185  0.18654  0.78239  Biso   1.000  C
  H75      1.0000 0.64180  0.16590  0.78260  Biso   1.000  H
  C115     1.0000 0.72170  0.24688  0.78245  Biso   1.000  C
  C116     1.0000 0.69403  0.24293  0.81330  Biso   1.000  C
  H76      1.0000 0.69570  0.26120  0.83520  Biso   1.000  H
  C117     1.0000 0.48990  0.08670  0.96760  Biso   1.000  C
  H77      1.0000 0.48330  0.10080  0.94450  Biso   1.000  H
  C118     1.0000 0.48940  0.04478  0.96680  Biso   1.000  C
  H78      1.0000 0.48180  0.03130  0.94370  Biso   1.000  H
  C119     1.0000 0.52970  0.08530  0.98490  Biso   1.000  C
  H79      1.0000 0.54860  0.09920  0.97010  Biso   1.000  H
  C120     1.0000 0.53190  0.04390  0.98570  Biso   1.000  C
  H80      1.0000 0.55300  0.03040  0.97370  Biso   1.000  H
  O17      1.0000 0.67651  0.04138  0.54143  Biso   1.000  O
  O18      1.0000 0.74443  0.04112  0.54104  Biso   1.000  O
  C121     1.0000 0.71057  0.05262  0.55407  Biso   1.000  C
  C122     1.0000 0.71082  0.08122  0.58820  Biso   1.000  C
  C123     1.0000 0.67516  0.09521  0.60476  Biso   1.000  C
  H81      1.0000 0.65000  0.08650  0.59400  Biso   1.000  H
  C124     1.0000 0.67571  0.12162  0.63671  Biso   1.000  C
  H82      1.0000 0.65090  0.13070  0.64800  Biso   1.000  H
  C125     1.0000 0.71218  0.13510  0.65256  Biso   1.000  C
  C126     1.0000 0.74785  0.12105  0.63556  Biso   1.000  C
  H83      1.0000 0.77310  0.13010  0.64600  Biso   1.000  H
  C127     1.0000 0.74757  0.09440  0.60400  Biso   1.000  C
  H84      1.0000 0.77240  0.08500  0.59300  Biso   1.000  H
  C128     1.0000 0.71344  0.16388  0.68634  Biso   1.000  C
  C129     1.0000 0.68654  0.16185  0.71761  Biso   1.000  C
  H85      1.0000 0.66590  0.14180  0.71740  Biso   1.000  H
  C130     1.0000 0.74688  0.22170  0.71755  Biso   1.000  C
  C131     1.0000 0.74293  0.19403  0.68670  Biso   1.000  C
  H86      1.0000 0.76120  0.19570  0.66480  Biso   1.000  H
  C132     1.0000 0.58670  0.98990  0.53240  Biso   1.000  C
  H87      1.0000 0.60080  0.98330  0.55550  Biso   1.000  H
  C133     1.0000 0.54478  0.98940  0.53320  Biso   1.000  C
  H88      1.0000 0.53130  0.98180  0.55630  Biso   1.000  H
  C134     1.0000 0.58530  0.02970  0.51510  Biso   1.000  C
  H89      1.0000 0.59920  0.04860  0.52990  Biso   1.000  H
  C135     1.0000 0.54390  0.03190  0.51430  Biso   1.000  C
  H90      1.0000 0.53040  0.05300  0.52630  Biso   1.000  H
  O19      1.0000 0.17651  0.54138  0.04143  Biso   1.000  O
  O20      1.0000 0.24443  0.54112  0.04104  Biso   1.000  O
  C136     1.0000 0.21057  0.55262  0.05407  Biso   1.000  C
  C137     1.0000 0.21082  0.58122  0.08820  Biso   1.000  C
  C138     1.0000 0.17516  0.59521  0.10476  Biso   1.000  C
  H91      1.0000 0.15000  0.58650  0.09400  Biso   1.000  H
  C139     1.0000 0.17571  0.62162  0.13671  Biso   1.000  C
  H92      1.0000 0.15090  0.63070  0.14800  Biso   1.000  H
  C140     1.0000 0.21218  0.63510  0.15256  Biso   1.000  C
  C141     1.0000 0.24785  0.62105  0.13556  Biso   1.000  C
  H93      1.0000 0.27310  0.63010  0.14600  Biso   1.000  H
  C142     1.0000 0.24757  0.59440  0.10400  Biso   1.000  C
  H94      1.0000 0.27240  0.58500  0.09300  Biso   1.000  H
  C143     1.0000 0.21344  0.66388  0.18634  Biso   1.000  C
  C144     1.0000 0.18654  0.66185  0.21761  Biso   1.000  C
  H95      1.0000 0.16590  0.64180  0.21740  Biso   1.000  H
  C145     1.0000 0.24688  0.72170  0.21755  Biso   1.000  C
  C146     1.0000 0.24293  0.69403  0.18670  Biso   1.000  C
  H96      1.0000 0.26120  0.69570  0.16480  Biso   1.000  H
  C147     1.0000 0.08670  0.48990  0.03240  Biso   1.000  C
  H97      1.0000 0.10080  0.48330  0.05550  Biso   1.000  H
  C148     1.0000 0.04478  0.48940  0.03320  Biso   1.000  C
  H98      1.0000 0.03130  0.48180  0.05630  Biso   1.000  H
  C149     1.0000 0.08530  0.52970  0.01510  Biso   1.000  C
  H99      1.0000 0.09920  0.54860  0.02990  Biso   1.000  H
  C150     1.0000 0.04390  0.53190  0.01430  Biso   1.000  C
  H100     1.0000 0.03040  0.55300  0.02630  Biso   1.000  H
  O21      1.0000 0.32349  0.95862  0.54143  Biso   1.000  O
  O22      1.0000 0.25557  0.95888  0.54104  Biso   1.000  O
  C151     1.0000 0.28943  0.94738  0.55407  Biso   1.000  C
  C152     1.0000 0.28918  0.91878  0.58820  Biso   1.000  C
  C153     1.0000 0.32484  0.90479  0.60476  Biso   1.000  C
  H101     1.0000 0.35000  0.91350  0.59400  Biso   1.000  H
  C154     1.0000 0.32429  0.87838  0.63671  Biso   1.000  C
  H102     1.0000 0.34910  0.86930  0.64800  Biso   1.000  H
  C155     1.0000 0.28782  0.86490  0.65256  Biso   1.000  C
  C156     1.0000 0.25215  0.87895  0.63556  Biso   1.000  C
  H103     1.0000 0.22690  0.86990  0.64600  Biso   1.000  H
  C157     1.0000 0.25243  0.90560  0.60400  Biso   1.000  C
  H104     1.0000 0.22760  0.91500  0.59300  Biso   1.000  H
  C158     1.0000 0.28656  0.83612  0.68634  Biso   1.000  C
  C159     1.0000 0.31346  0.83815  0.71761  Biso   1.000  C
  H105     1.0000 0.33410  0.85820  0.71740  Biso   1.000  H
  C160     1.0000 0.25312  0.77830  0.71755  Biso   1.000  C
  C161     1.0000 0.25707  0.80597  0.68670  Biso   1.000  C
  H106     1.0000 0.23880  0.80430  0.66480  Biso   1.000  H
  C162     1.0000 0.41330  0.01010  0.53240  Biso   1.000  C
  H107     1.0000 0.39920  0.01670  0.55550  Biso   1.000  H
  C163     1.0000 0.45522  0.01060  0.53320  Biso   1.000  C
  H108     1.0000 0.46870  0.01820  0.55630  Biso   1.000  H
  C164     1.0000 0.41470  0.97030  0.51510  Biso   1.000  C
  H109     1.0000 0.40080  0.95140  0.52990  Biso   1.000  H
  C165     1.0000 0.45610  0.96810  0.51430  Biso   1.000  C
  H110     1.0000 0.46960  0.94700  0.52630  Biso   1.000  H
  O23      1.0000 0.82349  0.45862  0.04143  Biso   1.000  O
  O24      1.0000 0.75557  0.45888  0.04104  Biso   1.000  O
  C166     1.0000 0.78943  0.44738  0.05407  Biso   1.000  C
  C167     1.0000 0.78918  0.41878  0.08820  Biso   1.000  C
  C168     1.0000 0.82484  0.40479  0.10476  Biso   1.000  C
  H111     1.0000 0.85000  0.41350  0.09400  Biso   1.000  H
  C169     1.0000 0.82429  0.37838  0.13671  Biso   1.000  C
  H112     1.0000 0.84910  0.36930  0.14800  Biso   1.000  H
  C170     1.0000 0.78782  0.36490  0.15256  Biso   1.000  C
  C171     1.0000 0.75215  0.37895  0.13556  Biso   1.000  C
  H113     1.0000 0.72690  0.36990  0.14600  Biso   1.000  H
  C172     1.0000 0.75243  0.40560  0.10400  Biso   1.000  C
  H114     1.0000 0.72760  0.41500  0.09300  Biso   1.000  H
  C173     1.0000 0.78656  0.33612  0.18634  Biso   1.000  C
  C174     1.0000 0.81346  0.33815  0.21761  Biso   1.000  C
  H115     1.0000 0.83410  0.35820  0.21740  Biso   1.000  H
  C175     1.0000 0.75312  0.27830  0.21755  Biso   1.000  C
  C176     1.0000 0.75707  0.30597  0.18670  Biso   1.000  C
  H116     1.0000 0.73880  0.30430  0.16480  Biso   1.000  H
  C177     1.0000 0.91330  0.51010  0.03240  Biso   1.000  C
  H117     1.0000 0.89920  0.51670  0.05550  Biso   1.000  H
  C178     1.0000 0.95522  0.51060  0.03320  Biso   1.000  C
  H118     1.0000 0.96870  0.51820  0.05630  Biso   1.000  H
  C179     1.0000 0.91470  0.47030  0.01510  Biso   1.000  C
  H119     1.0000 0.90080  0.45140  0.02990  Biso   1.000  H
  C180     1.0000 0.95610  0.46810  0.01430  Biso   1.000  C
  H120     1.0000 0.96960  0.44700  0.02630  Biso   1.000  H
  O25      1.0000 0.04138  0.32349  0.54143  Biso   1.000  O
  O26      1.0000 0.04112  0.25557  0.54104  Biso   1.000  O
  C181     1.0000 0.05262  0.28943  0.55407  Biso   1.000  C
  C182     1.0000 0.08122  0.28918  0.58820  Biso   1.000  C
  C183     1.0000 0.09521  0.32484  0.60476  Biso   1.000  C
  H121     1.0000 0.08650  0.35000  0.59400  Biso   1.000  H
  C184     1.0000 0.12162  0.32429  0.63671  Biso   1.000  C
  H122     1.0000 0.13070  0.34910  0.64800  Biso   1.000  H
  C185     1.0000 0.13510  0.28782  0.65256  Biso   1.000  C
  C186     1.0000 0.12105  0.25215  0.63556  Biso   1.000  C
  H123     1.0000 0.13010  0.22690  0.64600  Biso   1.000  H
  C187     1.0000 0.09440  0.25243  0.60400  Biso   1.000  C
  H124     1.0000 0.08500  0.22760  0.59300  Biso   1.000  H
  C188     1.0000 0.16388  0.28656  0.68634  Biso   1.000  C
  C189     1.0000 0.16185  0.31346  0.71761  Biso   1.000  C
  H125     1.0000 0.14180  0.33410  0.71740  Biso   1.000  H
  C190     1.0000 0.22170  0.25312  0.71755  Biso   1.000  C
  C191     1.0000 0.19403  0.25707  0.68670  Biso   1.000  C
  H126     1.0000 0.19570  0.23880  0.66480  Biso   1.000  H
  C192     1.0000 0.98990  0.41330  0.53240  Biso   1.000  C
  H127     1.0000 0.98330  0.39920  0.55550  Biso   1.000  H
  C193     1.0000 0.98940  0.45522  0.53320  Biso   1.000  C
  H128     1.0000 0.98180  0.46870  0.55630  Biso   1.000  H
  C194     1.0000 0.02970  0.41470  0.51510  Biso   1.000  C
  H129     1.0000 0.04860  0.40080  0.52990  Biso   1.000  H
  C195     1.0000 0.03190  0.45610  0.51430  Biso   1.000  C
  H130     1.0000 0.05300  0.46960  0.52630  Biso   1.000  H
  O27      1.0000 0.54138  0.82349  0.04143  Biso   1.000  O
  O28      1.0000 0.54112  0.75557  0.04104  Biso   1.000  O
  C196     1.0000 0.55262  0.78943  0.05407  Biso   1.000  C
  C197     1.0000 0.58122  0.78918  0.08820  Biso   1.000  C
  C198     1.0000 0.59521  0.82484  0.10476  Biso   1.000  C
  H131     1.0000 0.58650  0.85000  0.09400  Biso   1.000  H
  C199     1.0000 0.62162  0.82429  0.13671  Biso   1.000  C
  H132     1.0000 0.63070  0.84910  0.14800  Biso   1.000  H
  C200     1.0000 0.63510  0.78782  0.15256  Biso   1.000  C
  C201     1.0000 0.62105  0.75215  0.13556  Biso   1.000  C
  H133     1.0000 0.63010  0.72690  0.14600  Biso   1.000  H
  C202     1.0000 0.59440  0.75243  0.10400  Biso   1.000  C
  H134     1.0000 0.58500  0.72760  0.09300  Biso   1.000  H
  C203     1.0000 0.66388  0.78656  0.18634  Biso   1.000  C
  C204     1.0000 0.66185  0.81346  0.21761  Biso   1.000  C
  H135     1.0000 0.64180  0.83410  0.21740  Biso   1.000  H
  C205     1.0000 0.72170  0.75312  0.21755  Biso   1.000  C
  C206     1.0000 0.69403  0.75707  0.18670  Biso   1.000  C
  H136     1.0000 0.69570  0.73880  0.16480  Biso   1.000  H
  C207     1.0000 0.48990  0.91330  0.03240  Biso   1.000  C
  H137     1.0000 0.48330  0.89920  0.05550  Biso   1.000  H
  C208     1.0000 0.48940  0.95522  0.03320  Biso   1.000  C
  H138     1.0000 0.48180  0.96870  0.05630  Biso   1.000  H
  C209     1.0000 0.52970  0.91470  0.01510  Biso   1.000  C
  H139     1.0000 0.54860  0.90080  0.02990  Biso   1.000  H
  C210     1.0000 0.53190  0.95610  0.01430  Biso   1.000  C
  H140     1.0000 0.55300  0.96960  0.02630  Biso   1.000  H
  O29      1.0000 0.95862  0.67651  0.54143  Biso   1.000  O
  O30      1.0000 0.95888  0.74443  0.54104  Biso   1.000  O
  C211     1.0000 0.94738  0.71057  0.55407  Biso   1.000  C
  C212     1.0000 0.91878  0.71082  0.58820  Biso   1.000  C
  C213     1.0000 0.90479  0.67516  0.60476  Biso   1.000  C
  H141     1.0000 0.91350  0.65000  0.59400  Biso   1.000  H
  C214     1.0000 0.87838  0.67571  0.63671  Biso   1.000  C
  H142     1.0000 0.86930  0.65090  0.64800  Biso   1.000  H
  C215     1.0000 0.86490  0.71218  0.65256  Biso   1.000  C
  C216     1.0000 0.87895  0.74785  0.63556  Biso   1.000  C
  H143     1.0000 0.86990  0.77310  0.64600  Biso   1.000  H
  C217     1.0000 0.90560  0.74757  0.60400  Biso   1.000  C
  H144     1.0000 0.91500  0.77240  0.59300  Biso   1.000  H
  C218     1.0000 0.83612  0.71344  0.68634  Biso   1.000  C
  C219     1.0000 0.83815  0.68654  0.71761  Biso   1.000  C
  H145     1.0000 0.85820  0.66590  0.71740  Biso   1.000  H
  C220     1.0000 0.77830  0.74688  0.71755  Biso   1.000  C
  C221     1.0000 0.80597  0.74293  0.68670  Biso   1.000  C
  H146     1.0000 0.80430  0.76120  0.66480  Biso   1.000  H
  C222     1.0000 0.01010  0.58670  0.53240  Biso   1.000  C
  H147     1.0000 0.01670  0.60080  0.55550  Biso   1.000  H
  C223     1.0000 0.01060  0.54478  0.53320  Biso   1.000  C
  H148     1.0000 0.01820  0.53130  0.55630  Biso   1.000  H
  C224     1.0000 0.97030  0.58530  0.51510  Biso   1.000  C
  H149     1.0000 0.95140  0.59920  0.52990  Biso   1.000  H
  C225     1.0000 0.96810  0.54390  0.51430  Biso   1.000  C
  H150     1.0000 0.94700  0.53040  0.52630  Biso   1.000  H
  O31      1.0000 0.45862  0.17651  0.04143  Biso   1.000  O
  O32      1.0000 0.45888  0.24443  0.04104  Biso   1.000  O
  C226     1.0000 0.44738  0.21057  0.05407  Biso   1.000  C
  C227     1.0000 0.41878  0.21082  0.08820  Biso   1.000  C
  C228     1.0000 0.40479  0.17516  0.10476  Biso   1.000  C
  H151     1.0000 0.41350  0.15000  0.09400  Biso   1.000  H
  C229     1.0000 0.37838  0.17571  0.13671  Biso   1.000  C
  H152     1.0000 0.36930  0.15090  0.14800  Biso   1.000  H
  C230     1.0000 0.36490  0.21218  0.15256  Biso   1.000  C
  C231     1.0000 0.37895  0.24785  0.13556  Biso   1.000  C
  H153     1.0000 0.36990  0.27310  0.14600  Biso   1.000  H
  C232     1.0000 0.40560  0.24757  0.10400  Biso   1.000  C
  H154     1.0000 0.41500  0.27240  0.09300  Biso   1.000  H
  C233     1.0000 0.33612  0.21344  0.18634  Biso   1.000  C
  C234     1.0000 0.33815  0.18654  0.21761  Biso   1.000  C
  H155     1.0000 0.35820  0.16590  0.21740  Biso   1.000  H
  C235     1.0000 0.27830  0.24688  0.21755  Biso   1.000  C
  C236     1.0000 0.30597  0.24293  0.18670  Biso   1.000  C
  H156     1.0000 0.30430  0.26120  0.16480  Biso   1.000  H
  C237     1.0000 0.51010  0.08670  0.03240  Biso   1.000  C
  H157     1.0000 0.51670  0.10080  0.05550  Biso   1.000  H
  C238     1.0000 0.51060  0.04478  0.03320  Biso   1.000  C
  H158     1.0000 0.51820  0.03130  0.05630  Biso   1.000  H
  C239     1.0000 0.47030  0.08530  0.01510  Biso   1.000  C
  H159     1.0000 0.45140  0.09920  0.02990  Biso   1.000  H
  C240     1.0000 0.46810  0.04390  0.01430  Biso   1.000  C
  H160     1.0000 0.44700  0.03040  0.02630  Biso   1.000  H
  O33      1.0000 0.67651  0.95862  0.54143  Biso   1.000  O
  O34      1.0000 0.74443  0.95888  0.54104  Biso   1.000  O
  C241     1.0000 0.71057  0.94738  0.55407  Biso   1.000  C
  C242     1.0000 0.71082  0.91878  0.58820  Biso   1.000  C
  C243     1.0000 0.67516  0.90479  0.60476  Biso   1.000  C
  H161     1.0000 0.65000  0.91350  0.59400  Biso   1.000  H
  C244     1.0000 0.67571  0.87838  0.63671  Biso   1.000  C
  H162     1.0000 0.65090  0.86930  0.64800  Biso   1.000  H
  C245     1.0000 0.71218  0.86490  0.65256  Biso   1.000  C
  C246     1.0000 0.74785  0.87895  0.63556  Biso   1.000  C
  H163     1.0000 0.77310  0.86990  0.64600  Biso   1.000  H
  C247     1.0000 0.74757  0.90560  0.60400  Biso   1.000  C
  H164     1.0000 0.77240  0.91500  0.59300  Biso   1.000  H
  C248     1.0000 0.71344  0.83612  0.68634  Biso   1.000  C
  C249     1.0000 0.68654  0.83815  0.71761  Biso   1.000  C
  H165     1.0000 0.66590  0.85820  0.71740  Biso   1.000  H
  C250     1.0000 0.74688  0.77830  0.71755  Biso   1.000  C
  C251     1.0000 0.74293  0.80597  0.68670  Biso   1.000  C
  H166     1.0000 0.76120  0.80430  0.66480  Biso   1.000  H
  C252     1.0000 0.58670  0.01010  0.53240  Biso   1.000  C
  H167     1.0000 0.60080  0.01670  0.55550  Biso   1.000  H
  C253     1.0000 0.54478  0.01060  0.53320  Biso   1.000  C
  H168     1.0000 0.53130  0.01820  0.55630  Biso   1.000  H
  C254     1.0000 0.58530  0.97030  0.51510  Biso   1.000  C
  H169     1.0000 0.59920  0.95140  0.52990  Biso   1.000  H
  C255     1.0000 0.54390  0.96810  0.51430  Biso   1.000  C
  H170     1.0000 0.53040  0.94700  0.52630  Biso   1.000  H
  O35      1.0000 0.17651  0.45862  0.04143  Biso   1.000  O
  O36      1.0000 0.24443  0.45888  0.04104  Biso   1.000  O
  C256     1.0000 0.21057  0.44738  0.05407  Biso   1.000  C
  C257     1.0000 0.21082  0.41878  0.08820  Biso   1.000  C
  C258     1.0000 0.17516  0.40479  0.10476  Biso   1.000  C
  H171     1.0000 0.15000  0.41350  0.09400  Biso   1.000  H
  C259     1.0000 0.17571  0.37838  0.13671  Biso   1.000  C
  H172     1.0000 0.15090  0.36930  0.14800  Biso   1.000  H
  C260     1.0000 0.21218  0.36490  0.15256  Biso   1.000  C
  C261     1.0000 0.24785  0.37895  0.13556  Biso   1.000  C
  H173     1.0000 0.27310  0.36990  0.14600  Biso   1.000  H
  C262     1.0000 0.24757  0.40560  0.10400  Biso   1.000  C
  H174     1.0000 0.27240  0.41500  0.09300  Biso   1.000  H
  C263     1.0000 0.21344  0.33612  0.18634  Biso   1.000  C
  C264     1.0000 0.18654  0.33815  0.21761  Biso   1.000  C
  H175     1.0000 0.16590  0.35820  0.21740  Biso   1.000  H
  C265     1.0000 0.24688  0.27830  0.21755  Biso   1.000  C
  C266     1.0000 0.24293  0.30597  0.18670  Biso   1.000  C
  H176     1.0000 0.26120  0.30430  0.16480  Biso   1.000  H
  C267     1.0000 0.08670  0.51010  0.03240  Biso   1.000  C
  H177     1.0000 0.10080  0.51670  0.05550  Biso   1.000  H
  C268     1.0000 0.04478  0.51060  0.03320  Biso   1.000  C
  H178     1.0000 0.03130  0.51820  0.05630  Biso   1.000  H
  C269     1.0000 0.08530  0.47030  0.01510  Biso   1.000  C
  H179     1.0000 0.09920  0.45140  0.02990  Biso   1.000  H
  C270     1.0000 0.04390  0.46810  0.01430  Biso   1.000  C
  H180     1.0000 0.03040  0.44700  0.02630  Biso   1.000  H
  O37      1.0000 0.32349  0.04138  0.54143  Biso   1.000  O
  O38      1.0000 0.25557  0.04112  0.54104  Biso   1.000  O
  C271     1.0000 0.28943  0.05262  0.55407  Biso   1.000  C
  C272     1.0000 0.28918  0.08122  0.58820  Biso   1.000  C
  C273     1.0000 0.32484  0.09521  0.60476  Biso   1.000  C
  H181     1.0000 0.35000  0.08650  0.59400  Biso   1.000  H
  C274     1.0000 0.32429  0.12162  0.63671  Biso   1.000  C
  H182     1.0000 0.34910  0.13070  0.64800  Biso   1.000  H
  C275     1.0000 0.28782  0.13510  0.65256  Biso   1.000  C
  C276     1.0000 0.25215  0.12105  0.63556  Biso   1.000  C
  H183     1.0000 0.22690  0.13010  0.64600  Biso   1.000  H
  C277     1.0000 0.25243  0.09440  0.60400  Biso   1.000  C
  H184     1.0000 0.22760  0.08500  0.59300  Biso   1.000  H
  C278     1.0000 0.28656  0.16388  0.68634  Biso   1.000  C
  C279     1.0000 0.31346  0.16185  0.71761  Biso   1.000  C
  H185     1.0000 0.33410  0.14180  0.71740  Biso   1.000  H
  C280     1.0000 0.25312  0.22170  0.71755  Biso   1.000  C
  C281     1.0000 0.25707  0.19403  0.68670  Biso   1.000  C
  H186     1.0000 0.23880  0.19570  0.66480  Biso   1.000  H
  C282     1.0000 0.41330  0.98990  0.53240  Biso   1.000  C
  H187     1.0000 0.39920  0.98330  0.55550  Biso   1.000  H
  C283     1.0000 0.45522  0.98940  0.53320  Biso   1.000  C
  H188     1.0000 0.46870  0.98180  0.55630  Biso   1.000  H
  C284     1.0000 0.41470  0.02970  0.51510  Biso   1.000  C
  H189     1.0000 0.40080  0.04860  0.52990  Biso   1.000  H
  C285     1.0000 0.45610  0.03190  0.51430  Biso   1.000  C
  H190     1.0000 0.46960  0.05300  0.52630  Biso   1.000  H
  O39      1.0000 0.82349  0.54138  0.04143  Biso   1.000  O
  O40      1.0000 0.75557  0.54112  0.04104  Biso   1.000  O
  C286     1.0000 0.78943  0.55262  0.05407  Biso   1.000  C
  C287     1.0000 0.78918  0.58122  0.08820  Biso   1.000  C
  C288     1.0000 0.82484  0.59521  0.10476  Biso   1.000  C
  H191     1.0000 0.85000  0.58650  0.09400  Biso   1.000  H
  C289     1.0000 0.82429  0.62162  0.13671  Biso   1.000  C
  H192     1.0000 0.84910  0.63070  0.14800  Biso   1.000  H
  C290     1.0000 0.78782  0.63510  0.15256  Biso   1.000  C
  C291     1.0000 0.75215  0.62105  0.13556  Biso   1.000  C
  H193     1.0000 0.72690  0.63010  0.14600  Biso   1.000  H
  C292     1.0000 0.75243  0.59440  0.10400  Biso   1.000  C
  H194     1.0000 0.72760  0.58500  0.09300  Biso   1.000  H
  C293     1.0000 0.78656  0.66388  0.18634  Biso   1.000  C
  C294     1.0000 0.81346  0.66185  0.21761  Biso   1.000  C
  H195     1.0000 0.83410  0.64180  0.21740  Biso   1.000  H
  C295     1.0000 0.75312  0.72170  0.21755  Biso   1.000  C
  C296     1.0000 0.75707  0.69403  0.18670  Biso   1.000  C
  H196     1.0000 0.73880  0.69570  0.16480  Biso   1.000  H
  C297     1.0000 0.91330  0.48990  0.03240  Biso   1.000  C
  H197     1.0000 0.89920  0.48330  0.05550  Biso   1.000  H
  C298     1.0000 0.95522  0.48940  0.03320  Biso   1.000  C
  H198     1.0000 0.96870  0.48180  0.05630  Biso   1.000  H
  C299     1.0000 0.91470  0.52970  0.01510  Biso   1.000  C
  H199     1.0000 0.90080  0.54860  0.02990  Biso   1.000  H
  C300     1.0000 0.95610  0.53190  0.01430  Biso   1.000  C
  H200     1.0000 0.96960  0.55300  0.02630  Biso   1.000  H
  O41      1.0000 0.04138  0.67651  0.54143  Biso   1.000  O
  O42      1.0000 0.04112  0.74443  0.54104  Biso   1.000  O
  C301     1.0000 0.05262  0.71057  0.55407  Biso   1.000  C
  C302     1.0000 0.08122  0.71082  0.58820  Biso   1.000  C
  C303     1.0000 0.09521  0.67516  0.60476  Biso   1.000  C
  H201     1.0000 0.08650  0.65000  0.59400  Biso   1.000  H
  C304     1.0000 0.12162  0.67571  0.63671  Biso   1.000  C
  H202     1.0000 0.13070  0.65090  0.64800  Biso   1.000  H
  C305     1.0000 0.13510  0.71218  0.65256  Biso   1.000  C
  C306     1.0000 0.12105  0.74785  0.63556  Biso   1.000  C
  H203     1.0000 0.13010  0.77310  0.64600  Biso   1.000  H
  C307     1.0000 0.09440  0.74757  0.60400  Biso   1.000  C
  H204     1.0000 0.08500  0.77240  0.59300  Biso   1.000  H
  C308     1.0000 0.16388  0.71344  0.68634  Biso   1.000  C
  C309     1.0000 0.16185  0.68654  0.71761  Biso   1.000  C
  H205     1.0000 0.14180  0.66590  0.71740  Biso   1.000  H
  C310     1.0000 0.22170  0.74688  0.71755  Biso   1.000  C
  C311     1.0000 0.19403  0.74293  0.68670  Biso   1.000  C
  H206     1.0000 0.19570  0.76120  0.66480  Biso   1.000  H
  C312     1.0000 0.98990  0.58670  0.53240  Biso   1.000  C
  H207     1.0000 0.98330  0.60080  0.55550  Biso   1.000  H
  C313     1.0000 0.98940  0.54478  0.53320  Biso   1.000  C
  H208     1.0000 0.98180  0.53130  0.55630  Biso   1.000  H
  C314     1.0000 0.02970  0.58530  0.51510  Biso   1.000  C
  H209     1.0000 0.04860  0.59920  0.52990  Biso   1.000  H
  C315     1.0000 0.03190  0.54390  0.51430  Biso   1.000  C
  H210     1.0000 0.05300  0.53040  0.52630  Biso   1.000  H
  O43      1.0000 0.54138  0.17651  0.04143  Biso   1.000  O
  O44      1.0000 0.54112  0.24443  0.04104  Biso   1.000  O
  C316     1.0000 0.55262  0.21057  0.05407  Biso   1.000  C
  C317     1.0000 0.58122  0.21082  0.08820  Biso   1.000  C
  C318     1.0000 0.59521  0.17516  0.10476  Biso   1.000  C
  H211     1.0000 0.58650  0.15000  0.09400  Biso   1.000  H
  C319     1.0000 0.62162  0.17571  0.13671  Biso   1.000  C
  H212     1.0000 0.63070  0.15090  0.14800  Biso   1.000  H
  C320     1.0000 0.63510  0.21218  0.15256  Biso   1.000  C
  C321     1.0000 0.62105  0.24785  0.13556  Biso   1.000  C
  H213     1.0000 0.63010  0.27310  0.14600  Biso   1.000  H
  C322     1.0000 0.59440  0.24757  0.10400  Biso   1.000  C
  H214     1.0000 0.58500  0.27240  0.09300  Biso   1.000  H
  C323     1.0000 0.66388  0.21344  0.18634  Biso   1.000  C
  C324     1.0000 0.66185  0.18654  0.21761  Biso   1.000  C
  H215     1.0000 0.64180  0.16590  0.21740  Biso   1.000  H
  C325     1.0000 0.72170  0.24688  0.21755  Biso   1.000  C
  C326     1.0000 0.69403  0.24293  0.18670  Biso   1.000  C
  H216     1.0000 0.69570  0.26120  0.16480  Biso   1.000  H
  C327     1.0000 0.48990  0.08670  0.03240  Biso   1.000  C
  H217     1.0000 0.48330  0.10080  0.05550  Biso   1.000  H
  C328     1.0000 0.48940  0.04478  0.03320  Biso   1.000  C
  H218     1.0000 0.48180  0.03130  0.05630  Biso   1.000  H
  C329     1.0000 0.52970  0.08530  0.01510  Biso   1.000  C
  H219     1.0000 0.54860  0.09920  0.02990  Biso   1.000  H
  C330     1.0000 0.53190  0.04390  0.01430  Biso   1.000  C
  H220     1.0000 0.55300  0.03040  0.02630  Biso   1.000  H
  O45      1.0000 0.95862  0.32349  0.54143  Biso   1.000  O
  O46      1.0000 0.95888  0.25557  0.54104  Biso   1.000  O
  C331     1.0000 0.94738  0.28943  0.55407  Biso   1.000  C
  C332     1.0000 0.91878  0.28918  0.58820  Biso   1.000  C
  C333     1.0000 0.90479  0.32484  0.60476  Biso   1.000  C
  H221     1.0000 0.91350  0.35000  0.59400  Biso   1.000  H
  C334     1.0000 0.87838  0.32429  0.63671  Biso   1.000  C
  H222     1.0000 0.86930  0.34910  0.64800  Biso   1.000  H
  C335     1.0000 0.86490  0.28782  0.65256  Biso   1.000  C
  C336     1.0000 0.87895  0.25215  0.63556  Biso   1.000  C
  H223     1.0000 0.86990  0.22690  0.64600  Biso   1.000  H
  C337     1.0000 0.90560  0.25243  0.60400  Biso   1.000  C
  H224     1.0000 0.91500  0.22760  0.59300  Biso   1.000  H
  C338     1.0000 0.83612  0.28656  0.68634  Biso   1.000  C
  C339     1.0000 0.83815  0.31346  0.71761  Biso   1.000  C
  H225     1.0000 0.85820  0.33410  0.71740  Biso   1.000  H
  C340     1.0000 0.77830  0.25312  0.71755  Biso   1.000  C
  C341     1.0000 0.80597  0.25707  0.68670  Biso   1.000  C
  H226     1.0000 0.80430  0.23880  0.66480  Biso   1.000  H
  C342     1.0000 0.01010  0.41330  0.53240  Biso   1.000  C
  H227     1.0000 0.01670  0.39920  0.55550  Biso   1.000  H
  C343     1.0000 0.01060  0.45522  0.53320  Biso   1.000  C
  H228     1.0000 0.01820  0.46870  0.55630  Biso   1.000  H
  C344     1.0000 0.97030  0.41470  0.51510  Biso   1.000  C
  H229     1.0000 0.95140  0.40080  0.52990  Biso   1.000  H
  C345     1.0000 0.96810  0.45610  0.51430  Biso   1.000  C
  H230     1.0000 0.94700  0.46960  0.52630  Biso   1.000  H
  O47      1.0000 0.45862  0.82349  0.04143  Biso   1.000  O
  O48      1.0000 0.45888  0.75557  0.04104  Biso   1.000  O
  C346     1.0000 0.44738  0.78943  0.05407  Biso   1.000  C
  C347     1.0000 0.41878  0.78918  0.08820  Biso   1.000  C
  C348     1.0000 0.40479  0.82484  0.10476  Biso   1.000  C
  H231     1.0000 0.41350  0.85000  0.09400  Biso   1.000  H
  C349     1.0000 0.37838  0.82429  0.13671  Biso   1.000  C
  H232     1.0000 0.36930  0.84910  0.14800  Biso   1.000  H
  C350     1.0000 0.36490  0.78782  0.15256  Biso   1.000  C
  C351     1.0000 0.37895  0.75215  0.13556  Biso   1.000  C
  H233     1.0000 0.36990  0.72690  0.14600  Biso   1.000  H
  C352     1.0000 0.40560  0.75243  0.10400  Biso   1.000  C
  H234     1.0000 0.41500  0.72760  0.09300  Biso   1.000  H
  C353     1.0000 0.33612  0.78656  0.18634  Biso   1.000  C
  C354     1.0000 0.33815  0.81346  0.21761  Biso   1.000  C
  H235     1.0000 0.35820  0.83410  0.21740  Biso   1.000  H
  C355     1.0000 0.27830  0.75312  0.21755  Biso   1.000  C
  C356     1.0000 0.30597  0.75707  0.18670  Biso   1.000  C
  H236     1.0000 0.30430  0.73880  0.16480  Biso   1.000  H
  C357     1.0000 0.51010  0.91330  0.03240  Biso   1.000  C
  H237     1.0000 0.51670  0.89920  0.05550  Biso   1.000  H
  C358     1.0000 0.51060  0.95522  0.03320  Biso   1.000  C
  H238     1.0000 0.51820  0.96870  0.05630  Biso   1.000  H
  C359     1.0000 0.47030  0.91470  0.01510  Biso   1.000  C
  H239     1.0000 0.45140  0.90080  0.02990  Biso   1.000  H
  C360     1.0000 0.46810  0.95610  0.01430  Biso   1.000  C
  H240     1.0000 0.44700  0.96960  0.02630  Biso   1.000  H
  O49      1.0000 0.32349  0.95862  0.45857  Biso   1.000  O
  O50      1.0000 0.25557  0.95888  0.45896  Biso   1.000  O
  C361     1.0000 0.28943  0.94738  0.44593  Biso   1.000  C
  C362     1.0000 0.28918  0.91878  0.41180  Biso   1.000  C
  C363     1.0000 0.32484  0.90479  0.39524  Biso   1.000  C
  H241     1.0000 0.35000  0.91350  0.40600  Biso   1.000  H
  C364     1.0000 0.32429  0.87838  0.36329  Biso   1.000  C
  H242     1.0000 0.34910  0.86930  0.35200  Biso   1.000  H
  C365     1.0000 0.28782  0.86490  0.34744  Biso   1.000  C
  C366     1.0000 0.25215  0.87895  0.36444  Biso   1.000  C
  H243     1.0000 0.22690  0.86990  0.35400  Biso   1.000  H
  C367     1.0000 0.25243  0.90560  0.39600  Biso   1.000  C
  H244     1.0000 0.22760  0.91500  0.40700  Biso   1.000  H
  C368     1.0000 0.28656  0.83612  0.31366  Biso   1.000  C
  C369     1.0000 0.31346  0.83815  0.28239  Biso   1.000  C
  H245     1.0000 0.33410  0.85820  0.28260  Biso   1.000  H
  C370     1.0000 0.25312  0.77830  0.28245  Biso   1.000  C
  C371     1.0000 0.25707  0.80597  0.31330  Biso   1.000  C
  H246     1.0000 0.23880  0.80430  0.33520  Biso   1.000  H
  C372     1.0000 0.41330  0.01010  0.46760  Biso   1.000  C
  H247     1.0000 0.39920  0.01670  0.44450  Biso   1.000  H
  C373     1.0000 0.45522  0.01060  0.46680  Biso   1.000  C
  H248     1.0000 0.46870  0.01820  0.44370  Biso   1.000  H
  C374     1.0000 0.41470  0.97030  0.48490  Biso   1.000  C
  H249     1.0000 0.40080  0.95140  0.47010  Biso   1.000  H
  C375     1.0000 0.45610  0.96810  0.48570  Biso   1.000  C
  H250     1.0000 0.46960  0.94700  0.47370  Biso   1.000  H
  O51      1.0000 0.82349  0.45862  0.95857  Biso   1.000  O
  O52      1.0000 0.75557  0.45888  0.95896  Biso   1.000  O
  C376     1.0000 0.78943  0.44738  0.94593  Biso   1.000  C
  C377     1.0000 0.78918  0.41878  0.91180  Biso   1.000  C
  C378     1.0000 0.82484  0.40479  0.89524  Biso   1.000  C
  H251     1.0000 0.85000  0.41350  0.90600  Biso   1.000  H
  C379     1.0000 0.82429  0.37838  0.86329  Biso   1.000  C
  H252     1.0000 0.84910  0.36930  0.85200  Biso   1.000  H
  C380     1.0000 0.78782  0.36490  0.84744  Biso   1.000  C
  C381     1.0000 0.75215  0.37895  0.86444  Biso   1.000  C
  H253     1.0000 0.72690  0.36990  0.85400  Biso   1.000  H
  C382     1.0000 0.75243  0.40560  0.89600  Biso   1.000  C
  H254     1.0000 0.72760  0.41500  0.90700  Biso   1.000  H
  C383     1.0000 0.78656  0.33612  0.81366  Biso   1.000  C
  C384     1.0000 0.81346  0.33815  0.78239  Biso   1.000  C
  H255     1.0000 0.83410  0.35820  0.78260  Biso   1.000  H
  C385     1.0000 0.75312  0.27830  0.78245  Biso   1.000  C
  C386     1.0000 0.75707  0.30597  0.81330  Biso   1.000  C
  H256     1.0000 0.73880  0.30430  0.83520  Biso   1.000  H
  C387     1.0000 0.91330  0.51010  0.96760  Biso   1.000  C
  H257     1.0000 0.89920  0.51670  0.94450  Biso   1.000  H
  C388     1.0000 0.95522  0.51060  0.96680  Biso   1.000  C
  H258     1.0000 0.96870  0.51820  0.94370  Biso   1.000  H
  C389     1.0000 0.91470  0.47030  0.98490  Biso   1.000  C
  H259     1.0000 0.90080  0.45140  0.97010  Biso   1.000  H
  C390     1.0000 0.95610  0.46810  0.98570  Biso   1.000  C
  H260     1.0000 0.96960  0.44700  0.97370  Biso   1.000  H
  O53      1.0000 0.67651  0.04138  0.45857  Biso   1.000  O
  O54      1.0000 0.74443  0.04112  0.45896  Biso   1.000  O
  C391     1.0000 0.71057  0.05262  0.44593  Biso   1.000  C
  C392     1.0000 0.71082  0.08122  0.41180  Biso   1.000  C
  C393     1.0000 0.67516  0.09521  0.39524  Biso   1.000  C
  H261     1.0000 0.65000  0.08650  0.40600  Biso   1.000  H
  C394     1.0000 0.67571  0.12162  0.36329  Biso   1.000  C
  H262     1.0000 0.65090  0.13070  0.35200  Biso   1.000  H
  C395     1.0000 0.71218  0.13510  0.34744  Biso   1.000  C
  C396     1.0000 0.74785  0.12105  0.36444  Biso   1.000  C
  H263     1.0000 0.77310  0.13010  0.35400  Biso   1.000  H
  C397     1.0000 0.74757  0.09440  0.39600  Biso   1.000  C
  H264     1.0000 0.77240  0.08500  0.40700  Biso   1.000  H
  C398     1.0000 0.71344  0.16388  0.31366  Biso   1.000  C
  C399     1.0000 0.68654  0.16185  0.28239  Biso   1.000  C
  H265     1.0000 0.66590  0.14180  0.28260  Biso   1.000  H
  C400     1.0000 0.74688  0.22170  0.28245  Biso   1.000  C
  C401     1.0000 0.74293  0.19403  0.31330  Biso   1.000  C
  H266     1.0000 0.76120  0.19570  0.33520  Biso   1.000  H
  C402     1.0000 0.58670  0.98990  0.46760  Biso   1.000  C
  H267     1.0000 0.60080  0.98330  0.44450  Biso   1.000  H
  C403     1.0000 0.54478  0.98940  0.46680  Biso   1.000  C
  H268     1.0000 0.53130  0.98180  0.44370  Biso   1.000  H
  C404     1.0000 0.58530  0.02970  0.48490  Biso   1.000  C
  H269     1.0000 0.59920  0.04860  0.47010  Biso   1.000  H
  C405     1.0000 0.54390  0.03190  0.48570  Biso   1.000  C
  H270     1.0000 0.53040  0.05300  0.47370  Biso   1.000  H
  O55      1.0000 0.17651  0.54138  0.95857  Biso   1.000  O
  O56      1.0000 0.24443  0.54112  0.95896  Biso   1.000  O
  C406     1.0000 0.21057  0.55262  0.94593  Biso   1.000  C
  C407     1.0000 0.21082  0.58122  0.91180  Biso   1.000  C
  C408     1.0000 0.17516  0.59521  0.89524  Biso   1.000  C
  H271     1.0000 0.15000  0.58650  0.90600  Biso   1.000  H
  C409     1.0000 0.17571  0.62162  0.86329  Biso   1.000  C
  H272     1.0000 0.15090  0.63070  0.85200  Biso   1.000  H
  C410     1.0000 0.21218  0.63510  0.84744  Biso   1.000  C
  C411     1.0000 0.24785  0.62105  0.86444  Biso   1.000  C
  H273     1.0000 0.27310  0.63010  0.85400  Biso   1.000  H
  C412     1.0000 0.24757  0.59440  0.89600  Biso   1.000  C
  H274     1.0000 0.27240  0.58500  0.90700  Biso   1.000  H
  C413     1.0000 0.21344  0.66388  0.81366  Biso   1.000  C
  C414     1.0000 0.18654  0.66185  0.78239  Biso   1.000  C
  H275     1.0000 0.16590  0.64180  0.78260  Biso   1.000  H
  C415     1.0000 0.24688  0.72170  0.78245  Biso   1.000  C
  C416     1.0000 0.24293  0.69403  0.81330  Biso   1.000  C
  H276     1.0000 0.26120  0.69570  0.83520  Biso   1.000  H
  C417     1.0000 0.08670  0.48990  0.96760  Biso   1.000  C
  H277     1.0000 0.10080  0.48330  0.94450  Biso   1.000  H
  C418     1.0000 0.04478  0.48940  0.96680  Biso   1.000  C
  H278     1.0000 0.03130  0.48180  0.94370  Biso   1.000  H
  C419     1.0000 0.08530  0.52970  0.98490  Biso   1.000  C
  H279     1.0000 0.09920  0.54860  0.97010  Biso   1.000  H
  C420     1.0000 0.04390  0.53190  0.98570  Biso   1.000  C
  H280     1.0000 0.03040  0.55300  0.97370  Biso   1.000  H
  O57      1.0000 0.95862  0.67651  0.45857  Biso   1.000  O
  O58      1.0000 0.95888  0.74443  0.45896  Biso   1.000  O
  C421     1.0000 0.94738  0.71057  0.44593  Biso   1.000  C
  C422     1.0000 0.91878  0.71082  0.41180  Biso   1.000  C
  C423     1.0000 0.90479  0.67516  0.39524  Biso   1.000  C
  H281     1.0000 0.91350  0.65000  0.40600  Biso   1.000  H
  C424     1.0000 0.87838  0.67571  0.36329  Biso   1.000  C
  H282     1.0000 0.86930  0.65090  0.35200  Biso   1.000  H
  C425     1.0000 0.86490  0.71218  0.34744  Biso   1.000  C
  C426     1.0000 0.87895  0.74785  0.36444  Biso   1.000  C
  H283     1.0000 0.86990  0.77310  0.35400  Biso   1.000  H
  C427     1.0000 0.90560  0.74757  0.39600  Biso   1.000  C
  H284     1.0000 0.91500  0.77240  0.40700  Biso   1.000  H
  C428     1.0000 0.83612  0.71344  0.31366  Biso   1.000  C
  C429     1.0000 0.83815  0.68654  0.28239  Biso   1.000  C
  H285     1.0000 0.85820  0.66590  0.28260  Biso   1.000  H
  C430     1.0000 0.77830  0.74688  0.28245  Biso   1.000  C
  C431     1.0000 0.80597  0.74293  0.31330  Biso   1.000  C
  H286     1.0000 0.80430  0.76120  0.33520  Biso   1.000  H
  C432     1.0000 0.01010  0.58670  0.46760  Biso   1.000  C
  H287     1.0000 0.01670  0.60080  0.44450  Biso   1.000  H
  C433     1.0000 0.01060  0.54478  0.46680  Biso   1.000  C
  H288     1.0000 0.01820  0.53130  0.44370  Biso   1.000  H
  C434     1.0000 0.97030  0.58530  0.48490  Biso   1.000  C
  H289     1.0000 0.95140  0.59920  0.47010  Biso   1.000  H
  C435     1.0000 0.96810  0.54390  0.48570  Biso   1.000  C
  H290     1.0000 0.94700  0.53040  0.47370  Biso   1.000  H
  O59      1.0000 0.45862  0.17651  0.95857  Biso   1.000  O
  O60      1.0000 0.45888  0.24443  0.95896  Biso   1.000  O
  C436     1.0000 0.44738  0.21057  0.94593  Biso   1.000  C
  C437     1.0000 0.41878  0.21082  0.91180  Biso   1.000  C
  C438     1.0000 0.40479  0.17516  0.89524  Biso   1.000  C
  H291     1.0000 0.41350  0.15000  0.90600  Biso   1.000  H
  C439     1.0000 0.37838  0.17571  0.86329  Biso   1.000  C
  H292     1.0000 0.36930  0.15090  0.85200  Biso   1.000  H
  C440     1.0000 0.36490  0.21218  0.84744  Biso   1.000  C
  C441     1.0000 0.37895  0.24785  0.86444  Biso   1.000  C
  H293     1.0000 0.36990  0.27310  0.85400  Biso   1.000  H
  C442     1.0000 0.40560  0.24757  0.89600  Biso   1.000  C
  H294     1.0000 0.41500  0.27240  0.90700  Biso   1.000  H
  C443     1.0000 0.33612  0.21344  0.81366  Biso   1.000  C
  C444     1.0000 0.33815  0.18654  0.78239  Biso   1.000  C
  H295     1.0000 0.35820  0.16590  0.78260  Biso   1.000  H
  C445     1.0000 0.27830  0.24688  0.78245  Biso   1.000  C
  C446     1.0000 0.30597  0.24293  0.81330  Biso   1.000  C
  H296     1.0000 0.30430  0.26120  0.83520  Biso   1.000  H
  C447     1.0000 0.51010  0.08670  0.96760  Biso   1.000  C
  H297     1.0000 0.51670  0.10080  0.94450  Biso   1.000  H
  C448     1.0000 0.51060  0.04478  0.96680  Biso   1.000  C
  H298     1.0000 0.51820  0.03130  0.94370  Biso   1.000  H
  C449     1.0000 0.47030  0.08530  0.98490  Biso   1.000  C
  H299     1.0000 0.45140  0.09920  0.97010  Biso   1.000  H
  C450     1.0000 0.46810  0.04390  0.98570  Biso   1.000  C
  H300     1.0000 0.44700  0.03040  0.97370  Biso   1.000  H
  O61      1.0000 0.04138  0.32349  0.45857  Biso   1.000  O
  O62      1.0000 0.04112  0.25557  0.45896  Biso   1.000  O
  C451     1.0000 0.05262  0.28943  0.44593  Biso   1.000  C
  C452     1.0000 0.08122  0.28918  0.41180  Biso   1.000  C
  C453     1.0000 0.09521  0.32484  0.39524  Biso   1.000  C
  H301     1.0000 0.08650  0.35000  0.40600  Biso   1.000  H
  C454     1.0000 0.12162  0.32429  0.36329  Biso   1.000  C
  H302     1.0000 0.13070  0.34910  0.35200  Biso   1.000  H
  C455     1.0000 0.13510  0.28782  0.34744  Biso   1.000  C
  C456     1.0000 0.12105  0.25215  0.36444  Biso   1.000  C
  H303     1.0000 0.13010  0.22690  0.35400  Biso   1.000  H
  C457     1.0000 0.09440  0.25243  0.39600  Biso   1.000  C
  H304     1.0000 0.08500  0.22760  0.40700  Biso   1.000  H
  C458     1.0000 0.16388  0.28656  0.31366  Biso   1.000  C
  C459     1.0000 0.16185  0.31346  0.28239  Biso   1.000  C
  H305     1.0000 0.14180  0.33410  0.28260  Biso   1.000  H
  C460     1.0000 0.22170  0.25312  0.28245  Biso   1.000  C
  C461     1.0000 0.19403  0.25707  0.31330  Biso   1.000  C
  H306     1.0000 0.19570  0.23880  0.33520  Biso   1.000  H
  C462     1.0000 0.98990  0.41330  0.46760  Biso   1.000  C
  H307     1.0000 0.98330  0.39920  0.44450  Biso   1.000  H
  C463     1.0000 0.98940  0.45522  0.46680  Biso   1.000  C
  H308     1.0000 0.98180  0.46870  0.44370  Biso   1.000  H
  C464     1.0000 0.02970  0.41470  0.48490  Biso   1.000  C
  H309     1.0000 0.04860  0.40080  0.47010  Biso   1.000  H
  C465     1.0000 0.03190  0.45610  0.48570  Biso   1.000  C
  H310     1.0000 0.05300  0.46960  0.47370  Biso   1.000  H
  O63      1.0000 0.54138  0.82349  0.95857  Biso   1.000  O
  O64      1.0000 0.54112  0.75557  0.95896  Biso   1.000  O
  C466     1.0000 0.55262  0.78943  0.94593  Biso   1.000  C
  C467     1.0000 0.58122  0.78918  0.91180  Biso   1.000  C
  C468     1.0000 0.59521  0.82484  0.89524  Biso   1.000  C
  H311     1.0000 0.58650  0.85000  0.90600  Biso   1.000  H
  C469     1.0000 0.62162  0.82429  0.86329  Biso   1.000  C
  H312     1.0000 0.63070  0.84910  0.85200  Biso   1.000  H
  C470     1.0000 0.63510  0.78782  0.84744  Biso   1.000  C
  C471     1.0000 0.62105  0.75215  0.86444  Biso   1.000  C
  H313     1.0000 0.63010  0.72690  0.85400  Biso   1.000  H
  C472     1.0000 0.59440  0.75243  0.89600  Biso   1.000  C
  H314     1.0000 0.58500  0.72760  0.90700  Biso   1.000  H
  C473     1.0000 0.66388  0.78656  0.81366  Biso   1.000  C
  C474     1.0000 0.66185  0.81346  0.78239  Biso   1.000  C
  H315     1.0000 0.64180  0.83410  0.78260  Biso   1.000  H
  C475     1.0000 0.72170  0.75312  0.78245  Biso   1.000  C
  C476     1.0000 0.69403  0.75707  0.81330  Biso   1.000  C
  H316     1.0000 0.69570  0.73880  0.83520  Biso   1.000  H
  C477     1.0000 0.48990  0.91330  0.96760  Biso   1.000  C
  H317     1.0000 0.48330  0.89920  0.94450  Biso   1.000  H
  C478     1.0000 0.48940  0.95522  0.96680  Biso   1.000  C
  H318     1.0000 0.48180  0.96870  0.94370  Biso   1.000  H
  C479     1.0000 0.52970  0.91470  0.98490  Biso   1.000  C
  H319     1.0000 0.54860  0.90080  0.97010  Biso   1.000  H
  C480     1.0000 0.53190  0.95610  0.98570  Biso   1.000  C
  H320     1.0000 0.55300  0.96960  0.97370  Biso   1.000  H
  Cu1      1.0000 0.32976  0.00000  0.50000  Biso   1.000  Cu
  Cu2      1.0000 0.25185  0.00000  0.50000  Biso   1.000  Cu
  N1       1.0000 0.39394  0.00000  0.50000  Biso   1.000  N
  C481     1.0000 0.47755  0.00000  0.50000  Biso   1.000  C
  Cu3      1.0000 0.82976  0.50000  0.00000  Biso   1.000  Cu
  Cu4      1.0000 0.75185  0.50000  0.00000  Biso   1.000  Cu
  N2       1.0000 0.89394  0.50000  0.00000  Biso   1.000  N
  C482     1.0000 0.97755  0.50000  0.00000  Biso   1.000  C
  Cu5      1.0000 0.67024  0.00000  0.50000  Biso   1.000  Cu
  Cu6      1.0000 0.74815  0.00000  0.50000  Biso   1.000  Cu
  N3       1.0000 0.60606  0.00000  0.50000  Biso   1.000  N
  C483     1.0000 0.52245  0.00000  0.50000  Biso   1.000  C
  Cu7      1.0000 0.17024  0.50000  0.00000  Biso   1.000  Cu
  Cu8      1.0000 0.24815  0.50000  0.00000  Biso   1.000  Cu
  N4       1.0000 0.10606  0.50000  0.00000  Biso   1.000  N
  C484     1.0000 0.02245  0.50000  0.00000  Biso   1.000  C
  Cu9      1.0000 0.00000  0.32976  0.50000  Biso   1.000  Cu
  Cu10     1.0000 0.00000  0.25185  0.50000  Biso   1.000  Cu
  N5       1.0000 0.00000  0.39394  0.50000  Biso   1.000  N
  C485     1.0000 0.00000  0.47755  0.50000  Biso   1.000  C
  Cu11     1.0000 0.50000  0.82976  0.00000  Biso   1.000  Cu
  Cu12     1.0000 0.50000  0.75185  0.00000  Biso   1.000  Cu
  N6       1.0000 0.50000  0.89394  0.00000  Biso   1.000  N
  C486     1.0000 0.50000  0.97755  0.00000  Biso   1.000  C
  Cu13     1.0000 0.00000  0.67024  0.50000  Biso   1.000  Cu
  Cu14     1.0000 0.00000  0.74815  0.50000  Biso   1.000  Cu
  N7       1.0000 0.00000  0.60606  0.50000  Biso   1.000  N
  C487     1.0000 0.00000  0.52245  0.50000  Biso   1.000  C
  Cu15     1.0000 0.50000  0.17024  0.00000  Biso   1.000  Cu
  Cu16     1.0000 0.50000  0.24815  0.00000  Biso   1.000  Cu
  N8       1.0000 0.50000  0.10606  0.00000  Biso   1.000  N
  C488     1.0000 0.50000  0.02245  0.00000  Biso   1.000  C
  C489     1.0000 0.31095  0.18905  0.25000  Biso   1.000  C
  C490     1.0000 0.28061  0.21939  0.25000  Biso   1.000  C
  C491     1.0000 0.68905  0.81095  0.25000  Biso   1.000  C
  C492     1.0000 0.71939  0.78061  0.25000  Biso   1.000  C
  C493     1.0000 0.81095  0.31095  0.25000  Biso   1.000  C
  C494     1.0000 0.78061  0.28061  0.25000  Biso   1.000  C
  C495     1.0000 0.18905  0.68905  0.25000  Biso   1.000  C
  C496     1.0000 0.21939  0.71939  0.25000  Biso   1.000  C
  C497     1.0000 0.68905  0.18905  0.75000  Biso   1.000  C
  C498     1.0000 0.71939  0.21939  0.75000  Biso   1.000  C
  C499     1.0000 0.31095  0.81095  0.75000  Biso   1.000  C
  C500     1.0000 0.28061  0.78061  0.75000  Biso   1.000  C
  C501     1.0000 0.18905  0.31095  0.75000  Biso   1.000  C
  C502     1.0000 0.21939  0.28061  0.75000  Biso   1.000  C
  C503     1.0000 0.81095  0.68905  0.75000  Biso   1.000  C
  C504     1.0000 0.78061  0.71939  0.75000  Biso   1.000  C
  C505     1.0000 0.68905  0.81095  0.75000  Biso   1.000  C
  C506     1.0000 0.71939  0.78061  0.75000  Biso   1.000  C
  C507     1.0000 0.18905  0.31095  0.25000  Biso   1.000  C
  C508     1.0000 0.21939  0.28061  0.25000  Biso   1.000  C
  C509     1.0000 0.31095  0.18905  0.75000  Biso   1.000  C
  C510     1.0000 0.28061  0.21939  0.75000  Biso   1.000  C
  C511     1.0000 0.18905  0.68905  0.75000  Biso   1.000  C
  C512     1.0000 0.21939  0.71939  0.75000  Biso   1.000  C
  C513     1.0000 0.81095  0.31095  0.75000  Biso   1.000  C
  C514     1.0000 0.78061  0.28061  0.75000  Biso   1.000  C
  C515     1.0000 0.31095  0.81095  0.25000  Biso   1.000  C
  C516     1.0000 0.28061  0.78061  0.25000  Biso   1.000  C
  C517     1.0000 0.68905  0.18905  0.25000  Biso   1.000  C
  C518     1.0000 0.71939  0.21939  0.25000  Biso   1.000  C
  C519     1.0000 0.81095  0.68905  0.25000  Biso   1.000  C
  C520     1.0000 0.78061  0.71939  0.25000  Biso   1.000  C
